Z45617795
  -OEChem-03282016173D

 26 26  0     0  0  0  0  0  0999 V2000
   13.2489   -0.5820   24.4198 C   0  0  0  0  0  0  0  0  0  0  0  0
   12.0382   -0.1805   24.9840 C   0  0  0  0  0  0  0  0  0  0  0  0
   13.2547   -1.4060   23.2943 C   0  0  0  0  0  0  0  0  0  0  0  0
   10.8331   -0.6030   24.4228 C   0  0  0  0  0  0  0  0  0  0  0  0
   12.0496   -1.8285   22.7331 C   0  0  0  0  0  0  0  0  0  0  0  0
   10.8388   -1.4271   23.2973 C   0  0  0  0  0  0  0  0  0  0  0  0
    6.4727   -4.3938   25.2313 C   0  0  0  0  0  0  0  0  0  0  0  0
    9.5355   -1.8848   22.6899 C   0  0  0  0  0  0  0  0  0  0  0  0
    9.0323   -3.1995   23.2808 C   0  0  0  0  0  0  0  0  0  0  0  0
    8.7696   -3.1052   24.7281 N   0  0  0  0  0  0  0  0  0  0  0  0
    8.4074   -4.3050   26.9917 O   0  0  0  0  0  0  0  0  0  0  0  0
    8.7248   -5.6664   24.8936 O   0  0  0  0  0  0  0  0  0  0  0  0
    8.2167   -4.4861   25.5660 S   0  0  0  0  0  0  0  0  0  0  0  0
   14.1872   -0.2518   24.8560 H   0  0  0  0  0  0  0  0  0  0  0  0
   12.0335    0.4620   25.8597 H   0  0  0  0  0  0  0  0  0  0  0  0
   14.1972   -1.7178   22.8540 H   0  0  0  0  0  0  0  0  0  0  0  0
    9.8945   -0.2854   24.8693 H   0  0  0  0  0  0  0  0  0  0  0  0
   12.0638   -2.4705   21.8563 H   0  0  0  0  0  0  0  0  0  0  0  0
    5.9832   -5.2379   25.7197 H   0  0  0  0  0  0  0  0  0  0  0  0
    6.0952   -3.4505   25.6288 H   0  0  0  0  0  0  0  0  0  0  0  0
    6.3266   -4.4397   24.1511 H   0  0  0  0  0  0  0  0  0  0  0  0
    9.6787   -2.0046   21.6085 H   0  0  0  0  0  0  0  0  0  0  0  0
    8.7756   -1.1019   22.8088 H   0  0  0  0  0  0  0  0  0  0  0  0
    8.0878   -3.4842   22.8065 H   0  0  0  0  0  0  0  0  0  0  0  0
    9.7499   -4.0122   23.1276 H   0  0  0  0  0  0  0  0  0  0  0  0
    8.3880   -2.1976   25.0247 H   0  0  0  0  0  0  0  0  0  0  0  0
  1  2  1  0  0  0  0
  1  3  2  0  0  0  0
  2  4  2  0  0  0  0
  3  5  1  0  0  0  0
  4  6  1  0  0  0  0
  5  6  2  0  0  0  0
  6  8  1  0  0  0  0
  7 13  1  0  0  0  0
  8  9  1  0  0  0  0
  9 10  1  0  0  0  0
 10 13  1  0  0  0  0
 11 13  2  0  0  0  0
 12 13  2  0  0  0  0
  1 14  1  0  0  0  0
  2 15  1  0  0  0  0
  3 16  1  0  0  0  0
  4 17  1  0  0  0  0
  5 18  1  0  0  0  0
  7 19  1  0  0  0  0
  7 20  1  0  0  0  0
  7 21  1  0  0  0  0
  8 22  1  0  0  0  0
  8 23  1  0  0  0  0
  9 24  1  0  0  0  0
  9 25  1  0  0  0  0
 10 26  1  0  0  0  0
M  END
> <fragments>
x0072

> <Hybrid2>
-7.050613

$$$$
Z1220452176
  -OEChem-03282016173D

 29 30  0     0  0  0  0  0  0999 V2000
   10.5572   -0.7007   23.7943 C   0  0  0  0  0  0  0  0  0  0  0  0
   11.5731   -1.3718   23.1076 C   0  0  0  0  0  0  0  0  0  0  0  0
   12.7873    0.7022   22.7594 C   0  0  0  0  0  0  0  0  0  0  0  0
   10.3810    2.8516   24.4771 C   0  0  0  0  0  0  0  0  0  0  0  0
   11.7754    1.4003   23.4481 C   0  0  0  0  0  0  0  0  0  0  0  0
   11.5695    2.7664   23.7892 C   0  0  0  0  0  0  0  0  0  0  0  0
   10.6860    0.6842   23.9486 C   0  0  0  0  0  0  0  0  0  0  0  0
   12.6719   -0.6832   22.5974 C   0  0  0  0  0  0  0  0  0  0  0  0
    9.5818    6.2641   23.2394 C   0  0  0  0  0  0  0  0  0  0  0  0
    8.4682    6.3048   22.2461 C   0  0  0  0  0  0  0  0  0  0  0  0
   12.4644    3.8972   23.4690 C   0  0  0  0  0  0  0  0  0  0  0  0
   11.8240    5.2818   23.6754 C   0  0  0  0  0  0  0  0  0  0  0  0
    9.8556    1.5906   24.5684 N   0  0  0  0  0  0  0  0  0  0  0  0
   10.6480    5.4613   22.8669 N   0  0  0  0  0  0  0  0  0  0  0  0
    9.4918    6.9131   24.2749 O   0  0  0  0  0  0  0  0  0  0  0  0
   13.6305   -1.3546   21.9447 F   0  0  0  0  0  0  0  0  0  0  0  0
    9.7022   -1.2378   24.1906 H   0  0  0  0  0  0  0  0  0  0  0  0
   11.5034   -2.4475   22.9691 H   0  0  0  0  0  0  0  0  0  0  0  0
   13.6506    1.2238   22.3561 H   0  0  0  0  0  0  0  0  0  0  0  0
    9.8609    3.6949   24.9099 H   0  0  0  0  0  0  0  0  0  0  0  0
    7.7156    5.5203   22.4257 H   0  0  0  0  0  0  0  0  0  0  0  0
    7.9113    7.2551   22.2776 H   0  0  0  0  0  0  0  0  0  0  0  0
    8.7704    6.1810   21.1939 H   0  0  0  0  0  0  0  0  0  0  0  0
   12.7976    3.8311   22.4145 H   0  0  0  0  0  0  0  0  0  0  0  0
   13.4015    3.8491   24.0595 H   0  0  0  0  0  0  0  0  0  0  0  0
   11.5155    5.4201   24.7164 H   0  0  0  0  0  0  0  0  0  0  0  0
   12.5267    6.0814   23.4185 H   0  0  0  0  0  0  0  0  0  0  0  0
    8.9839    1.3583   25.0240 H   0  0  0  0  0  0  0  0  0  0  0  0
   10.5963    4.9730   21.9742 H   0  0  0  0  0  0  0  0  0  0  0  0
  1  2  2  0  0  0  0
  1  7  1  0  0  0  0
  2  8  1  0  0  0  0
  3  5  1  0  0  0  0
  3  8  2  0  0  0  0
  4  6  2  0  0  0  0
  4 13  1  0  0  0  0
  5  6  1  0  0  0  0
  5  7  2  0  0  0  0
  6 11  1  0  0  0  0
  7 13  1  0  0  0  0
  8 16  1  0  0  0  0
  9 10  1  0  0  0  0
  9 14  1  0  0  0  0
  9 15  2  0  0  0  0
 11 12  1  0  0  0  0
 12 14  1  0  0  0  0
  1 17  1  0  0  0  0
  2 18  1  0  0  0  0
  3 19  1  0  0  0  0
  4 20  1  0  0  0  0
 10 21  1  0  0  0  0
 10 22  1  0  0  0  0
 10 23  1  0  0  0  0
 11 24  1  0  0  0  0
 11 25  1  0  0  0  0
 12 26  1  0  0  0  0
 12 27  1  0  0  0  0
 13 28  1  0  0  0  0
 14 29  1  0  0  0  0
M  END
> <fragments>
x0104

> <Hybrid2>
-10.112116

$$$$
Z1129283193
  -OEChem-03282016173D

 21 21  0     0  0  0  0  0  0999 V2000
    5.0190    1.0023   19.3577 C   0  0  0  0  0  0  0  0  0  0  0  0
    5.5252    0.6616   18.1138 C   0  0  0  0  0  0  0  0  0  0  0  0
    7.6021    0.2066   18.9842 C   0  0  0  0  0  0  0  0  0  0  0  0
    5.8754    0.9307   20.4507 C   0  0  0  0  0  0  0  0  0  0  0  0
    7.1933    0.5262   20.2690 C   0  0  0  0  0  0  0  0  0  0  0  0
    9.4359    0.0488   21.3020 C   0  0  0  0  0  0  0  0  0  0  0  0
    5.3563    1.2929   21.8035 C   0  0  0  0  0  0  0  0  0  0  0  0
   10.0617    0.0866   22.6736 C   0  0  0  0  0  0  0  0  0  0  0  0
    6.7992    0.2642   17.8980 N   0  0  0  0  0  0  0  0  0  0  0  0
    8.0898    0.4382   21.3336 N   0  0  0  0  0  0  0  0  0  0  0  0
   10.0911   -0.2897   20.3217 O   0  0  0  0  0  0  0  0  0  0  0  0
    3.9857    1.3142   19.4657 H   0  0  0  0  0  0  0  0  0  0  0  0
    4.8980    0.7010   17.2292 H   0  0  0  0  0  0  0  0  0  0  0  0
    8.6184   -0.1161   18.7784 H   0  0  0  0  0  0  0  0  0  0  0  0
    4.9451    0.4075   22.3021 H   0  0  0  0  0  0  0  0  0  0  0  0
    6.1504    1.7119   22.4336 H   0  0  0  0  0  0  0  0  0  0  0  0
    4.5683    2.0532   21.7350 H   0  0  0  0  0  0  0  0  0  0  0  0
    9.9360   -0.8824   23.1647 H   0  0  0  0  0  0  0  0  0  0  0  0
    9.5773    0.8570   23.2803 H   0  0  0  0  0  0  0  0  0  0  0  0
   11.1274    0.3201   22.5913 H   0  0  0  0  0  0  0  0  0  0  0  0
    7.7245    0.6896   22.2597 H   0  0  0  0  0  0  0  0  0  0  0  0
  1  2  2  0  0  0  0
  1  4  1  0  0  0  0
  2  9  1  0  0  0  0
  3  5  1  0  0  0  0
  3  9  2  0  0  0  0
  4  5  2  0  0  0  0
  4  7  1  0  0  0  0
  5 10  1  0  0  0  0
  6  8  1  0  0  0  0
  6 10  1  0  0  0  0
  6 11  2  0  0  0  0
  1 12  1  0  0  0  0
  2 13  1  0  0  0  0
  3 14  1  0  0  0  0
  7 15  1  0  0  0  0
  7 16  1  0  0  0  0
  7 17  1  0  0  0  0
  8 18  1  0  0  0  0
  8 19  1  0  0  0  0
  8 20  1  0  0  0  0
 10 21  1  0  0  0  0
M  END
> <fragments>
x0107

> <Hybrid2>
-6.576210

$$$$
Z18197050
  -OEChem-03282016173D

 23 23  0     0  0  0  0  0  0999 V2000
   11.3216    0.7863   24.6051 C   0  0  0  0  0  0  0  0  0  0  0  0
   12.9495    1.3628   22.9156 C   0  0  0  0  0  0  0  0  0  0  0  0
   10.8273    2.0902   24.5738 C   0  0  0  0  0  0  0  0  0  0  0  0
   12.4552    2.6667   22.8842 C   0  0  0  0  0  0  0  0  0  0  0  0
   12.3827    0.4226   23.7760 C   0  0  0  0  0  0  0  0  0  0  0  0
   11.3941    3.0305   23.7134 C   0  0  0  0  0  0  0  0  0  0  0  0
   12.9004   -0.9360   23.8113 C   0  0  0  0  0  0  0  0  0  0  0  0
   14.4995   -2.3641   24.8581 C   0  0  0  0  0  0  0  0  0  0  0  0
    9.5719    4.5260   22.4692 N   0  0  0  0  0  0  0  0  0  0  0  0
   12.4876   -1.8615   23.0999 O   0  0  0  0  0  0  0  0  0  0  0  0
   10.1318    4.9404   24.9512 O   0  0  0  0  0  0  0  0  0  0  0  0
   11.8266    5.5446   23.1876 O   0  0  0  0  0  0  0  0  0  0  0  0
   13.9055   -1.0678   24.7303 O   0  0  0  0  0  0  0  0  0  0  0  0
   10.7751    4.6627   23.6747 S   0  0  0  0  0  0  0  0  0  0  0  0
   10.8736    0.0623   25.2809 H   0  0  0  0  0  0  0  0  0  0  0  0
   13.7773    1.0906   22.2657 H   0  0  0  0  0  0  0  0  0  0  0  0
   10.0000    2.3632   25.2231 H   0  0  0  0  0  0  0  0  0  0  0  0
   12.9037    3.3918   22.2106 H   0  0  0  0  0  0  0  0  0  0  0  0
   15.2826   -2.3333   25.6197 H   0  0  0  0  0  0  0  0  0  0  0  0
   14.9225   -2.6684   23.8974 H   0  0  0  0  0  0  0  0  0  0  0  0
   13.7304   -3.0795   25.1584 H   0  0  0  0  0  0  0  0  0  0  0  0
    8.5884    4.5592   22.7640 H   0  0  0  0  0  0  0  0  0  0  0  0
    9.7480    4.9705   21.5599 H   0  0  0  0  0  0  0  0  0  0  0  0
  1  3  2  0  0  0  0
  1  5  1  0  0  0  0
  2  4  1  0  0  0  0
  2  5  2  0  0  0  0
  3  6  1  0  0  0  0
  4  6  2  0  0  0  0
  5  7  1  0  0  0  0
  6 14  1  0  0  0  0
  7 10  2  0  0  0  0
  7 13  1  0  0  0  0
  8 13  1  0  0  0  0
  9 14  1  0  0  0  0
 11 14  2  0  0  0  0
 12 14  2  0  0  0  0
  1 15  1  0  0  0  0
  2 16  1  0  0  0  0
  3 17  1  0  0  0  0
  4 18  1  0  0  0  0
  8 19  1  0  0  0  0
  8 20  1  0  0  0  0
  8 21  1  0  0  0  0
  9 22  1  0  0  0  0
  9 23  1  0  0  0  0
M  END
> <fragments>
x0161

> <Hybrid2>
-6.763607

$$$$
Z2856434890
  -OEChem-03282016173D

 34 35  0     0  0  0  0  0  0999 V2000
   22.3196  -23.2115   17.3931 C   0  0  0  0  0  0  0  0  0  0  0  0
   21.9568  -24.0094   18.4782 C   0  0  0  0  0  0  0  0  0  0  0  0
   22.8968  -21.9603   17.6097 C   0  0  0  0  0  0  0  0  0  0  0  0
   22.1712  -23.5561   19.7798 C   0  0  0  0  0  0  0  0  0  0  0  0
   23.1112  -21.5069   18.9113 C   0  0  0  0  0  0  0  0  0  0  0  0
   22.7484  -22.3049   19.9964 C   0  0  0  0  0  0  0  0  0  0  0  0
   23.5277  -20.6295   21.7205 C   0  0  0  0  0  0  0  0  0  0  0  0
   22.0461  -20.8541   23.7856 C   0  0  0  0  0  0  0  0  0  0  0  0
   23.5418  -18.8890   23.4977 C   0  0  0  0  0  0  0  0  0  0  0  0
   21.9684  -20.2988   25.1983 C   0  0  0  0  0  0  0  0  0  0  0  0
   22.4155  -18.0523   24.0845 C   0  0  0  0  0  0  0  0  0  0  0  0
   21.7461  -18.1872   26.5030 C   0  0  0  0  0  0  0  0  0  0  0  0
   23.0396  -20.1549   22.9608 N   0  0  0  0  0  0  0  0  0  0  0  0
   22.9663  -21.8445   21.3191 N   0  0  0  0  0  0  0  0  0  0  0  0
   21.6493  -18.8227   25.1435 N   0  3  0  0  0  0  0  0  0  0  0  0
   24.3635  -19.9989   21.0698 O   0  0  0  0  0  0  0  0  0  0  0  0
   22.1535  -23.5645   16.3795 H   0  0  0  0  0  0  0  0  0  0  0  0
   21.5082  -24.9840   18.3099 H   0  0  0  0  0  0  0  0  0  0  0  0
   23.1801  -21.3396   16.7646 H   0  0  0  0  0  0  0  0  0  0  0  0
   21.8846  -24.1868   20.6176 H   0  0  0  0  0  0  0  0  0  0  0  0
   23.5619  -20.5300   19.0680 H   0  0  0  0  0  0  0  0  0  0  0  0
   22.2576  -21.9260   23.8606 H   0  0  0  0  0  0  0  0  0  0  0  0
   21.0757  -20.7557   23.2749 H   0  0  0  0  0  0  0  0  0  0  0  0
   24.0272  -18.3564   22.6731 H   0  0  0  0  0  0  0  0  0  0  0  0
   24.3026  -19.0613   24.2625 H   0  0  0  0  0  0  0  0  0  0  0  0
   21.1640  -20.7841   25.7607 H   0  0  0  0  0  0  0  0  0  0  0  0
   22.9153  -20.4163   25.7374 H   0  0  0  0  0  0  0  0  0  0  0  0
   22.7906  -17.1232   24.5524 H   0  0  0  0  0  0  0  0  0  0  0  0
   21.6901  -17.7754   23.2990 H   0  0  0  0  0  0  0  0  0  0  0  0
   22.7894  -18.2350   26.8204 H   0  0  0  0  0  0  0  0  0  0  0  0
   21.4102  -17.1524   26.4128 H   0  0  0  0  0  0  0  0  0  0  0  0
   21.1032  -18.7508   27.1818 H   0  0  0  0  0  0  0  0  0  0  0  0
   22.6671  -22.5017   22.0938 H   0  0  0  0  0  0  0  0  0  0  0  0
   20.6288  -18.7504   24.8861 H   0  0  0  0  0  0  0  0  0  0  0  0
  1  2  1  0  0  0  0
  1  3  2  0  0  0  0
  2  4  2  0  0  0  0
  3  5  1  0  0  0  0
  4  6  1  0  0  0  0
  5  6  2  0  0  0  0
  6 14  1  0  0  0  0
  7 13  1  0  0  0  0
  7 14  1  0  0  0  0
  7 16  2  0  0  0  0
  8 10  1  0  0  0  0
  8 13  1  0  0  0  0
  9 11  1  0  0  0  0
  9 13  1  0  0  0  0
 10 15  1  0  0  0  0
 11 15  1  0  0  0  0
 12 15  1  0  0  0  0
  1 17  1  0  0  0  0
  2 18  1  0  0  0  0
  3 19  1  0  0  0  0
  4 20  1  0  0  0  0
  5 21  1  0  0  0  0
  8 22  1  0  0  0  0
  8 23  1  0  0  0  0
  9 24  1  0  0  0  0
  9 25  1  0  0  0  0
 10 26  1  0  0  0  0
 10 27  1  0  0  0  0
 11 28  1  0  0  0  0
 11 29  1  0  0  0  0
 12 30  1  0  0  0  0
 12 31  1  0  0  0  0
 12 32  1  0  0  0  0
 14 33  1  0  0  0  0
 15 34  1  0  0  0  0
M  CHG  1  15   1
M  END
> <fragments>
x0165

> <Hybrid2>
-1.649171

$$$$
Z33545544
  -OEChem-03282016173D

 35 36  0     0  0  0  0  0  0999 V2000
   21.8957  -25.1693   18.2693 C   0  0  0  0  0  0  0  0  0  0  0  0
   22.0445  -23.8771   17.7656 C   0  0  0  0  0  0  0  0  0  0  0  0
   21.9594  -25.3934   19.6446 C   0  0  0  0  0  0  0  0  0  0  0  0
   22.2572  -22.8090   18.6371 C   0  0  0  0  0  0  0  0  0  0  0  0
   22.1720  -24.3253   20.5162 C   0  0  0  0  0  0  0  0  0  0  0  0
   22.3209  -23.0331   20.0125 C   0  0  0  0  0  0  0  0  0  0  0  0
   25.2001  -18.1742   24.5009 C   0  0  0  0  0  0  0  0  0  0  0  0
   22.6264  -21.9969   22.2883 C   0  0  0  0  0  0  0  0  0  0  0  0
   23.7586  -18.5935   22.5320 C   0  0  0  0  0  0  0  0  0  0  0  0
   23.1439  -19.5588   24.8135 C   0  0  0  0  0  0  0  0  0  0  0  0
   24.2263  -19.9903   22.1282 C   0  0  0  0  0  0  0  0  0  0  0  0
   23.6042  -20.9279   24.3078 C   0  0  0  0  0  0  0  0  0  0  0  0
   23.7647  -18.3890   24.0487 C   0  0  0  0  0  0  0  0  0  0  0  0
   23.4565  -21.0074   22.8547 N   0  0  0  0  0  0  0  0  0  0  0  0
   25.3272  -17.9379   25.8493 N   0  0  0  0  0  0  0  0  0  0  0  0
   22.5367  -21.9478   20.8977 N   0  0  0  0  0  0  0  0  0  0  0  0
   26.1460  -18.2284   23.7188 O   0  0  0  0  0  0  0  0  0  0  0  0
   22.0178  -22.8109   22.9876 O   0  0  0  0  0  0  0  0  0  0  0  0
   21.7293  -26.0011   17.5910 H   0  0  0  0  0  0  0  0  0  0  0  0
   21.9941  -23.7021   16.6950 H   0  0  0  0  0  0  0  0  0  0  0  0
   21.8424  -26.3996   20.0366 H   0  0  0  0  0  0  0  0  0  0  0  0
   22.3716  -21.8062   18.2331 H   0  0  0  0  0  0  0  0  0  0  0  0
   22.2197  -24.5119   21.5862 H   0  0  0  0  0  0  0  0  0  0  0  0
   24.3924  -17.8448   22.0415 H   0  0  0  0  0  0  0  0  0  0  0  0
   22.7388  -18.4416   22.1557 H   0  0  0  0  0  0  0  0  0  0  0  0
   22.0522  -19.5023   24.7123 H   0  0  0  0  0  0  0  0  0  0  0  0
   23.3650  -19.4783   25.8847 H   0  0  0  0  0  0  0  0  0  0  0  0
   24.1666  -20.1053   21.0461 H   0  0  0  0  0  0  0  0  0  0  0  0
   25.2812  -20.1322   22.3928 H   0  0  0  0  0  0  0  0  0  0  0  0
   24.6605  -21.0983   24.5448 H   0  0  0  0  0  0  0  0  0  0  0  0
   23.0296  -21.7136   24.8084 H   0  0  0  0  0  0  0  0  0  0  0  0
   23.2427  -17.4708   24.2913 H   0  0  0  0  0  0  0  0  0  0  0  0
   24.4899  -17.9241   26.4224 H   0  0  0  0  0  0  0  0  0  0  0  0
   26.2248  -17.7766   26.2946 H   0  0  0  0  0  0  0  0  0  0  0  0
   22.6409  -20.9971   20.4508 H   0  0  0  0  0  0  0  0  0  0  0  0
  1  2  1  0  0  0  0
  1  3  2  0  0  0  0
  2  4  2  0  0  0  0
  3  5  1  0  0  0  0
  4  6  1  0  0  0  0
  5  6  2  0  0  0  0
  6 16  1  0  0  0  0
  7 13  1  0  0  0  0
  7 15  1  0  0  0  0
  7 17  2  0  0  0  0
  8 14  1  0  0  0  0
  8 16  1  0  0  0  0
  8 18  2  0  0  0  0
  9 11  1  0  0  0  0
  9 13  1  0  0  0  0
 10 12  1  0  0  0  0
 10 13  1  0  0  0  0
 11 14  1  0  0  0  0
 12 14  1  0  0  0  0
  1 19  1  0  0  0  0
  2 20  1  0  0  0  0
  3 21  1  0  0  0  0
  4 22  1  0  0  0  0
  5 23  1  0  0  0  0
  9 24  1  0  0  0  0
  9 25  1  0  0  0  0
 10 26  1  0  0  0  0
 10 27  1  0  0  0  0
 11 28  1  0  0  0  0
 11 29  1  0  0  0  0
 12 30  1  0  0  0  0
 12 31  1  0  0  0  0
 13 32  1  0  0  0  0
 15 33  1  0  0  0  0
 15 34  1  0  0  0  0
 16 35  1  0  0  0  0
M  END
> <fragments>
x0177

> <Hybrid2>
0.227592

$$$$
Z54571979
  -OEChem-03282016173D

 28 29  0     0  0  0  0  0  0999 V2000
   24.9901  -19.1309   22.2645 C   0  0  0  0  0  0  0  0  0  0  0  0
   23.0721  -19.7473   23.5980 C   0  0  0  0  0  0  0  0  0  0  0  0
   25.5195  -18.4317   23.3491 C   0  0  0  0  0  0  0  0  0  0  0  0
   23.6015  -19.0482   24.6827 C   0  0  0  0  0  0  0  0  0  0  0  0
   24.3490  -13.7803   26.0046 C   0  0  0  0  0  0  0  0  0  0  0  0
   23.6006  -14.7877   26.5786 C   0  0  0  0  0  0  0  0  0  0  0  0
   25.4557  -14.1916   25.2903 C   0  0  0  0  0  0  0  0  0  0  0  0
   23.7663  -19.7887   22.3889 C   0  0  0  0  0  0  0  0  0  0  0  0
   24.8252  -18.3904   24.5582 C   0  0  0  0  0  0  0  0  0  0  0  0
   25.0035  -16.3717   25.7480 C   0  0  0  0  0  0  0  0  0  0  0  0
   23.7833  -20.6405   20.0228 C   0  0  0  0  0  0  0  0  0  0  0  0
   22.8966  -21.4742   19.1322 C   0  0  0  0  0  0  0  0  0  0  0  0
   23.9000  -16.0987   26.4701 N   0  0  0  0  0  0  0  0  0  0  0  0
   25.8139  -15.4838   25.1412 N   0  0  0  0  0  0  0  0  0  0  0  0
   23.2367  -20.4880   21.3040 N   0  0  0  0  0  0  0  0  0  0  0  0
   24.8440  -20.1868   19.6057 O   0  0  0  0  0  0  0  0  0  0  0  0
   25.3418  -17.7081   25.6167 O   0  0  0  0  0  0  0  0  0  0  0  0
   25.5398  -19.1565   21.3270 H   0  0  0  0  0  0  0  0  0  0  0  0
   22.1176  -20.2562   23.7065 H   0  0  0  0  0  0  0  0  0  0  0  0
   26.4732  -17.9213   23.2461 H   0  0  0  0  0  0  0  0  0  0  0  0
   23.0560  -19.0196   25.6220 H   0  0  0  0  0  0  0  0  0  0  0  0
   24.0854  -12.7363   26.1081 H   0  0  0  0  0  0  0  0  0  0  0  0
   22.7127  -14.5613   27.1593 H   0  0  0  0  0  0  0  0  0  0  0  0
   26.1051  -13.4714   24.8039 H   0  0  0  0  0  0  0  0  0  0  0  0
   22.1901  -20.8279   18.6038 H   0  0  0  0  0  0  0  0  0  0  0  0
   22.3358  -22.1929   19.7365 H   0  0  0  0  0  0  0  0  0  0  0  0
   23.5053  -22.0219   18.4067 H   0  0  0  0  0  0  0  0  0  0  0  0
   22.3338  -20.9518   21.4577 H   0  0  0  0  0  0  0  0  0  0  0  0
  1  3  2  0  0  0  0
  1  8  1  0  0  0  0
  2  4  1  0  0  0  0
  2  8  2  0  0  0  0
  3  9  1  0  0  0  0
  4  9  2  0  0  0  0
  5  6  1  0  0  0  0
  5  7  2  0  0  0  0
  6 13  2  0  0  0  0
  7 14  1  0  0  0  0
  8 15  1  0  0  0  0
  9 17  1  0  0  0  0
 10 13  1  0  0  0  0
 10 14  2  0  0  0  0
 10 17  1  0  0  0  0
 11 12  1  0  0  0  0
 11 15  1  0  0  0  0
 11 16  2  0  0  0  0
  1 18  1  0  0  0  0
  2 19  1  0  0  0  0
  3 20  1  0  0  0  0
  4 21  1  0  0  0  0
  5 22  1  0  0  0  0
  6 23  1  0  0  0  0
  7 24  1  0  0  0  0
 12 25  1  0  0  0  0
 12 26  1  0  0  0  0
 12 27  1  0  0  0  0
 15 28  1  0  0  0  0
M  END
> <fragments>
x0194

> <Hybrid2>
-1.643927

$$$$
Z1367324110
  -OEChem-03282016173D

 29 30  0     1  0  0  0  0  0999 V2000
   13.6221    2.0036   22.6487 C   0  0  0  0  0  0  0  0  0  0  0  0
   12.6383    2.9145   23.0163 C   0  0  0  0  0  0  0  0  0  0  0  0
   11.1449    1.0768   23.4935 C   0  0  0  0  0  0  0  0  0  0  0  0
   13.3698    0.6212   22.6926 C   0  0  0  0  0  0  0  0  0  0  0  0
   12.1201    0.1245   23.1373 C   0  0  0  0  0  0  0  0  0  0  0  0
   11.3988    2.4510   23.4354 C   0  0  0  0  0  0  0  0  0  0  0  0
   14.4818   -0.3199   22.2968 C   0  0  0  0  0  0  0  0  0  0  0  0
   13.9371   -1.6947   21.9364 C   0  0  0  0  0  0  0  0  0  0  0  0
   12.9952   -2.1764   23.0296 C   0  0  0  0  0  0  0  0  0  0  0  0
   10.6280   -1.7750   23.7250 C   0  0  0  0  0  0  0  0  0  0  0  0
   11.8763   -1.2491   23.1915 N   0  0  3  0  0  0  0  0  0  0  0  0
   10.9645    5.0718   23.6526 N   0  0  0  0  0  0  0  0  0  0  0  0
    9.0624    3.4847   22.9395 O   0  0  0  0  0  0  0  0  0  0  0  0
    9.8883    3.4282   25.3190 O   0  0  0  0  0  0  0  0  0  0  0  0
   10.1549    3.5872   23.8965 S   0  0  0  0  0  0  0  0  0  0  0  0
   14.5917    2.3727   22.3234 H   0  0  0  0  0  0  0  0  0  0  0  0
   12.8492    3.9791   22.9722 H   0  0  0  0  0  0  0  0  0  0  0  0
   10.1612    0.7584   23.8324 H   0  0  0  0  0  0  0  0  0  0  0  0
   15.0316    0.0811   21.4373 H   0  0  0  0  0  0  0  0  0  0  0  0
   15.1827   -0.4023   23.1365 H   0  0  0  0  0  0  0  0  0  0  0  0
   13.4039   -1.6555   20.9774 H   0  0  0  0  0  0  0  0  0  0  0  0
   14.7658   -2.4010   21.8130 H   0  0  0  0  0  0  0  0  0  0  0  0
   12.6285   -3.1736   22.7597 H   0  0  0  0  0  0  0  0  0  0  0  0
   13.5289   -2.2759   23.9829 H   0  0  0  0  0  0  0  0  0  0  0  0
   10.6416   -2.8738   23.6758 H   0  0  0  0  0  0  0  0  0  0  0  0
   10.5136   -1.4564   24.7716 H   0  0  0  0  0  0  0  0  0  0  0  0
    9.7852   -1.3918   23.1309 H   0  0  0  0  0  0  0  0  0  0  0  0
   10.6759    5.6528   22.8559 H   0  0  0  0  0  0  0  0  0  0  0  0
   11.2409    5.6118   24.4816 H   0  0  0  0  0  0  0  0  0  0  0  0
  1  2  2  0  0  0  0
  1  4  1  0  0  0  0
  2  6  1  0  0  0  0
  3  5  1  0  0  0  0
  3  6  2  0  0  0  0
  4  5  2  0  0  0  0
  4  7  1  0  0  0  0
  5 11  1  0  0  0  0
  6 15  1  0  0  0  0
  7  8  1  0  0  0  0
  8  9  1  0  0  0  0
  9 11  1  0  0  0  0
 10 11  1  0  0  0  0
 12 15  1  0  0  0  0
 13 15  2  0  0  0  0
 14 15  2  0  0  0  0
  1 16  1  0  0  0  0
  2 17  1  0  0  0  0
  3 18  1  0  0  0  0
  7 19  1  0  0  0  0
  7 20  1  0  0  0  0
  8 21  1  0  0  0  0
  8 22  1  0  0  0  0
  9 23  1  0  0  0  0
  9 24  1  0  0  0  0
 10 25  1  0  0  0  0
 10 26  1  0  0  0  0
 10 27  1  0  0  0  0
 12 28  1  0  0  0  0
 12 29  1  0  0  0  0
M  END
> <fragments>
x0195

> <Hybrid2>
-7.785241

$$$$
Z219104216
  -OEChem-03282016173D

 20 20  0     0  0  0  0  0  0999 V2000
   13.1959   -1.1285   21.9610 C   0  0  0  0  0  0  0  0  0  0  0  0
   12.3517    0.3676   23.7102 C   0  0  0  0  0  0  0  0  0  0  0  0
   11.4231    0.6438   24.7075 C   0  0  0  0  0  0  0  0  0  0  0  0
   11.2268   -1.6882   23.3044 C   0  0  0  0  0  0  0  0  0  0  0  0
   12.2587   -0.8184   22.9906 C   0  0  0  0  0  0  0  0  0  0  0  0
   10.4285   -0.2913   24.9443 C   0  0  0  0  0  0  0  0  0  0  0  0
    7.5881   -0.3096   27.4050 C   0  0  0  0  0  0  0  0  0  0  0  0
    8.4200   -0.8752   26.3047 C   0  0  0  0  0  0  0  0  0  0  0  0
   13.9585   -1.3808   21.1234 N   0  0  0  0  0  0  0  0  0  0  0  0
   10.3060   -1.4543   24.2662 N   0  0  0  0  0  0  0  0  0  0  0  0
    9.4902    0.0045   25.9643 N   0  0  0  0  0  0  0  0  0  0  0  0
   13.1418    1.0855   23.5049 H   0  0  0  0  0  0  0  0  0  0  0  0
   11.4875    1.5675   25.2733 H   0  0  0  0  0  0  0  0  0  0  0  0
   11.0991   -2.6302   22.7786 H   0  0  0  0  0  0  0  0  0  0  0  0
    7.1667    0.6557   27.0878 H   0  0  0  0  0  0  0  0  0  0  0  0
    6.7705   -1.0064   27.6417 H   0  0  0  0  0  0  0  0  0  0  0  0
    8.2132   -0.1609   28.2979 H   0  0  0  0  0  0  0  0  0  0  0  0
    8.8374   -1.8396   26.6296 H   0  0  0  0  0  0  0  0  0  0  0  0
    7.7866   -1.0296   25.4187 H   0  0  0  0  0  0  0  0  0  0  0  0
    9.6101    0.8727   26.4448 H   0  0  0  0  0  0  0  0  0  0  0  0
  1  5  1  0  0  0  0
  1  9  3  0  0  0  0
  2  3  2  0  0  0  0
  2  5  1  0  0  0  0
  3  6  1  0  0  0  0
  4  5  2  0  0  0  0
  4 10  1  0  0  0  0
  6 10  2  0  0  0  0
  6 11  1  0  0  0  0
  7  8  1  0  0  0  0
  8 11  1  0  0  0  0
  2 12  1  0  0  0  0
  3 13  1  0  0  0  0
  4 14  1  0  0  0  0
  7 15  1  0  0  0  0
  7 16  1  0  0  0  0
  7 17  1  0  0  0  0
  8 18  1  0  0  0  0
  8 19  1  0  0  0  0
 11 20  1  0  0  0  0
M  END
> <fragments>
x0305

> <Hybrid2>
-6.523846

$$$$
Z30932204
  -OEChem-03282016173D

 27 27  0     0  0  0  0  0  0999 V2000
    4.5631  -25.7995    8.7515 C   0  0  0  0  0  0  0  0  0  0  0  0
    3.7230  -25.3474   10.9711 C   0  0  0  0  0  0  0  0  0  0  0  0
    3.8546  -24.7032    8.2599 C   0  0  0  0  0  0  0  0  0  0  0  0
    3.0145  -24.2510   10.4796 C   0  0  0  0  0  0  0  0  0  0  0  0
    4.4973  -26.1217   10.1071 C   0  0  0  0  0  0  0  0  0  0  0  0
    3.0803  -23.9289    9.1240 C   0  0  0  0  0  0  0  0  0  0  0  0
    5.1434  -29.7781   10.6614 C   0  0  0  0  0  0  0  0  0  0  0  0
    4.3337  -30.9431   10.1974 C   0  0  0  0  0  0  0  0  0  0  0  0
    5.2541  -27.2943   10.6328 C   0  0  0  0  0  0  0  0  0  0  0  0
    0.7075  -23.2859    8.0939 N   0  0  0  0  0  0  0  0  0  0  0  0
    4.6315  -28.5473   10.2884 N   0  0  0  0  0  0  0  0  0  0  0  0
    6.1623  -29.9721   11.3141 O   0  0  0  0  0  0  0  0  0  0  0  0
    1.9711  -21.6245    9.6067 O   0  0  0  0  0  0  0  0  0  0  0  0
    2.8453  -22.0935    7.2908 O   0  0  0  0  0  0  0  0  0  0  0  0
    2.1952  -22.5553    8.5094 S   0  0  0  0  0  0  0  0  0  0  0  0
    5.1634  -26.3972    8.0707 H   0  0  0  0  0  0  0  0  0  0  0  0
    3.6655  -25.5911   12.0287 H   0  0  0  0  0  0  0  0  0  0  0  0
    3.9123  -24.4613    7.2020 H   0  0  0  0  0  0  0  0  0  0  0  0
    2.4140  -23.6548   11.1615 H   0  0  0  0  0  0  0  0  0  0  0  0
    4.6489  -31.3062    9.2059 H   0  0  0  0  0  0  0  0  0  0  0  0
    4.4249  -31.8124   10.8682 H   0  0  0  0  0  0  0  0  0  0  0  0
    3.2511  -30.7589   10.1078 H   0  0  0  0  0  0  0  0  0  0  0  0
    6.2787  -27.3148   10.2356 H   0  0  0  0  0  0  0  0  0  0  0  0
    5.3392  -27.2610   11.7277 H   0  0  0  0  0  0  0  0  0  0  0  0
   -0.1114  -23.0778    8.6783 H   0  0  0  0  0  0  0  0  0  0  0  0
    0.4879  -23.3991    7.0968 H   0  0  0  0  0  0  0  0  0  0  0  0
    3.7723  -28.5263    9.7436 H   0  0  0  0  0  0  0  0  0  0  0  0
  1  3  2  0  0  0  0
  1  5  1  0  0  0  0
  2  4  1  0  0  0  0
  2  5  2  0  0  0  0
  3  6  1  0  0  0  0
  4  6  2  0  0  0  0
  5  9  1  0  0  0  0
  6 15  1  0  0  0  0
  7  8  1  0  0  0  0
  7 11  1  0  0  0  0
  7 12  2  0  0  0  0
  9 11  1  0  0  0  0
 10 15  1  0  0  0  0
 13 15  2  0  0  0  0
 14 15  2  0  0  0  0
  1 16  1  0  0  0  0
  2 17  1  0  0  0  0
  3 18  1  0  0  0  0
  4 19  1  0  0  0  0
  8 20  1  0  0  0  0
  8 21  1  0  0  0  0
  8 22  1  0  0  0  0
  9 23  1  0  0  0  0
  9 24  1  0  0  0  0
 10 25  1  0  0  0  0
 10 26  1  0  0  0  0
 11 27  1  0  0  0  0
M  END
> <fragments>
x0336

> <Hybrid2>
-1.543823

$$$$
Z2737076969
  -OEChem-03282016173D

 28 29  0     0  0  0  0  0  0999 V2000
   12.5193  -23.9536    2.0758 C   0  0  0  0  0  0  0  0  0  0  0  0
    6.1290  -19.4689   -0.6815 C   0  0  0  0  0  0  0  0  0  0  0  0
   11.6234  -23.7344    1.0295 C   0  0  0  0  0  0  0  0  0  0  0  0
   12.2653  -24.9545    3.0136 C   0  0  0  0  0  0  0  0  0  0  0  0
    7.3373  -20.1950   -0.8079 C   0  0  0  0  0  0  0  0  0  0  0  0
   10.2191  -25.5170    1.8587 C   0  0  0  0  0  0  0  0  0  0  0  0
    5.1158  -20.3948   -0.7712 C   0  0  0  0  0  0  0  0  0  0  0  0
   10.4732  -24.5161    0.9210 C   0  0  0  0  0  0  0  0  0  0  0  0
   11.1151  -25.7362    2.9050 C   0  0  0  0  0  0  0  0  0  0  0  0
    6.9763  -21.5129   -0.9656 C   0  0  0  0  0  0  0  0  0  0  0  0
    9.5161  -24.2809   -0.1982 C   0  0  0  0  0  0  0  0  0  0  0  0
    7.7629  -22.7772   -1.1490 C   0  0  0  0  0  0  0  0  0  0  0  0
    8.6832  -23.0599   -0.0169 N   0  3  0  0  0  0  0  0  0  0  0  0
    5.6239  -21.6432   -0.9443 O   0  0  0  0  0  0  0  0  0  0  0  0
   10.8708  -26.6971    3.8056 F   0  0  0  0  0  0  0  0  0  0  0  0
   13.4152  -23.3452    2.1602 H   0  0  0  0  0  0  0  0  0  0  0  0
    6.0112  -18.4039   -0.5429 H   0  0  0  0  0  0  0  0  0  0  0  0
   11.8296  -22.9521    0.3037 H   0  0  0  0  0  0  0  0  0  0  0  0
   12.9626  -25.1246    3.8283 H   0  0  0  0  0  0  0  0  0  0  0  0
    8.3443  -19.8033   -0.7867 H   0  0  0  0  0  0  0  0  0  0  0  0
    9.3262  -26.1315    1.7821 H   0  0  0  0  0  0  0  0  0  0  0  0
    4.0383  -20.3297   -0.7328 H   0  0  0  0  0  0  0  0  0  0  0  0
   10.0371  -24.1584   -1.1576 H   0  0  0  0  0  0  0  0  0  0  0  0
    8.8141  -25.1182   -0.3129 H   0  0  0  0  0  0  0  0  0  0  0  0
    7.1013  -23.6453   -1.2409 H   0  0  0  0  0  0  0  0  0  0  0  0
    8.3805  -22.7313   -2.0525 H   0  0  0  0  0  0  0  0  0  0  0  0
    8.1360  -23.1532    0.8489 H   0  0  0  0  0  0  0  0  0  0  0  0
    9.3018  -22.2508    0.1268 H   0  0  0  0  0  0  0  0  0  0  0  0
  1  3  1  0  0  0  0
  1  4  2  0  0  0  0
  2  5  1  0  0  0  0
  2  7  2  0  0  0  0
  3  8  2  0  0  0  0
  4  9  1  0  0  0  0
  5 10  2  0  0  0  0
  6  8  1  0  0  0  0
  6  9  2  0  0  0  0
  7 14  1  0  0  0  0
  8 11  1  0  0  0  0
  9 15  1  0  0  0  0
 10 12  1  0  0  0  0
 10 14  1  0  0  0  0
 11 13  1  0  0  0  0
 12 13  1  0  0  0  0
  1 16  1  0  0  0  0
  2 17  1  0  0  0  0
  3 18  1  0  0  0  0
  4 19  1  0  0  0  0
  5 20  1  0  0  0  0
  6 21  1  0  0  0  0
  7 22  1  0  0  0  0
 11 23  1  0  0  0  0
 11 24  1  0  0  0  0
 12 25  1  0  0  0  0
 12 26  1  0  0  0  0
 13 27  1  0  0  0  0
 13 28  1  0  0  0  0
M  CHG  1  13   1
M  END
> <fragments>
x0350

> <Hybrid2>
-4.714625

$$$$
Z2856434836
  -OEChem-03282016173D

 39 40  0     0  0  0  0  0  0999 V2000
   11.7439   -1.2758   22.6138 C   0  0  0  0  0  0  0  0  0  0  0  0
   13.7517   -1.9879   23.7534 C   0  0  0  0  0  0  0  0  0  0  0  0
   10.9696   -1.8137   23.6418 C   0  0  0  0  0  0  0  0  0  0  0  0
   12.9774   -2.5258   24.7814 C   0  0  0  0  0  0  0  0  0  0  0  0
   13.1349   -1.3629   22.6696 C   0  0  0  0  0  0  0  0  0  0  0  0
   11.5864   -2.4387   24.7256 C   0  0  0  0  0  0  0  0  0  0  0  0
    9.8185   -0.9062   26.3925 C   0  0  0  0  0  0  0  0  0  0  0  0
    7.3602   -0.7594   26.6302 C   0  0  0  0  0  0  0  0  0  0  0  0
    8.6858    1.2779   27.0364 C   0  0  0  0  0  0  0  0  0  0  0  0
    6.5957   -0.5456   27.9285 C   0  0  0  0  0  0  0  0  0  0  0  0
    7.9395    1.5236   28.3407 C   0  0  0  0  0  0  0  0  0  0  0  0
   13.9629   -0.7873   21.5710 C   0  0  0  0  0  0  0  0  0  0  0  0
    5.7262    1.2263   29.4580 C   0  0  0  0  0  0  0  0  0  0  0  0
    9.5837   -2.3443   26.0047 C   0  0  0  0  0  0  0  0  0  0  0  0
    8.6880   -0.1487   26.6953 N   0  0  0  0  0  0  0  0  0  0  0  0
    6.5505    0.9345   28.2358 N   0  3  0  0  0  0  0  0  0  0  0  0
   10.9723   -0.4705   26.4224 O   0  0  0  0  0  0  0  0  0  0  0  0
   10.8232   -2.9676   25.7391 O   0  0  0  0  0  0  0  0  0  0  0  0
   11.2550   -0.7907   21.7732 H   0  0  0  0  0  0  0  0  0  0  0  0
   14.8350   -2.0605   23.8052 H   0  0  0  0  0  0  0  0  0  0  0  0
    9.8863   -1.7425   23.5927 H   0  0  0  0  0  0  0  0  0  0  0  0
   13.4638   -3.0110   25.6230 H   0  0  0  0  0  0  0  0  0  0  0  0
    7.4357   -1.8315   26.4229 H   0  0  0  0  0  0  0  0  0  0  0  0
    6.8285   -0.3024   25.7868 H   0  0  0  0  0  0  0  0  0  0  0  0
    8.2008    1.8094   26.2086 H   0  0  0  0  0  0  0  0  0  0  0  0
    9.6977    1.6775   27.1230 H   0  0  0  0  0  0  0  0  0  0  0  0
    5.5613   -0.8901   27.8292 H   0  0  0  0  0  0  0  0  0  0  0  0
    7.0739   -1.0510   28.7751 H   0  0  0  0  0  0  0  0  0  0  0  0
    8.4405    1.0545   29.1949 H   0  0  0  0  0  0  0  0  0  0  0  0
    7.8254    2.5970   28.5237 H   0  0  0  0  0  0  0  0  0  0  0  0
   14.2113    0.2589   21.7877 H   0  0  0  0  0  0  0  0  0  0  0  0
   14.8982   -1.3472   21.4414 H   0  0  0  0  0  0  0  0  0  0  0  0
   13.4334   -0.8272   20.6100 H   0  0  0  0  0  0  0  0  0  0  0  0
    6.2085    0.7426   30.3093 H   0  0  0  0  0  0  0  0  0  0  0  0
    5.6938    2.3097   29.5884 H   0  0  0  0  0  0  0  0  0  0  0  0
    4.7263    0.8210   29.2911 H   0  0  0  0  0  0  0  0  0  0  0  0
    8.9563   -2.3864   25.1190 H   0  0  0  0  0  0  0  0  0  0  0  0
    9.0937   -2.8573   26.8269 H   0  0  0  0  0  0  0  0  0  0  0  0
    6.0791    1.3986   27.4471 H   0  0  0  0  0  0  0  0  0  0  0  0
  1  3  2  0  0  0  0
  1  5  1  0  0  0  0
  2  4  1  0  0  0  0
  2  5  2  0  0  0  0
  3  6  1  0  0  0  0
  4  6  2  0  0  0  0
  5 12  1  0  0  0  0
  6 18  1  0  0  0  0
  7 14  1  0  0  0  0
  7 15  1  0  0  0  0
  7 17  2  0  0  0  0
  8 10  1  0  0  0  0
  8 15  1  0  0  0  0
  9 11  1  0  0  0  0
  9 15  1  0  0  0  0
 10 16  1  0  0  0  0
 11 16  1  0  0  0  0
 13 16  1  0  0  0  0
 14 18  1  0  0  0  0
  1 19  1  0  0  0  0
  2 20  1  0  0  0  0
  3 21  1  0  0  0  0
  4 22  1  0  0  0  0
  8 23  1  0  0  0  0
  8 24  1  0  0  0  0
  9 25  1  0  0  0  0
  9 26  1  0  0  0  0
 10 27  1  0  0  0  0
 10 28  1  0  0  0  0
 11 29  1  0  0  0  0
 11 30  1  0  0  0  0
 12 31  1  0  0  0  0
 12 32  1  0  0  0  0
 12 33  1  0  0  0  0
 13 34  1  0  0  0  0
 13 35  1  0  0  0  0
 13 36  1  0  0  0  0
 14 37  1  0  0  0  0
 14 38  1  0  0  0  0
 16 39  1  0  0  0  0
M  CHG  1  16   1
M  END
> <fragments>
x0354

> <Hybrid2>
-4.154733

$$$$
Z31432226
  -OEChem-03282016173D

 35 37  0     0  0  0  0  0  0999 V2000
   -2.2646   28.1046  -11.0663 C   0  0  0  0  0  0  0  0  0  0  0  0
   -3.2824   27.1550  -11.1837 C   0  0  0  0  0  0  0  0  0  0  0  0
   -2.0917   27.6861   -8.6740 C   0  0  0  0  0  0  0  0  0  0  0  0
   -1.6725   28.3685   -9.8186 C   0  0  0  0  0  0  0  0  0  0  0  0
   -3.6778   26.4952  -10.0383 C   0  0  0  0  0  0  0  0  0  0  0  0
   -3.0983   26.7535   -8.8171 C   0  0  0  0  0  0  0  0  0  0  0  0
   -0.6109   29.3656   -9.7196 C   0  0  0  0  0  0  0  0  0  0  0  0
   -1.7460   31.4578   -6.8278 C   0  0  0  0  0  0  0  0  0  0  0  0
   -1.0791   32.8016   -7.1125 C   0  0  0  0  0  0  0  0  0  0  0  0
   -2.8367   31.0348   -7.8123 C   0  0  0  0  0  0  0  0  0  0  0  0
   -0.5906   33.0383   -8.5427 C   0  0  0  0  0  0  0  0  0  0  0  0
   -2.4214   30.9868   -9.2840 C   0  0  0  0  0  0  0  0  0  0  0  0
   -0.0411   31.8015   -9.2583 C   0  0  0  0  0  0  0  0  0  0  0  0
   -4.6135   25.2318   -8.5516 C   0  0  0  0  0  0  0  0  0  0  0  0
   -0.9982   30.6952   -9.4580 N   0  0  0  0  0  0  0  0  0  0  0  0
    0.5589   29.0185   -9.8810 O   0  0  0  0  0  0  0  0  0  0  0  0
   -4.6471   25.5432   -9.9594 O   0  0  0  0  0  0  0  0  0  0  0  0
   -3.6324   25.9958   -7.8207 O   0  0  0  0  0  0  0  0  0  0  0  0
   -1.9337   28.6394  -11.9533 H   0  0  0  0  0  0  0  0  0  0  0  0
   -3.7420   26.9483  -12.1435 H   0  0  0  0  0  0  0  0  0  0  0  0
   -1.6446   27.8785   -7.7041 H   0  0  0  0  0  0  0  0  0  0  0  0
   -0.9705   30.6778   -6.8210 H   0  0  0  0  0  0  0  0  0  0  0  0
   -2.1662   31.4701   -5.8108 H   0  0  0  0  0  0  0  0  0  0  0  0
   -1.8252   33.5932   -6.8773 H   0  0  0  0  0  0  0  0  0  0  0  0
   -0.2514   32.9790   -6.3878 H   0  0  0  0  0  0  0  0  0  0  0  0
   -3.2536   30.0582   -7.5089 H   0  0  0  0  0  0  0  0  0  0  0  0
   -3.6730   31.7483   -7.7131 H   0  0  0  0  0  0  0  0  0  0  0  0
   -1.3806   33.5141   -9.1480 H   0  0  0  0  0  0  0  0  0  0  0  0
    0.2252   33.7805   -8.5077 H   0  0  0  0  0  0  0  0  0  0  0  0
   -3.0013   30.1898   -9.7725 H   0  0  0  0  0  0  0  0  0  0  0  0
   -2.6762   31.9138   -9.8177 H   0  0  0  0  0  0  0  0  0  0  0  0
    0.3215   32.0870  -10.2493 H   0  0  0  0  0  0  0  0  0  0  0  0
    0.8163   31.4270   -8.6948 H   0  0  0  0  0  0  0  0  0  0  0  0
   -5.6031   25.4307   -8.1242 H   0  0  0  0  0  0  0  0  0  0  0  0
   -4.3868   24.1659   -8.4336 H   0  0  0  0  0  0  0  0  0  0  0  0
  1  2  2  0  0  0  0
  1  4  1  0  0  0  0
  2  5  1  0  0  0  0
  3  4  2  0  0  0  0
  3  6  1  0  0  0  0
  4  7  1  0  0  0  0
  5  6  2  0  0  0  0
  5 17  1  0  0  0  0
  6 18  1  0  0  0  0
  7 15  1  0  0  0  0
  7 16  2  0  0  0  0
  8  9  1  0  0  0  0
  8 10  1  0  0  0  0
  9 11  1  0  0  0  0
 10 12  1  0  0  0  0
 11 13  1  0  0  0  0
 12 15  1  0  0  0  0
 13 15  1  0  0  0  0
 14 17  1  0  0  0  0
 14 18  1  0  0  0  0
  1 19  1  0  0  0  0
  2 20  1  0  0  0  0
  3 21  1  0  0  0  0
  8 22  1  0  0  0  0
  8 23  1  0  0  0  0
  9 24  1  0  0  0  0
  9 25  1  0  0  0  0
 10 26  1  0  0  0  0
 10 27  1  0  0  0  0
 11 28  1  0  0  0  0
 11 29  1  0  0  0  0
 12 30  1  0  0  0  0
 12 31  1  0  0  0  0
 13 32  1  0  0  0  0
 13 33  1  0  0  0  0
 14 34  1  0  0  0  0
 14 35  1  0  0  0  0
M  END
> <fragments>
x0376

> <Hybrid2>
0.344451

$$$$
Z2856434899
  -OEChem-03282016173D

 29 30  0     0  0  0  0  0  0999 V2000
   11.4738   -0.9225   23.8478 C   0  0  0  0  0  0  0  0  0  0  0  0
   12.5953   -0.4111   23.2327 C   0  0  0  0  0  0  0  0  0  0  0  0
   11.8032   -2.4702   22.1453 C   0  0  0  0  0  0  0  0  0  0  0  0
   11.0149   -2.1154   23.2180 C   0  0  0  0  0  0  0  0  0  0  0  0
    7.9810   -5.0538   25.0796 C   0  0  0  0  0  0  0  0  0  0  0  0
    9.8532   -4.2068   26.5483 C   0  0  0  0  0  0  0  0  0  0  0  0
    8.9757   -5.2570   23.9418 C   0  0  0  0  0  0  0  0  0  0  0  0
   10.8367   -4.4169   25.4025 C   0  0  0  0  0  0  0  0  0  0  0  0
    8.6462   -5.1393   26.4519 C   0  0  0  0  0  0  0  0  0  0  0  0
    9.8136   -2.8918   23.6709 C   0  0  0  0  0  0  0  0  0  0  0  0
   10.1408   -4.3061   24.0678 N   0  3  0  0  0  0  0  0  0  0  0  0
    9.0597   -6.4863   26.6747 O   0  0  0  0  0  0  0  0  0  0  0  0
   13.0905   -1.3676   21.9015 S   0  0  0  0  0  0  0  0  0  0  0  0
   11.0076   -0.4593   24.7082 H   0  0  0  0  0  0  0  0  0  0  0  0
   13.1470    0.4787   23.5009 H   0  0  0  0  0  0  0  0  0  0  0  0
   11.6877   -3.3224   21.4900 H   0  0  0  0  0  0  0  0  0  0  0  0
    7.4883   -4.0781   24.9709 H   0  0  0  0  0  0  0  0  0  0  0  0
    7.1724   -5.7958   25.0090 H   0  0  0  0  0  0  0  0  0  0  0  0
   10.3615   -4.3543   27.5120 H   0  0  0  0  0  0  0  0  0  0  0  0
    9.5126   -3.1630   26.5571 H   0  0  0  0  0  0  0  0  0  0  0  0
    9.3808   -6.2804   23.9644 H   0  0  0  0  0  0  0  0  0  0  0  0
    8.5085   -5.0838   22.9588 H   0  0  0  0  0  0  0  0  0  0  0  0
   11.6459   -3.6694   25.4197 H   0  0  0  0  0  0  0  0  0  0  0  0
   11.2831   -5.4216   25.4601 H   0  0  0  0  0  0  0  0  0  0  0  0
    7.9137   -4.8850   27.2295 H   0  0  0  0  0  0  0  0  0  0  0  0
    9.3434   -2.4216   24.5413 H   0  0  0  0  0  0  0  0  0  0  0  0
    9.0607   -2.9538   22.8777 H   0  0  0  0  0  0  0  0  0  0  0  0
   10.8516   -4.6350   23.3508 H   0  0  0  0  0  0  0  0  0  0  0  0
    8.2589   -7.0331   26.6376 H   0  0  0  0  0  0  0  0  0  0  0  0
  1  2  2  0  0  0  0
  1  4  1  0  0  0  0
  2 13  1  0  0  0  0
  3  4  2  0  0  0  0
  3 13  1  0  0  0  0
  4 10  1  0  0  0  0
  5  7  1  0  0  0  0
  5  9  1  0  0  0  0
  6  8  1  0  0  0  0
  6  9  1  0  0  0  0
  7 11  1  0  0  0  0
  8 11  1  0  0  0  0
  9 12  1  0  0  0  0
 10 11  1  0  0  0  0
  1 14  1  0  0  0  0
  2 15  1  0  0  0  0
  3 16  1  0  0  0  0
  5 17  1  0  0  0  0
  5 18  1  0  0  0  0
  6 19  1  0  0  0  0
  6 20  1  0  0  0  0
  7 21  1  0  0  0  0
  7 22  1  0  0  0  0
  8 23  1  0  0  0  0
  8 24  1  0  0  0  0
  9 25  1  0  0  0  0
 10 26  1  0  0  0  0
 10 27  1  0  0  0  0
 11 28  1  0  0  0  0
 12 29  1  0  0  0  0
M  CHG  1  11   1
M  END
> <fragments>
x0387

> <Hybrid2>
-6.468851

$$$$
Z1587220559
  -OEChem-03282016173D

 31 33  0     0  0  0  0  0  0999 V2000
   20.8984   19.5162    5.2497 C   0  0  0  0  0  0  0  0  0  0  0  0
   26.1753   10.4245    5.6208 C   0  0  0  0  0  0  0  0  0  0  0  0
   25.5103    9.9536    4.4863 C   0  0  0  0  0  0  0  0  0  0  0  0
   20.9357   19.6842    3.8655 C   0  0  0  0  0  0  0  0  0  0  0  0
   21.4932   18.3973    5.8328 C   0  0  0  0  0  0  0  0  0  0  0  0
   25.8781   11.6820    6.1612 C   0  0  0  0  0  0  0  0  0  0  0  0
   24.5267   10.7191    3.8514 C   0  0  0  0  0  0  0  0  0  0  0  0
   21.5676   18.7331    3.0644 C   0  0  0  0  0  0  0  0  0  0  0  0
   22.1251   17.4463    5.0317 C   0  0  0  0  0  0  0  0  0  0  0  0
   24.8926   12.4645    5.5361 C   0  0  0  0  0  0  0  0  0  0  0  0
   24.2472   11.9681    4.4070 C   0  0  0  0  0  0  0  0  0  0  0  0
   22.1623   17.6141    3.6474 C   0  0  0  0  0  0  0  0  0  0  0  0
   23.5060   13.9799    4.9526 C   0  0  0  0  0  0  0  0  0  0  0  0
   22.7595   16.2480    5.6766 C   0  0  0  0  0  0  0  0  0  0  0  0
   24.4190   13.7152    5.8601 N   0  0  0  0  0  0  0  0  0  0  0  0
   23.3659   12.9580    4.0553 N   0  0  0  0  0  0  0  0  0  0  0  0
   22.7292   15.0753    4.8022 N   0  0  0  0  0  0  0  0  0  0  0  0
   22.7747   16.6942    2.8505 O   0  0  0  0  0  0  0  0  0  0  0  0
   20.4060   20.2563    5.8741 H   0  0  0  0  0  0  0  0  0  0  0  0
   26.9337    9.8058    6.0934 H   0  0  0  0  0  0  0  0  0  0  0  0
   25.7624    8.9733    4.0892 H   0  0  0  0  0  0  0  0  0  0  0  0
   20.4718   20.5550    3.4120 H   0  0  0  0  0  0  0  0  0  0  0  0
   21.4574   18.2749    6.9121 H   0  0  0  0  0  0  0  0  0  0  0  0
   26.3987   12.0384    7.0443 H   0  0  0  0  0  0  0  0  0  0  0  0
   24.0086   10.3564    2.9710 H   0  0  0  0  0  0  0  0  0  0  0  0
   21.5933   18.8694    1.9867 H   0  0  0  0  0  0  0  0  0  0  0  0
   23.8055   16.4538    5.9287 H   0  0  0  0  0  0  0  0  0  0  0  0
   22.2463   15.9849    6.6075 H   0  0  0  0  0  0  0  0  0  0  0  0
   22.7258   12.9369    3.2727 H   0  0  0  0  0  0  0  0  0  0  0  0
   22.0529   15.1225    4.0258 H   0  0  0  0  0  0  0  0  0  0  0  0
   22.7096   16.9608    1.9201 H   0  0  0  0  0  0  0  0  0  0  0  0
  1  4  1  0  0  0  0
  1  5  2  0  0  0  0
  2  3  1  0  0  0  0
  2  6  2  0  0  0  0
  3  7  2  0  0  0  0
  4  8  2  0  0  0  0
  5  9  1  0  0  0  0
  6 10  1  0  0  0  0
  7 11  1  0  0  0  0
  8 12  1  0  0  0  0
  9 12  2  0  0  0  0
  9 14  1  0  0  0  0
 10 11  2  0  0  0  0
 10 15  1  0  0  0  0
 11 16  1  0  0  0  0
 12 18  1  0  0  0  0
 13 15  2  0  0  0  0
 13 16  1  0  0  0  0
 13 17  1  0  0  0  0
 14 17  1  0  0  0  0
  1 19  1  0  0  0  0
  2 20  1  0  0  0  0
  3 21  1  0  0  0  0
  4 22  1  0  0  0  0
  5 23  1  0  0  0  0
  6 24  1  0  0  0  0
  7 25  1  0  0  0  0
  8 26  1  0  0  0  0
 14 27  1  0  0  0  0
 14 28  1  0  0  0  0
 16 29  1  0  0  0  0
 17 30  1  0  0  0  0
 18 31  1  0  0  0  0
M  END
> <fragments>
x0390

> <Hybrid2>
-4.645006

$$$$
Z1619978933
  -OEChem-03282016173D

 27 28  0     1  0  0  0  0  0999 V2000
   11.4262    0.1226   23.0447 C   0  0  0  0  0  0  0  0  0  0  0  0
    9.6440   -1.4085   22.8291 C   0  0  0  0  0  0  0  0  0  0  0  0
    7.7511   -3.8533   26.6073 C   0  0  0  0  0  0  0  0  0  0  0  0
    8.9513   -4.1770   26.1096 C   0  0  0  0  0  0  0  0  0  0  0  0
    6.7717   -2.9994   25.8571 C   0  0  0  0  0  0  0  0  0  0  0  0
    9.3962   -3.7420   24.7520 C   0  0  0  0  0  0  0  0  0  0  0  0
    7.3821   -2.2641   24.6634 C   0  0  0  0  0  0  0  0  0  0  0  0
   12.7347    0.8060   23.0899 C   0  0  0  0  0  0  0  0  0  0  0  0
    8.7693   -2.6075   22.6090 C   0  0  0  0  0  0  0  0  0  0  0  0
   10.2653    0.6858   23.3038 N   0  0  0  0  0  0  0  0  0  0  0  0
    9.2200   -0.2126   23.1782 N   0  0  0  0  0  0  0  0  0  0  0  0
    8.2663   -3.2117   23.8885 N   0  3  1  0  0  0  0  0  0  0  0  0
    9.7779   -4.9474   26.8507 F   0  0  0  0  0  0  0  0  0  0  0  0
   11.3420   -1.5386   22.6264 S   0  0  0  0  0  0  0  0  0  0  0  0
    7.4615   -4.2186   27.5876 H   0  0  0  0  0  0  0  0  0  0  0  0
    5.9461   -3.6367   25.5185 H   0  0  0  0  0  0  0  0  0  0  0  0
    6.3440   -2.2592   26.5429 H   0  0  0  0  0  0  0  0  0  0  0  0
   10.1458   -2.9478   24.8399 H   0  0  0  0  0  0  0  0  0  0  0  0
    9.8278   -4.5877   24.2068 H   0  0  0  0  0  0  0  0  0  0  0  0
    6.5990   -1.9055   23.9871 H   0  0  0  0  0  0  0  0  0  0  0  0
    8.0048   -1.4194   24.9806 H   0  0  0  0  0  0  0  0  0  0  0  0
   13.1841    0.7359   24.0936 H   0  0  0  0  0  0  0  0  0  0  0  0
   13.4509    0.3747   22.3703 H   0  0  0  0  0  0  0  0  0  0  0  0
   12.6508    1.8757   22.8333 H   0  0  0  0  0  0  0  0  0  0  0  0
    7.8863   -2.3496   22.0145 H   0  0  0  0  0  0  0  0  0  0  0  0
    9.3094   -3.3990   22.0783 H   0  0  0  0  0  0  0  0  0  0  0  0
    7.6835   -4.0178   23.6231 H   0  0  0  0  0  0  0  0  0  0  0  0
  1  8  1  0  0  0  0
  1 10  2  0  0  0  0
  1 14  1  0  0  0  0
  2  9  1  0  0  0  0
  2 11  2  0  0  0  0
  2 14  1  0  0  0  0
  3  4  2  0  0  0  0
  3  5  1  0  0  0  0
  4  6  1  0  0  0  0
  4 13  1  0  0  0  0
  5  7  1  0  0  0  0
  6 12  1  0  0  0  0
  7 12  1  0  0  0  0
  9 12  1  0  0  0  0
 10 11  1  0  0  0  0
  3 15  1  0  0  0  0
  5 16  1  0  0  0  0
  5 17  1  0  0  0  0
  6 18  1  0  0  0  0
  6 19  1  0  0  0  0
  7 20  1  0  0  0  0
  7 21  1  0  0  0  0
  8 22  1  0  0  0  0
  8 23  1  0  0  0  0
  8 24  1  0  0  0  0
  9 25  1  0  0  0  0
  9 26  1  0  0  0  0
 12 27  1  0  0  0  0
M  CHG  1  12   1
M  END
> <fragments>
x0395

> <Hybrid2>
-5.711845

$$$$
Z369936976
  -OEChem-03282016173D

 30 31  0     0  0  0  0  0  0999 V2000
    5.5406   -0.2649   19.2404 C   0  0  0  0  0  0  0  0  0  0  0  0
    6.5201   -0.6600   18.3129 C   0  0  0  0  0  0  0  0  0  0  0  0
    5.0583    0.9088   18.7247 C   0  0  0  0  0  0  0  0  0  0  0  0
    6.8732   -3.2367   20.4062 C   0  0  0  0  0  0  0  0  0  0  0  0
    6.6721   -6.4209   21.5795 C   0  0  0  0  0  0  0  0  0  0  0  0
    7.6412   -6.1957   22.7016 C   0  0  0  0  0  0  0  0  0  0  0  0
    6.8809   -5.0339   22.1229 C   0  0  0  0  0  0  0  0  0  0  0  0
    4.0329    1.8648   19.1601 C   0  0  0  0  0  0  0  0  0  0  0  0
    8.8422   -1.6881   20.3496 C   0  0  0  0  0  0  0  0  0  0  0  0
    7.3897   -1.8830   18.3578 C   0  0  0  0  0  0  0  0  0  0  0  0
    6.6363    0.2027   17.2994 N   0  0  0  0  0  0  0  0  0  0  0  0
    7.5472   -4.0156   21.3428 N   0  0  0  0  0  0  0  0  0  0  0  0
    7.6754   -2.3006   19.7281 N   0  0  0  0  0  0  0  0  0  0  0  0
    5.6654   -3.3723   20.1885 O   0  0  0  0  0  0  0  0  0  0  0  0
    5.7044    1.1985   17.5663 O   0  0  0  0  0  0  0  0  0  0  0  0
    5.2308   -0.7590   20.1495 H   0  0  0  0  0  0  0  0  0  0  0  0
    7.0783   -6.6603   20.6044 H   0  0  0  0  0  0  0  0  0  0  0  0
    5.7380   -6.9177   21.8111 H   0  0  0  0  0  0  0  0  0  0  0  0
    7.3597   -6.5408   23.6888 H   0  0  0  0  0  0  0  0  0  0  0  0
    8.6976   -6.2839   22.4793 H   0  0  0  0  0  0  0  0  0  0  0  0
    6.0816   -4.6244   22.7312 H   0  0  0  0  0  0  0  0  0  0  0  0
    4.4612    2.6523   19.8065 H   0  0  0  0  0  0  0  0  0  0  0  0
    3.5395    2.3711   18.3089 H   0  0  0  0  0  0  0  0  0  0  0  0
    3.2183    1.3790   19.7302 H   0  0  0  0  0  0  0  0  0  0  0  0
    9.7313   -2.3034   20.1477 H   0  0  0  0  0  0  0  0  0  0  0  0
    8.9919   -0.6804   19.9348 H   0  0  0  0  0  0  0  0  0  0  0  0
    8.6842   -1.6176   21.4360 H   0  0  0  0  0  0  0  0  0  0  0  0
    6.9051   -2.7205   17.8441 H   0  0  0  0  0  0  0  0  0  0  0  0
    8.3464   -1.7036   17.8561 H   0  0  0  0  0  0  0  0  0  0  0  0
    8.5389   -3.8634   21.4825 H   0  0  0  0  0  0  0  0  0  0  0  0
  1  2  1  0  0  0  0
  1  3  2  0  0  0  0
  2 10  1  0  0  0  0
  2 11  2  0  0  0  0
  3  8  1  0  0  0  0
  3 15  1  0  0  0  0
  4 12  1  0  0  0  0
  4 13  1  0  0  0  0
  4 14  2  0  0  0  0
  5  6  1  0  0  0  0
  5  7  1  0  0  0  0
  6  7  1  0  0  0  0
  7 12  1  0  0  0  0
  9 13  1  0  0  0  0
 10 13  1  0  0  0  0
 11 15  1  0  0  0  0
  1 16  1  0  0  0  0
  5 17  1  0  0  0  0
  5 18  1  0  0  0  0
  6 19  1  0  0  0  0
  6 20  1  0  0  0  0
  7 21  1  0  0  0  0
  8 22  1  0  0  0  0
  8 23  1  0  0  0  0
  8 24  1  0  0  0  0
  9 25  1  0  0  0  0
  9 26  1  0  0  0  0
  9 27  1  0  0  0  0
 10 28  1  0  0  0  0
 10 29  1  0  0  0  0
 12 30  1  0  0  0  0
M  END
> <fragments>
x0397

> <Hybrid2>
-7.605450

$$$$
Z2856434865
  -OEChem-03282016173D

 33 34  0     0  0  0  0  0  0999 V2000
   22.3085   -7.2364    5.8922 C   0  0  0  0  0  0  0  0  0  0  0  0
   22.8884   -7.4337    4.6391 C   0  0  0  0  0  0  0  0  0  0  0  0
   22.4659   -8.1959    6.8924 C   0  0  0  0  0  0  0  0  0  0  0  0
   23.6255   -8.5905    4.3860 C   0  0  0  0  0  0  0  0  0  0  0  0
   23.2030   -9.3527    6.6394 C   0  0  0  0  0  0  0  0  0  0  0  0
   23.7828   -9.5500    5.3862 C   0  0  0  0  0  0  0  0  0  0  0  0
   28.1292  -10.3752    7.3052 C   0  0  0  0  0  0  0  0  0  0  0  0
   28.0858  -12.8137    6.8220 C   0  0  0  0  0  0  0  0  0  0  0  0
   28.0190  -10.7305    8.7782 C   0  0  0  0  0  0  0  0  0  0  0  0
   27.9784  -13.0431    8.3200 C   0  0  0  0  0  0  0  0  0  0  0  0
   27.4856  -11.1800    5.0287 C   0  0  0  0  0  0  0  0  0  0  0  0
   26.3244  -10.2726    4.6571 C   0  0  0  0  0  0  0  0  0  0  0  0
   27.4703  -11.4717    6.5018 N   0  3  0  0  0  0  0  0  0  0  0  0
   28.6326  -11.9943    9.0359 O   0  0  0  0  0  0  0  0  0  0  0  0
   24.7155  -11.0148    5.0654 S   0  0  0  0  0  0  0  0  0  0  0  0
   21.7346   -6.3354    6.0887 H   0  0  0  0  0  0  0  0  0  0  0  0
   22.7657   -6.6869    3.8600 H   0  0  0  0  0  0  0  0  0  0  0  0
   22.0142   -8.0415    7.8679 H   0  0  0  0  0  0  0  0  0  0  0  0
   24.0697   -8.7266    3.4030 H   0  0  0  0  0  0  0  0  0  0  0  0
   23.3143  -10.0893    7.4313 H   0  0  0  0  0  0  0  0  0  0  0  0
   27.6118   -9.4376    7.0807 H   0  0  0  0  0  0  0  0  0  0  0  0
   29.1739  -10.3207    6.9801 H   0  0  0  0  0  0  0  0  0  0  0  0
   29.1300  -12.7751    6.4930 H   0  0  0  0  0  0  0  0  0  0  0  0
   27.5380  -13.5763    6.2603 H   0  0  0  0  0  0  0  0  0  0  0  0
   28.5438   -9.9806    9.3785 H   0  0  0  0  0  0  0  0  0  0  0  0
   26.9756  -10.7498    9.1151 H   0  0  0  0  0  0  0  0  0  0  0  0
   26.9342  -13.1185    8.6461 H   0  0  0  0  0  0  0  0  0  0  0  0
   28.4740  -13.9823    8.5852 H   0  0  0  0  0  0  0  0  0  0  0  0
   28.4601  -10.7405    4.7933 H   0  0  0  0  0  0  0  0  0  0  0  0
   27.3995  -12.1468    4.5235 H   0  0  0  0  0  0  0  0  0  0  0  0
   26.4060   -9.3301    5.2078 H   0  0  0  0  0  0  0  0  0  0  0  0
   26.3392  -10.0351    3.5883 H   0  0  0  0  0  0  0  0  0  0  0  0
   26.4811  -11.5103    6.7841 H   0  0  0  0  0  0  0  0  0  0  0  0
  1  2  1  0  0  0  0
  1  3  2  0  0  0  0
  2  4  2  0  0  0  0
  3  5  1  0  0  0  0
  4  6  1  0  0  0  0
  5  6  2  0  0  0  0
  6 15  1  0  0  0  0
  7  9  1  0  0  0  0
  7 13  1  0  0  0  0
  8 10  1  0  0  0  0
  8 13  1  0  0  0  0
  9 14  1  0  0  0  0
 10 14  1  0  0  0  0
 11 12  1  0  0  0  0
 11 13  1  0  0  0  0
 12 15  1  0  0  0  0
  1 16  1  0  0  0  0
  2 17  1  0  0  0  0
  3 18  1  0  0  0  0
  4 19  1  0  0  0  0
  5 20  1  0  0  0  0
  7 21  1  0  0  0  0
  7 22  1  0  0  0  0
  8 23  1  0  0  0  0
  8 24  1  0  0  0  0
  9 25  1  0  0  0  0
  9 26  1  0  0  0  0
 10 27  1  0  0  0  0
 10 28  1  0  0  0  0
 11 29  1  0  0  0  0
 11 30  1  0  0  0  0
 12 31  1  0  0  0  0
 12 32  1  0  0  0  0
 13 33  1  0  0  0  0
M  CHG  1  13   1
M  END
> <fragments>
x0398

> <Hybrid2>
-1.396757

$$$$
Z1401276297
  -OEChem-03282016173D

 30 32  0     1  0  0  0  0  0999 V2000
    2.4368  -24.0302    0.6390 C   0  0  0  0  0  0  0  0  0  0  0  0
    3.7274  -24.4891    0.4935 C   0  0  0  0  0  0  0  0  0  0  0  0
    3.0597  -22.0053   -0.2219 C   0  0  0  0  0  0  0  0  0  0  0  0
    4.3506  -22.4639   -0.3668 C   0  0  0  0  0  0  0  0  0  0  0  0
    7.3737  -20.6289   -1.4045 C   0  0  0  0  0  0  0  0  0  0  0  0
    6.1285  -20.0900   -3.5707 C   0  0  0  0  0  0  0  0  0  0  0  0
    6.6947  -21.9630   -1.0995 C   0  0  0  0  0  0  0  0  0  0  0  0
    5.0181  -20.2251   -1.2898 C   0  0  0  0  0  0  0  0  0  0  0  0
    5.4096  -18.8502   -4.0673 C   0  0  0  0  0  0  0  0  0  0  0  0
    6.5182  -18.3126   -2.0885 C   0  0  0  0  0  0  0  0  0  0  0  0
    6.2771  -19.8124   -2.0810 C   0  0  1  0  0  0  0  0  0  0  0  0
    2.0798  -22.7800    0.2839 N   0  0  0  0  0  0  0  0  0  0  0  0
    4.7075  -23.7142   -0.0120 N   0  0  0  0  0  0  0  0  0  0  0  0
    5.2939  -21.6066   -0.8925 N   0  0  3  0  0  0  0  0  0  0  0  0
    5.7502  -17.7784   -3.1772 O   0  0  0  0  0  0  0  0  0  0  0  0
    1.6503  -24.6531    1.0464 H   0  0  0  0  0  0  0  0  0  0  0  0
    4.0135  -25.4941    0.7780 H   0  0  0  0  0  0  0  0  0  0  0  0
    2.7617  -21.0020   -0.5043 H   0  0  0  0  0  0  0  0  0  0  0  0
    7.7691  -20.1574   -0.4995 H   0  0  0  0  0  0  0  0  0  0  0  0
    8.2106  -20.7902   -2.0955 H   0  0  0  0  0  0  0  0  0  0  0  0
    5.5886  -21.0108   -3.8078 H   0  0  0  0  0  0  0  0  0  0  0  0
    7.1184  -20.1514   -4.0392 H   0  0  0  0  0  0  0  0  0  0  0  0
    6.8271  -22.6644   -1.9303 H   0  0  0  0  0  0  0  0  0  0  0  0
    7.1005  -22.4137   -0.1872 H   0  0  0  0  0  0  0  0  0  0  0  0
    4.8402  -19.5888   -0.4158 H   0  0  0  0  0  0  0  0  0  0  0  0
    4.1264  -20.2035   -1.9278 H   0  0  0  0  0  0  0  0  0  0  0  0
    5.6953  -18.5840   -5.0897 H   0  0  0  0  0  0  0  0  0  0  0  0
    4.3219  -18.9803   -4.0349 H   0  0  0  0  0  0  0  0  0  0  0  0
    6.2213  -17.8070   -1.1619 H   0  0  0  0  0  0  0  0  0  0  0  0
    7.5699  -18.0670   -2.2858 H   0  0  0  0  0  0  0  0  0  0  0  0
  1  2  2  0  0  0  0
  1 12  1  0  0  0  0
  2 13  1  0  0  0  0
  3  4  1  0  0  0  0
  3 12  2  0  0  0  0
  4 13  2  0  0  0  0
  4 14  1  0  0  0  0
  5  7  1  0  0  0  0
  5 11  1  0  0  0  0
  6  9  1  0  0  0  0
  6 11  1  0  0  0  0
  7 14  1  0  0  0  0
  8 11  1  0  0  0  0
  8 14  1  0  0  0  0
  9 15  1  0  0  0  0
 10 11  1  0  0  0  0
 10 15  1  0  0  0  0
  1 16  1  0  0  0  0
  2 17  1  0  0  0  0
  3 18  1  0  0  0  0
  5 19  1  0  0  0  0
  5 20  1  0  0  0  0
  6 21  1  0  0  0  0
  6 22  1  0  0  0  0
  7 23  1  0  0  0  0
  7 24  1  0  0  0  0
  8 25  1  0  0  0  0
  8 26  1  0  0  0  0
  9 27  1  0  0  0  0
  9 28  1  0  0  0  0
 10 29  1  0  0  0  0
 10 30  1  0  0  0  0
M  END
> <fragments>
x0425

> <Hybrid2>
-1.879012

$$$$
Z1310876699
  -OEChem-03282016173D

 31 32  0     0  0  0  0  0  0999 V2000
   -1.4744    2.1582   24.9840 C   0  0  0  0  0  0  0  0  0  0  0  0
   -0.8306    2.5962   26.1413 C   0  0  0  0  0  0  0  0  0  0  0  0
   -0.7288    1.8417   23.8484 C   0  0  0  0  0  0  0  0  0  0  0  0
    0.5588    2.7179   26.1629 C   0  0  0  0  0  0  0  0  0  0  0  0
    5.9385   -0.4797   20.1444 C   0  0  0  0  0  0  0  0  0  0  0  0
    4.7890    1.2443   18.9233 C   0  0  0  0  0  0  0  0  0  0  0  0
    6.7632   -0.6356   19.0419 C   0  0  0  0  0  0  0  0  0  0  0  0
    5.6653    1.0114   17.8757 C   0  0  0  0  0  0  0  0  0  0  0  0
    0.6606    1.9633   23.8700 C   0  0  0  0  0  0  0  0  0  0  0  0
    4.9350    0.4803   20.0759 C   0  0  0  0  0  0  0  0  0  0  0  0
    1.3044    2.4014   25.0273 C   0  0  0  0  0  0  0  0  0  0  0  0
    1.4341    1.6322   22.6837 C   0  0  0  0  0  0  0  0  0  0  0  0
    4.0076    0.6917   21.2473 C   0  0  0  0  0  0  0  0  0  0  0  0
    3.5006    2.1278   21.3539 C   0  0  0  0  0  0  0  0  0  0  0  0
    6.6521    0.0878   17.9053 N   0  0  0  0  0  0  0  0  0  0  0  0
    2.6342    2.3270   22.4934 N   0  0  0  0  0  0  0  0  0  0  0  0
    1.0191    0.7817   21.8767 O   0  0  0  0  0  0  0  0  0  0  0  0
    2.6394    2.5225   25.0600 F   0  0  0  0  0  0  0  0  0  0  0  0
   -2.5561    2.0637   24.9671 H   0  0  0  0  0  0  0  0  0  0  0  0
   -1.4111    2.8426   27.0255 H   0  0  0  0  0  0  0  0  0  0  0  0
   -1.2415    1.5012   22.9525 H   0  0  0  0  0  0  0  0  0  0  0  0
    1.0602    3.0589   27.0638 H   0  0  0  0  0  0  0  0  0  0  0  0
    6.0780   -1.0925   21.0286 H   0  0  0  0  0  0  0  0  0  0  0  0
    4.0162    2.0007   18.8398 H   0  0  0  0  0  0  0  0  0  0  0  0
    7.5605   -1.3717   19.0445 H   0  0  0  0  0  0  0  0  0  0  0  0
    5.5932    1.5808   16.9549 H   0  0  0  0  0  0  0  0  0  0  0  0
    4.5436    0.4272   22.1676 H   0  0  0  0  0  0  0  0  0  0  0  0
    3.1611   -0.0037   21.1807 H   0  0  0  0  0  0  0  0  0  0  0  0
    4.3451    2.8134   21.4758 H   0  0  0  0  0  0  0  0  0  0  0  0
    2.9442    2.4272   20.4596 H   0  0  0  0  0  0  0  0  0  0  0  0
    2.8950    3.0557   23.1497 H   0  0  0  0  0  0  0  0  0  0  0  0
  1  2  1  0  0  0  0
  1  3  2  0  0  0  0
  2  4  2  0  0  0  0
  3  9  1  0  0  0  0
  4 11  1  0  0  0  0
  5  7  2  0  0  0  0
  5 10  1  0  0  0  0
  6  8  1  0  0  0  0
  6 10  2  0  0  0  0
  7 15  1  0  0  0  0
  8 15  2  0  0  0  0
  9 11  2  0  0  0  0
  9 12  1  0  0  0  0
 10 13  1  0  0  0  0
 11 18  1  0  0  0  0
 12 16  1  0  0  0  0
 12 17  2  0  0  0  0
 13 14  1  0  0  0  0
 14 16  1  0  0  0  0
  1 19  1  0  0  0  0
  2 20  1  0  0  0  0
  3 21  1  0  0  0  0
  4 22  1  0  0  0  0
  5 23  1  0  0  0  0
  6 24  1  0  0  0  0
  7 25  1  0  0  0  0
  8 26  1  0  0  0  0
 13 27  1  0  0  0  0
 13 28  1  0  0  0  0
 14 29  1  0  0  0  0
 14 30  1  0  0  0  0
 16 31  1  0  0  0  0
M  END
> <fragments>
x0426

> <Hybrid2>
-3.854048

$$$$
Z44592329
  -OEChem-03282016173D

 27 28  0     0  0  0  0  0  0999 V2000
   12.8604    1.3269   23.6541 C   0  0  0  0  0  0  0  0  0  0  0  0
   12.9938    0.0620   23.0815 C   0  0  0  0  0  0  0  0  0  0  0  0
   11.7462    2.1123   23.3586 C   0  0  0  0  0  0  0  0  0  0  0  0
    4.9013    1.3581   18.6451 C   0  0  0  0  0  0  0  0  0  0  0  0
   12.0130   -0.4175   22.2134 C   0  0  0  0  0  0  0  0  0  0  0  0
   10.7653    1.6328   22.4905 C   0  0  0  0  0  0  0  0  0  0  0  0
    6.1109    1.1369   19.2941 C   0  0  0  0  0  0  0  0  0  0  0  0
    4.4156    0.3568   17.8197 C   0  0  0  0  0  0  0  0  0  0  0  0
    6.2181   -0.9996   18.2548 C   0  0  0  0  0  0  0  0  0  0  0  0
   10.8987    0.3679   21.9178 C   0  0  0  0  0  0  0  0  0  0  0  0
    6.7883   -0.0618   19.1005 C   0  0  0  0  0  0  0  0  0  0  0  0
    8.7246    0.5230   20.6262 C   0  0  0  0  0  0  0  0  0  0  0  0
    5.0450   -0.8205   17.6071 N   0  0  0  0  0  0  0  0  0  0  0  0
    9.9177   -0.1120   21.0495 N   0  0  0  0  0  0  0  0  0  0  0  0
    8.0211   -0.3156   19.7468 N   0  0  0  0  0  0  0  0  0  0  0  0
    8.3653    1.6414   20.9800 O   0  0  0  0  0  0  0  0  0  0  0  0
   13.6236    1.7003   24.3308 H   0  0  0  0  0  0  0  0  0  0  0  0
   13.8607   -0.5501   23.3120 H   0  0  0  0  0  0  0  0  0  0  0  0
   11.6421    3.0968   23.8054 H   0  0  0  0  0  0  0  0  0  0  0  0
    4.3559    2.2850   18.7812 H   0  0  0  0  0  0  0  0  0  0  0  0
   12.1276   -1.4049   21.7732 H   0  0  0  0  0  0  0  0  0  0  0  0
    9.9012    2.2537   22.2675 H   0  0  0  0  0  0  0  0  0  0  0  0
    6.5163    1.9047   19.9478 H   0  0  0  0  0  0  0  0  0  0  0  0
    3.4767    0.4809   17.2902 H   0  0  0  0  0  0  0  0  0  0  0  0
    6.6992   -1.9543   18.0642 H   0  0  0  0  0  0  0  0  0  0  0  0
   10.0824   -1.0491   20.6670 H   0  0  0  0  0  0  0  0  0  0  0  0
    8.4439   -1.2183   19.5460 H   0  0  0  0  0  0  0  0  0  0  0  0
  1  2  1  0  0  0  0
  1  3  2  0  0  0  0
  2  5  2  0  0  0  0
  3  6  1  0  0  0  0
  4  7  2  0  0  0  0
  4  8  1  0  0  0  0
  5 10  1  0  0  0  0
  6 10  2  0  0  0  0
  7 11  1  0  0  0  0
  8 13  2  0  0  0  0
  9 11  2  0  0  0  0
  9 13  1  0  0  0  0
 10 14  1  0  0  0  0
 11 15  1  0  0  0  0
 12 14  1  0  0  0  0
 12 15  1  0  0  0  0
 12 16  2  0  0  0  0
  1 17  1  0  0  0  0
  2 18  1  0  0  0  0
  3 19  1  0  0  0  0
  4 20  1  0  0  0  0
  5 21  1  0  0  0  0
  6 22  1  0  0  0  0
  7 23  1  0  0  0  0
  8 24  1  0  0  0  0
  9 25  1  0  0  0  0
 14 26  1  0  0  0  0
 15 27  1  0  0  0  0
M  END
> <fragments>
x0434

> <Hybrid2>
-6.273730

$$$$
Z2217052426
  -OEChem-03282016173D

 35 36  0     1  0  0  0  0  0999 V2000
   20.4277   19.5473    4.1987 C   0  0  0  0  0  0  0  0  0  0  0  0
   20.6560   18.5752    3.2248 C   0  0  0  0  0  0  0  0  0  0  0  0
   21.0376   19.4391    5.4485 C   0  0  0  0  0  0  0  0  0  0  0  0
   21.4941   17.4949    3.5006 C   0  0  0  0  0  0  0  0  0  0  0  0
   21.8757   18.3587    5.7244 C   0  0  0  0  0  0  0  0  0  0  0  0
   22.1040   17.3866    4.7504 C   0  0  0  0  0  0  0  0  0  0  0  0
   20.6531   14.3271    7.3798 C   0  0  0  0  0  0  0  0  0  0  0  0
   21.4886   13.0841    7.6583 C   0  0  0  0  0  0  0  0  0  0  0  0
   21.5155   15.4711    6.8753 C   0  0  0  0  0  0  0  0  0  0  0  0
   22.3033   12.6760    6.4337 C   0  0  2  0  0  0  0  0  0  0  0  0
   23.1686   13.8303    5.8985 C   0  0  1  0  0  0  0  0  0  0  0  0
   23.9007   13.4196    4.6200 C   0  0  0  0  0  0  0  0  0  0  0  0
   23.0054   16.2248    5.0479 C   0  0  0  0  0  0  0  0  0  0  0  0
   22.2722   15.0418    5.6334 N   0  3  2  0  0  0  0  0  0  0  0  0
   21.4251   12.2150    5.4071 O   0  0  0  0  0  0  0  0  0  0  0  0
   19.7761   20.3891    3.9833 H   0  0  0  0  0  0  0  0  0  0  0  0
   20.1821   18.6599    2.2512 H   0  0  0  0  0  0  0  0  0  0  0  0
   20.8609   20.1962    6.2067 H   0  0  0  0  0  0  0  0  0  0  0  0
   21.6661   16.7422    2.7357 H   0  0  0  0  0  0  0  0  0  0  0  0
   22.3465   18.2826    6.7010 H   0  0  0  0  0  0  0  0  0  0  0  0
   19.8703   14.0999    6.6456 H   0  0  0  0  0  0  0  0  0  0  0  0
   20.1412   14.6346    8.2988 H   0  0  0  0  0  0  0  0  0  0  0  0
   22.1637   13.2793    8.5004 H   0  0  0  0  0  0  0  0  0  0  0  0
   20.8188   12.2681    7.9542 H   0  0  0  0  0  0  0  0  0  0  0  0
   20.8865   16.3245    6.6006 H   0  0  0  0  0  0  0  0  0  0  0  0
   22.2549   15.7861    7.6201 H   0  0  0  0  0  0  0  0  0  0  0  0
   22.9506   11.8340    6.7068 H   0  0  0  0  0  0  0  0  0  0  0  0
   23.8935   14.1368    6.6576 H   0  0  0  0  0  0  0  0  0  0  0  0
   23.1787   13.1147    3.8652 H   0  0  0  0  0  0  0  0  0  0  0  0
   24.5704   12.5884    4.8312 H   0  0  0  0  0  0  0  0  0  0  0  0
   24.4802   14.2598    4.2427 H   0  0  0  0  0  0  0  0  0  0  0  0
   23.5040   15.8679    4.1403 H   0  0  0  0  0  0  0  0  0  0  0  0
   23.7824   16.5014    5.7687 H   0  0  0  0  0  0  0  0  0  0  0  0
   21.5703   14.7562    4.9359 H   0  0  0  0  0  0  0  0  0  0  0  0
   20.9485   11.4553    5.7746 H   0  0  0  0  0  0  0  0  0  0  0  0
  1  2  1  0  0  0  0
  1  3  2  0  0  0  0
  2  4  2  0  0  0  0
  3  5  1  0  0  0  0
  4  6  1  0  0  0  0
  5  6  2  0  0  0  0
  6 13  1  0  0  0  0
  7  8  1  0  0  0  0
  7  9  1  0  0  0  0
  8 10  1  0  0  0  0
  9 14  1  0  0  0  0
 10 11  1  0  0  0  0
 10 15  1  0  0  0  0
 11 12  1  0  0  0  0
 11 14  1  0  0  0  0
 13 14  1  0  0  0  0
  1 16  1  0  0  0  0
  2 17  1  0  0  0  0
  3 18  1  0  0  0  0
  4 19  1  0  0  0  0
  5 20  1  0  0  0  0
  7 21  1  0  0  0  0
  7 22  1  0  0  0  0
  8 23  1  0  0  0  0
  8 24  1  0  0  0  0
  9 25  1  0  0  0  0
  9 26  1  0  0  0  0
 10 27  1  0  0  0  0
 11 28  1  0  0  0  0
 12 29  1  0  0  0  0
 12 30  1  0  0  0  0
 12 31  1  0  0  0  0
 13 32  1  0  0  0  0
 13 33  1  0  0  0  0
 14 34  1  0  0  0  0
 15 35  1  0  0  0  0
M  CHG  1  14   1
M  END
> <fragments>
x0464

> <Hybrid2>
-6.373271

$$$$
Z24758179
  -OEChem-03282016173D

 26 26  0     0  0  0  0  0  0999 V2000
   20.0550    2.7639  -11.0520 C   0  0  0  0  0  0  0  0  0  0  0  0
   19.0005    2.8502  -11.9609 C   0  0  0  0  0  0  0  0  0  0  0  0
   19.8020    2.4405   -9.7189 C   0  0  0  0  0  0  0  0  0  0  0  0
   17.4400    2.2898  -10.2037 C   0  0  0  0  0  0  0  0  0  0  0  0
   17.6930    2.6132  -11.5368 C   0  0  0  0  0  0  0  0  0  0  0  0
   18.4945    2.2035   -9.2948 C   0  0  0  0  0  0  0  0  0  0  0  0
   16.5936    2.7033  -12.4843 C   0  0  0  0  0  0  0  0  0  0  0  0
   15.7192    1.8069  -14.5153 C   0  0  0  0  0  0  0  0  0  0  0  0
   17.8737    3.1902   -5.6181 C   0  0  0  0  0  0  0  0  0  0  0  0
   18.2369    1.8725   -7.9299 N   0  0  0  0  0  0  0  0  0  0  0  0
   15.6405    3.4867  -12.3788 O   0  0  0  0  0  0  0  0  0  0  0  0
   16.7403    3.9702   -7.8259 O   0  0  0  0  0  0  0  0  0  0  0  0
   15.9119    1.8603   -6.7273 O   0  0  0  0  0  0  0  0  0  0  0  0
   16.7415    1.8133  -13.5130 O   0  0  0  0  0  0  0  0  0  0  0  0
   17.0012    2.7402   -7.1016 S   0  0  0  0  0  0  0  0  0  0  0  0
   21.0733    2.9478  -11.3823 H   0  0  0  0  0  0  0  0  0  0  0  0
   19.2094    3.1033  -12.9974 H   0  0  0  0  0  0  0  0  0  0  0  0
   20.6311    2.3763   -9.0186 H   0  0  0  0  0  0  0  0  0  0  0  0
   16.4205    2.1045   -9.8724 H   0  0  0  0  0  0  0  0  0  0  0  0
   15.9560    1.0566  -15.2736 H   0  0  0  0  0  0  0  0  0  0  0  0
   15.6520    2.7963  -14.9748 H   0  0  0  0  0  0  0  0  0  0  0  0
   14.7637    1.5593  -14.0469 H   0  0  0  0  0  0  0  0  0  0  0  0
   17.1967    3.7603   -4.9799 H   0  0  0  0  0  0  0  0  0  0  0  0
   18.1934    2.2760   -5.1159 H   0  0  0  0  0  0  0  0  0  0  0  0
   18.7373    3.7958   -5.8969 H   0  0  0  0  0  0  0  0  0  0  0  0
   18.2604    0.8594   -7.7274 H   0  0  0  0  0  0  0  0  0  0  0  0
  1  2  2  0  0  0  0
  1  3  1  0  0  0  0
  2  5  1  0  0  0  0
  3  6  2  0  0  0  0
  4  5  2  0  0  0  0
  4  6  1  0  0  0  0
  5  7  1  0  0  0  0
  6 10  1  0  0  0  0
  7 11  2  0  0  0  0
  7 14  1  0  0  0  0
  8 14  1  0  0  0  0
  9 15  1  0  0  0  0
 10 15  1  0  0  0  0
 12 15  2  0  0  0  0
 13 15  2  0  0  0  0
  1 16  1  0  0  0  0
  2 17  1  0  0  0  0
  3 18  1  0  0  0  0
  4 19  1  0  0  0  0
  8 20  1  0  0  0  0
  8 21  1  0  0  0  0
  8 22  1  0  0  0  0
  9 23  1  0  0  0  0
  9 24  1  0  0  0  0
  9 25  1  0  0  0  0
 10 26  1  0  0  0  0
M  END
> <fragments>
x0478

> <Hybrid2>
-4.501690

$$$$
Z1545313172
  -OEChem-03282016173D

 31 32  0     1  0  0  0  0  0999 V2000
   24.9715    3.3771   11.5612 C   0  0  0  0  0  0  0  0  0  0  0  0
   25.2557    5.6932   10.9354 C   0  0  0  0  0  0  0  0  0  0  0  0
   24.7114    3.0494   10.2306 C   0  0  0  0  0  0  0  0  0  0  0  0
   24.9957    5.3656    9.6047 C   0  0  0  0  0  0  0  0  0  0  0  0
   25.2435    4.6990   11.9136 C   0  0  0  0  0  0  0  0  0  0  0  0
   24.7235    4.0437    9.2523 C   0  0  0  0  0  0  0  0  0  0  0  0
   25.5145    5.0407   13.3010 C   0  0  0  0  0  0  0  0  0  0  0  0
   24.1714    2.4546    7.3830 C   0  0  0  0  0  0  0  0  0  0  0  0
   25.1497    0.7476    4.9036 C   0  0  0  0  0  0  0  0  0  0  0  0
   23.7456    1.1506    5.2859 C   0  0  0  0  0  0  0  0  0  0  0  0
   25.7600    2.0730    4.5078 C   0  0  0  0  0  0  0  0  0  0  0  0
   23.9534    2.5203    5.9037 C   0  0  2  0  0  0  0  0  0  0  0  0
   25.4902    4.0118   14.2380 N   0  0  0  0  0  0  0  0  0  0  0  0
   24.4596    3.7102    7.9026 N   0  0  0  0  0  0  0  0  0  0  0  0
   25.7439    6.2129   13.6471 O   0  0  0  0  0  0  0  0  0  0  0  0
   24.0846    1.3886    7.9839 O   0  0  0  0  0  0  0  0  0  0  0  0
   25.1504    3.0666    5.3428 O   0  0  0  0  0  0  0  0  0  0  0  0
   24.9590    2.5947   12.3155 H   0  0  0  0  0  0  0  0  0  0  0  0
   25.4665    6.7265   11.1989 H   0  0  0  0  0  0  0  0  0  0  0  0
   24.5008    2.0160    9.9665 H   0  0  0  0  0  0  0  0  0  0  0  0
   25.0076    6.1488    8.8507 H   0  0  0  0  0  0  0  0  0  0  0  0
   25.6714    0.3391    5.7772 H   0  0  0  0  0  0  0  0  0  0  0  0
   25.1896    0.0035    4.1039 H   0  0  0  0  0  0  0  0  0  0  0  0
   23.1352    1.2432    4.3797 H   0  0  0  0  0  0  0  0  0  0  0  0
   23.2608    0.4302    5.9513 H   0  0  0  0  0  0  0  0  0  0  0  0
   26.8452    2.0941    4.6414 H   0  0  0  0  0  0  0  0  0  0  0  0
   25.5293    2.3217    3.4662 H   0  0  0  0  0  0  0  0  0  0  0  0
   23.1132    3.1959    5.7080 H   0  0  0  0  0  0  0  0  0  0  0  0
   25.2871    3.0665   13.9314 H   0  0  0  0  0  0  0  0  0  0  0  0
   25.6711    4.1864   15.2213 H   0  0  0  0  0  0  0  0  0  0  0  0
   24.4864    4.4891    7.2479 H   0  0  0  0  0  0  0  0  0  0  0  0
  1  3  2  0  0  0  0
  1  5  1  0  0  0  0
  2  4  1  0  0  0  0
  2  5  2  0  0  0  0
  3  6  1  0  0  0  0
  4  6  2  0  0  0  0
  5  7  1  0  0  0  0
  6 14  1  0  0  0  0
  7 13  1  0  0  0  0
  7 15  2  0  0  0  0
  8 12  1  0  0  0  0
  8 14  1  0  0  0  0
  8 16  2  0  0  0  0
  9 10  1  0  0  0  0
  9 11  1  0  0  0  0
 10 12  1  0  0  0  0
 11 17  1  0  0  0  0
 12 17  1  0  0  0  0
  1 18  1  0  0  0  0
  2 19  1  0  0  0  0
  3 20  1  0  0  0  0
  4 21  1  0  0  0  0
  9 22  1  0  0  0  0
  9 23  1  0  0  0  0
 10 24  1  0  0  0  0
 10 25  1  0  0  0  0
 11 26  1  0  0  0  0
 11 27  1  0  0  0  0
 12 28  1  0  0  0  0
 13 29  1  0  0  0  0
 13 30  1  0  0  0  0
 14 31  1  0  0  0  0
M  END
> <fragments>
x0499

> <Hybrid2>
-3.286886

$$$$
Z111507846
  -OEChem-03282016173D

 39 40  0     0  0  0  0  0  0999 V2000
    5.2773    0.5580   19.4177 C   0  0  0  0  0  0  0  0  0  0  0  0
    7.5445    0.1622   20.1161 C   0  0  0  0  0  0  0  0  0  0  0  0
    5.7365    0.5553   18.1105 C   0  0  0  0  0  0  0  0  0  0  0  0
    7.9022    0.1769   18.7776 C   0  0  0  0  0  0  0  0  0  0  0  0
    6.2049    0.3570   20.4338 C   0  0  0  0  0  0  0  0  0  0  0  0
    3.6035    2.8680   22.2313 C   0  0  0  0  0  0  0  0  0  0  0  0
   -1.0017    3.9970   22.9979 C   0  0  0  0  0  0  0  0  0  0  0  0
   -0.7915    3.3957   21.6111 C   0  0  0  0  0  0  0  0  0  0  0  0
   -0.0807    5.1895   23.2402 C   0  0  0  0  0  0  0  0  0  0  0  0
    0.6726    3.0318   21.3705 C   0  0  0  0  0  0  0  0  0  0  0  0
    1.3842    4.8273   23.0022 C   0  0  0  0  0  0  0  0  0  0  0  0
    1.5927    4.2351   21.6040 C   0  0  0  0  0  0  0  0  0  0  0  0
    5.7598    0.3511   21.8757 C   0  0  0  0  0  0  0  0  0  0  0  0
    5.8033    1.7354   22.5180 C   0  0  0  0  0  0  0  0  0  0  0  0
    7.0297    0.3693   17.7630 N   0  0  0  0  0  0  0  0  0  0  0  0
    2.9881    3.8331   21.4377 N   0  0  0  0  0  0  0  0  0  0  0  0
    4.9321    2.6797   21.8589 N   0  0  0  0  0  0  0  0  0  0  0  0
    3.0464    2.2590   23.1436 O   0  0  0  0  0  0  0  0  0  0  0  0
    4.2255    0.7138   19.6325 H   0  0  0  0  0  0  0  0  0  0  0  0
    8.2914    0.0026   20.8861 H   0  0  0  0  0  0  0  0  0  0  0  0
    5.0533    0.7089   17.2816 H   0  0  0  0  0  0  0  0  0  0  0  0
    8.9344    0.0297   18.4774 H   0  0  0  0  0  0  0  0  0  0  0  0
   -2.0461    4.3089   23.1102 H   0  0  0  0  0  0  0  0  0  0  0  0
   -0.8130    3.2304   23.7596 H   0  0  0  0  0  0  0  0  0  0  0  0
   -1.4163    2.5026   21.4982 H   0  0  0  0  0  0  0  0  0  0  0  0
   -1.1186    4.1135   20.8486 H   0  0  0  0  0  0  0  0  0  0  0  0
   -0.3657    6.0123   22.5730 H   0  0  0  0  0  0  0  0  0  0  0  0
   -0.2086    5.5513   24.2666 H   0  0  0  0  0  0  0  0  0  0  0  0
    0.9529    2.2094   22.0414 H   0  0  0  0  0  0  0  0  0  0  0  0
    0.7869    2.6637   20.3439 H   0  0  0  0  0  0  0  0  0  0  0  0
    2.0010    5.7256   23.1269 H   0  0  0  0  0  0  0  0  0  0  0  0
    1.7046    4.1071   23.7662 H   0  0  0  0  0  0  0  0  0  0  0  0
    1.4070    4.9941   20.8498 H   0  0  0  0  0  0  0  0  0  0  0  0
    6.4108   -0.3301   22.4381 H   0  0  0  0  0  0  0  0  0  0  0  0
    4.7482   -0.0681   21.9500 H   0  0  0  0  0  0  0  0  0  0  0  0
    5.4718    1.6739   23.5594 H   0  0  0  0  0  0  0  0  0  0  0  0
    6.8146    2.1549   22.5059 H   0  0  0  0  0  0  0  0  0  0  0  0
    3.5356    4.2792   20.7079 H   0  0  0  0  0  0  0  0  0  0  0  0
    5.2942    3.1945   21.0623 H   0  0  0  0  0  0  0  0  0  0  0  0
  1  3  2  0  0  0  0
  1  5  1  0  0  0  0
  2  4  1  0  0  0  0
  2  5  2  0  0  0  0
  3 15  1  0  0  0  0
  4 15  2  0  0  0  0
  5 13  1  0  0  0  0
  6 16  1  0  0  0  0
  6 17  1  0  0  0  0
  6 18  2  0  0  0  0
  7  8  1  0  0  0  0
  7  9  1  0  0  0  0
  8 10  1  0  0  0  0
  9 11  1  0  0  0  0
 10 12  1  0  0  0  0
 11 12  1  0  0  0  0
 12 16  1  0  0  0  0
 13 14  1  0  0  0  0
 14 17  1  0  0  0  0
  1 19  1  0  0  0  0
  2 20  1  0  0  0  0
  3 21  1  0  0  0  0
  4 22  1  0  0  0  0
  7 23  1  0  0  0  0
  7 24  1  0  0  0  0
  8 25  1  0  0  0  0
  8 26  1  0  0  0  0
  9 27  1  0  0  0  0
  9 28  1  0  0  0  0
 10 29  1  0  0  0  0
 10 30  1  0  0  0  0
 11 31  1  0  0  0  0
 11 32  1  0  0  0  0
 12 33  1  0  0  0  0
 13 34  1  0  0  0  0
 13 35  1  0  0  0  0
 14 36  1  0  0  0  0
 14 37  1  0  0  0  0
 16 38  1  0  0  0  0
 17 39  1  0  0  0  0
M  END
> <fragments>
x0540

> <Hybrid2>
-6.911177

$$$$
Z2856434856
  -OEChem-03282016173D

 29 30  0     0  0  0  0  0  0999 V2000
   24.8826   -6.2478    5.4382 C   0  0  0  0  0  0  0  0  0  0  0  0
   25.7589   -7.2596    5.0458 C   0  0  0  0  0  0  0  0  0  0  0  0
   23.5595   -6.5554    5.7556 C   0  0  0  0  0  0  0  0  0  0  0  0
   23.9893   -8.8864    5.2880 C   0  0  0  0  0  0  0  0  0  0  0  0
   25.3123   -8.5788    4.9707 C   0  0  0  0  0  0  0  0  0  0  0  0
   23.1129   -7.8747    5.6805 C   0  0  0  0  0  0  0  0  0  0  0  0
   27.7771   -9.8457    6.5212 C   0  0  0  0  0  0  0  0  0  0  0  0
   27.1839  -11.8844    5.2276 C   0  0  0  0  0  0  0  0  0  0  0  0
   28.1383  -10.7627    7.6774 C   0  0  0  0  0  0  0  0  0  0  0  0
   27.5763  -12.6961    6.4505 C   0  0  0  0  0  0  0  0  0  0  0  0
   26.2552   -9.6664    4.5474 C   0  0  0  0  0  0  0  0  0  0  0  0
   26.7140  -10.5253    5.6906 N   0  3  0  0  0  0  0  0  0  0  0  0
   28.5968  -12.0250    7.1912 O   0  0  0  0  0  0  0  0  0  0  0  0
   21.4802   -8.2533    6.0710 Cl  0  0  0  0  0  0  0  0  0  0  0  0
   25.2307   -5.2206    5.4964 H   0  0  0  0  0  0  0  0  0  0  0  0
   26.7881   -7.0107    4.8002 H   0  0  0  0  0  0  0  0  0  0  0  0
   22.8876   -5.7566    6.0596 H   0  0  0  0  0  0  0  0  0  0  0  0
   23.6460   -9.9167    5.2284 H   0  0  0  0  0  0  0  0  0  0  0  0
   27.3679   -8.8956    6.8777 H   0  0  0  0  0  0  0  0  0  0  0  0
   28.6351   -9.6678    5.8637 H   0  0  0  0  0  0  0  0  0  0  0  0
   28.0376  -11.7195    4.5611 H   0  0  0  0  0  0  0  0  0  0  0  0
   26.3609  -12.3557    4.6820 H   0  0  0  0  0  0  0  0  0  0  0  0
   28.9517  -10.3184    8.2598 H   0  0  0  0  0  0  0  0  0  0  0  0
   27.2912  -10.9130    8.3573 H   0  0  0  0  0  0  0  0  0  0  0  0
   26.7158  -12.8935    7.1008 H   0  0  0  0  0  0  0  0  0  0  0  0
   27.9795  -13.6640    6.1362 H   0  0  0  0  0  0  0  0  0  0  0  0
   25.7855  -10.3364    3.8193 H   0  0  0  0  0  0  0  0  0  0  0  0
   27.1568   -9.2503    4.0849 H   0  0  0  0  0  0  0  0  0  0  0  0
   25.8947  -10.6716    6.2964 H   0  0  0  0  0  0  0  0  0  0  0  0
  1  2  1  0  0  0  0
  1  3  2  0  0  0  0
  2  5  2  0  0  0  0
  3  6  1  0  0  0  0
  4  5  1  0  0  0  0
  4  6  2  0  0  0  0
  5 11  1  0  0  0  0
  6 14  1  0  0  0  0
  7  9  1  0  0  0  0
  7 12  1  0  0  0  0
  8 10  1  0  0  0  0
  8 12  1  0  0  0  0
  9 13  1  0  0  0  0
 10 13  1  0  0  0  0
 11 12  1  0  0  0  0
  1 15  1  0  0  0  0
  2 16  1  0  0  0  0
  3 17  1  0  0  0  0
  4 18  1  0  0  0  0
  7 19  1  0  0  0  0
  7 20  1  0  0  0  0
  8 21  1  0  0  0  0
  8 22  1  0  0  0  0
  9 23  1  0  0  0  0
  9 24  1  0  0  0  0
 10 25  1  0  0  0  0
 10 26  1  0  0  0  0
 11 27  1  0  0  0  0
 11 28  1  0  0  0  0
 12 29  1  0  0  0  0
M  CHG  1  12   1
M  END
> <fragments>
x0669

> <Hybrid2>
-3.508027

$$$$
Z31792168
  -OEChem-03282016173D

 34 35  0     0  0  0  0  0  0999 V2000
    5.6330    0.6922   19.0569 C   0  0  0  0  0  0  0  0  0  0  0  0
    6.3749    0.7023   20.2328 C   0  0  0  0  0  0  0  0  0  0  0  0
    6.2967    0.4106   17.8737 C   0  0  0  0  0  0  0  0  0  0  0  0
    8.3080    0.1640   18.9563 C   0  0  0  0  0  0  0  0  0  0  0  0
    7.7386    0.4343   20.1902 C   0  0  0  0  0  0  0  0  0  0  0  0
    9.8682    0.7610   21.4940 C   0  0  0  0  0  0  0  0  0  0  0  0
   13.7792   -0.8257   23.2428 C   0  0  0  0  0  0  0  0  0  0  0  0
   12.9803   -0.7832   21.9439 C   0  0  0  0  0  0  0  0  0  0  0  0
   13.0199   -0.1813   24.3984 C   0  0  0  0  0  0  0  0  0  0  0  0
   11.5909   -1.3947   22.1157 C   0  0  0  0  0  0  0  0  0  0  0  0
   11.6307   -0.7929   24.5712 C   0  0  0  0  0  0  0  0  0  0  0  0
   10.8009   -0.7771   23.2789 C   0  0  0  0  0  0  0  0  0  0  0  0
   10.3074    0.6325   22.9413 C   0  0  0  0  0  0  0  0  0  0  0  0
    7.6198    0.1453   17.7928 N   0  0  0  0  0  0  0  0  0  0  0  0
    8.5200    0.4376   21.3701 N   0  0  0  0  0  0  0  0  0  0  0  0
   10.6373    1.1057   20.6029 O   0  0  0  0  0  0  0  0  0  0  0  0
    4.5688    0.8983   19.0664 H   0  0  0  0  0  0  0  0  0  0  0  0
    5.8809    0.9201   21.1760 H   0  0  0  0  0  0  0  0  0  0  0  0
    5.7631    0.3913   16.9292 H   0  0  0  0  0  0  0  0  0  0  0  0
    9.3677   -0.0528   18.8589 H   0  0  0  0  0  0  0  0  0  0  0  0
   14.0187   -1.8665   23.4941 H   0  0  0  0  0  0  0  0  0  0  0  0
   14.7354   -0.3049   23.0996 H   0  0  0  0  0  0  0  0  0  0  0  0
   12.8868    0.2543   21.6032 H   0  0  0  0  0  0  0  0  0  0  0  0
   13.5240   -1.3280   21.1622 H   0  0  0  0  0  0  0  0  0  0  0  0
   13.5913   -0.3069   25.3263 H   0  0  0  0  0  0  0  0  0  0  0  0
   12.9289    0.8967   24.2232 H   0  0  0  0  0  0  0  0  0  0  0  0
   11.0261   -1.2720   21.1754 H   0  0  0  0  0  0  0  0  0  0  0  0
   11.6918   -2.4820   22.2688 H   0  0  0  0  0  0  0  0  0  0  0  0
   11.7352   -1.8286   24.9349 H   0  0  0  0  0  0  0  0  0  0  0  0
   11.0938   -0.2454   25.3650 H   0  0  0  0  0  0  0  0  0  0  0  0
    9.9040   -1.4100   23.4487 H   0  0  0  0  0  0  0  0  0  0  0  0
   11.1125    1.3468   23.1318 H   0  0  0  0  0  0  0  0  0  0  0  0
    9.4637    0.8797   23.5908 H   0  0  0  0  0  0  0  0  0  0  0  0
    8.0264    0.1708   22.2194 H   0  0  0  0  0  0  0  0  0  0  0  0
  1  2  2  0  0  0  0
  1  3  1  0  0  0  0
  2  5  1  0  0  0  0
  3 14  2  0  0  0  0
  4  5  2  0  0  0  0
  4 14  1  0  0  0  0
  5 15  1  0  0  0  0
  6 13  1  0  0  0  0
  6 15  1  0  0  0  0
  6 16  2  0  0  0  0
  7  8  1  0  0  0  0
  7  9  1  0  0  0  0
  8 10  1  0  0  0  0
  9 11  1  0  0  0  0
 10 12  1  0  0  0  0
 11 12  1  0  0  0  0
 12 13  1  0  0  0  0
  1 17  1  0  0  0  0
  2 18  1  0  0  0  0
  3 19  1  0  0  0  0
  4 20  1  0  0  0  0
  7 21  1  0  0  0  0
  7 22  1  0  0  0  0
  8 23  1  0  0  0  0
  8 24  1  0  0  0  0
  9 25  1  0  0  0  0
  9 26  1  0  0  0  0
 10 27  1  0  0  0  0
 10 28  1  0  0  0  0
 11 29  1  0  0  0  0
 11 30  1  0  0  0  0
 12 31  1  0  0  0  0
 13 32  1  0  0  0  0
 13 33  1  0  0  0  0
 15 34  1  0  0  0  0
M  END
> <fragments>
x0678

> <Hybrid2>
-11.355043

$$$$
PCM-0102241
  -OEChem-03282016173D

 31 32  0     0  0  0  0  0  0999 V2000
    1.3396   -4.7961   26.5420 C   0  0  0  0  0  0  0  0  0  0  0  0
    2.2524   -5.8771   26.7102 C   0  0  0  0  0  0  0  0  0  0  0  0
    1.9786   -3.5758   26.5332 C   0  0  0  0  0  0  0  0  0  0  0  0
    3.5546   -5.4418   26.8233 C   0  0  0  0  0  0  0  0  0  0  0  0
    6.4506   -4.4049   21.5890 C   0  0  0  0  0  0  0  0  0  0  0  0
    7.2331   -4.7320   23.9678 C   0  0  0  0  0  0  0  0  0  0  0  0
    4.8933   -5.2582   23.3098 C   0  0  0  0  0  0  0  0  0  0  0  0
    6.6186   -4.7839   25.3609 C   0  0  0  0  0  0  0  0  0  0  0  0
    4.9896   -6.3963   24.3171 C   0  0  0  0  0  0  0  0  0  0  0  0
    7.8449   -3.9216   21.2719 C   0  0  0  0  0  0  0  0  0  0  0  0
    6.2166   -4.7798   22.9124 N   0  0  0  0  0  0  0  0  0  0  0  0
    5.7966   -6.0138   25.5122 N   0  0  0  0  0  0  0  0  0  0  0  0
    5.6005   -4.4426   20.6967 O   0  0  0  0  0  0  0  0  0  0  0  0
    5.8518   -5.5536   28.0413 O   0  0  0  0  0  0  0  0  0  0  0  0
    4.8169   -7.6895   27.1959 O   0  0  0  0  0  0  0  0  0  0  0  0
    3.6724   -3.7362   26.7270 S   0  0  0  0  0  0  0  0  0  0  0  0
    5.0938   -6.2774   27.0437 S   0  0  0  0  0  0  0  0  0  0  0  0
    7.8363   -2.1759   21.4966 Cl  0  0  0  0  0  0  0  0  0  0  0  0
    0.2687   -4.9078   26.4323 H   0  0  0  0  0  0  0  0  0  0  0  0
    1.9661   -6.9203   26.7461 H   0  0  0  0  0  0  0  0  0  0  0  0
    1.5321   -2.5978   26.4216 H   0  0  0  0  0  0  0  0  0  0  0  0
    7.7877   -3.7885   23.8293 H   0  0  0  0  0  0  0  0  0  0  0  0
    7.9679   -5.5419   23.8652 H   0  0  0  0  0  0  0  0  0  0  0  0
    4.3160   -5.5839   22.4347 H   0  0  0  0  0  0  0  0  0  0  0  0
    4.3606   -4.4015   23.7477 H   0  0  0  0  0  0  0  0  0  0  0  0
    7.4033   -4.7610   26.1314 H   0  0  0  0  0  0  0  0  0  0  0  0
    5.9804   -3.9002   25.5007 H   0  0  0  0  0  0  0  0  0  0  0  0
    3.9687   -6.6704   24.6431 H   0  0  0  0  0  0  0  0  0  0  0  0
    5.4302   -7.2963   23.8454 H   0  0  0  0  0  0  0  0  0  0  0  0
    8.0744   -4.1629   20.2403 H   0  0  0  0  0  0  0  0  0  0  0  0
    8.5421   -4.3825   21.9622 H   0  0  0  0  0  0  0  0  0  0  0  0
  1  2  1  0  0  0  0
  1  3  2  0  0  0  0
  2  4  2  0  0  0  0
  3 16  1  0  0  0  0
  4 16  1  0  0  0  0
  4 17  1  0  0  0  0
  5 10  1  0  0  0  0
  5 11  1  0  0  0  0
  5 13  2  0  0  0  0
  6  8  1  0  0  0  0
  6 11  1  0  0  0  0
  7  9  1  0  0  0  0
  7 11  1  0  0  0  0
  8 12  1  0  0  0  0
  9 12  1  0  0  0  0
 10 18  1  0  0  0  0
 12 17  1  0  0  0  0
 14 17  2  0  0  0  0
 15 17  2  0  0  0  0
  1 19  1  0  0  0  0
  2 20  1  0  0  0  0
  3 21  1  0  0  0  0
  6 22  1  0  0  0  0
  6 23  1  0  0  0  0
  7 24  1  0  0  0  0
  7 25  1  0  0  0  0
  8 26  1  0  0  0  0
  8 27  1  0  0  0  0
  9 28  1  0  0  0  0
  9 29  1  0  0  0  0
 10 30  1  0  0  0  0
 10 31  1  0  0  0  0
M  END
> <fragments>
x0689

> <Hybrid2>
-1.434038

$$$$
PCM-0102327
  -OEChem-03282016173D

 34 35  0     0  0  0  0  0  0999 V2000
    3.5543   -2.1751   27.0522 C   0  0  0  0  0  0  0  0  0  0  0  0
    2.4629   -2.3643   26.2045 C   0  0  0  0  0  0  0  0  0  0  0  0
    4.4329   -3.2289   27.3039 C   0  0  0  0  0  0  0  0  0  0  0  0
    3.1285   -4.6612   25.8602 C   0  0  0  0  0  0  0  0  0  0  0  0
    2.2500   -3.6073   25.6085 C   0  0  0  0  0  0  0  0  0  0  0  0
    4.2200   -4.4720   26.7079 C   0  0  0  0  0  0  0  0  0  0  0  0
    6.8081   -5.4620   21.2966 C   0  0  0  0  0  0  0  0  0  0  0  0
    7.4926   -5.0170   23.6864 C   0  0  0  0  0  0  0  0  0  0  0  0
    5.2403   -5.9256   23.1517 C   0  0  0  0  0  0  0  0  0  0  0  0
    6.8144   -4.7231   25.0185 C   0  0  0  0  0  0  0  0  0  0  0  0
    5.3780   -6.7119   24.4486 C   0  0  0  0  0  0  0  0  0  0  0  0
    8.2520   -5.6595   20.9039 C   0  0  0  0  0  0  0  0  0  0  0  0
    6.5385   -5.4607   22.6655 N   0  0  0  0  0  0  0  0  0  0  0  0
    6.0891   -5.9285   25.5005 N   0  0  0  0  0  0  0  0  0  0  0  0
    5.9533   -5.3092   20.4211 O   0  0  0  0  0  0  0  0  0  0  0  0
    6.3035   -5.3501   27.9966 O   0  0  0  0  0  0  0  0  0  0  0  0
    4.5468   -6.9973   27.2560 O   0  0  0  0  0  0  0  0  0  0  0  0
    1.2016   -3.7888   24.7947 F   0  0  0  0  0  0  0  0  0  0  0  0
    5.3332   -5.8048   27.0244 S   0  0  0  0  0  0  0  0  0  0  0  0
    8.5026   -7.3958   20.7621 Cl  0  0  0  0  0  0  0  0  0  0  0  0
    3.7195   -1.2072   27.5162 H   0  0  0  0  0  0  0  0  0  0  0  0
    1.7787   -1.5439   26.0086 H   0  0  0  0  0  0  0  0  0  0  0  0
    5.2805   -3.0702   27.9654 H   0  0  0  0  0  0  0  0  0  0  0  0
    2.9522   -5.6252   25.3905 H   0  0  0  0  0  0  0  0  0  0  0  0
    7.9745   -4.1058   23.2934 H   0  0  0  0  0  0  0  0  0  0  0  0
    8.2955   -5.7501   23.8422 H   0  0  0  0  0  0  0  0  0  0  0  0
    4.7369   -6.5414   22.3951 H   0  0  0  0  0  0  0  0  0  0  0  0
    4.6177   -5.0326   23.3080 H   0  0  0  0  0  0  0  0  0  0  0  0
    7.5543   -4.4067   25.7684 H   0  0  0  0  0  0  0  0  0  0  0  0
    6.0996   -3.8999   24.8792 H   0  0  0  0  0  0  0  0  0  0  0  0
    4.3677   -6.9745   24.8146 H   0  0  0  0  0  0  0  0  0  0  0  0
    5.9142   -7.6644   24.2703 H   0  0  0  0  0  0  0  0  0  0  0  0
    8.8870   -5.2542   21.6835 H   0  0  0  0  0  0  0  0  0  0  0  0
    8.4250   -5.1790   19.9477 H   0  0  0  0  0  0  0  0  0  0  0  0
  1  2  2  0  0  0  0
  1  3  1  0  0  0  0
  2  5  1  0  0  0  0
  3  6  2  0  0  0  0
  4  5  2  0  0  0  0
  4  6  1  0  0  0  0
  5 18  1  0  0  0  0
  6 19  1  0  0  0  0
  7 12  1  0  0  0  0
  7 13  1  0  0  0  0
  7 15  2  0  0  0  0
  8 10  1  0  0  0  0
  8 13  1  0  0  0  0
  9 11  1  0  0  0  0
  9 13  1  0  0  0  0
 10 14  1  0  0  0  0
 11 14  1  0  0  0  0
 12 20  1  0  0  0  0
 14 19  1  0  0  0  0
 16 19  2  0  0  0  0
 17 19  2  0  0  0  0
  1 21  1  0  0  0  0
  2 22  1  0  0  0  0
  3 23  1  0  0  0  0
  4 24  1  0  0  0  0
  8 25  1  0  0  0  0
  8 26  1  0  0  0  0
  9 27  1  0  0  0  0
  9 28  1  0  0  0  0
 10 29  1  0  0  0  0
 10 30  1  0  0  0  0
 11 31  1  0  0  0  0
 11 32  1  0  0  0  0
 12 33  1  0  0  0  0
 12 34  1  0  0  0  0
M  END
> <fragments>
x0691

> <Hybrid2>
-1.737753

$$$$
PCM-0102340
  -OEChem-03282016173D

 38 39  0     0  0  0  0  0  0999 V2000
   11.2797    0.6868   24.3816 C   0  0  0  0  0  0  0  0  0  0  0  0
   12.5242    0.7170   23.7525 C   0  0  0  0  0  0  0  0  0  0  0  0
   10.4177   -0.3895   24.1710 C   0  0  0  0  0  0  0  0  0  0  0  0
   12.0447   -1.4052   22.7020 C   0  0  0  0  0  0  0  0  0  0  0  0
   12.9067   -0.3289   22.9126 C   0  0  0  0  0  0  0  0  0  0  0  0
   10.8002   -1.4354   23.3312 C   0  0  0  0  0  0  0  0  0  0  0  0
    5.9979   -1.8451   19.2160 C   0  0  0  0  0  0  0  0  0  0  0  0
    6.4620   -2.8980   21.4062 C   0  0  0  0  0  0  0  0  0  0  0  0
    7.3504   -0.6358   20.9982 C   0  0  0  0  0  0  0  0  0  0  0  0
    7.8211   -3.3637   21.9076 C   0  0  0  0  0  0  0  0  0  0  0  0
    8.7234   -1.0673   21.4956 C   0  0  0  0  0  0  0  0  0  0  0  0
   14.2382   -0.2965   22.2414 C   0  0  0  0  0  0  0  0  0  0  0  0
    9.8727   -2.5926   23.1042 C   0  0  0  0  0  0  0  0  0  0  0  0
    6.1925   -0.6539   18.3121 C   0  0  0  0  0  0  0  0  0  0  0  0
    6.6008   -1.7813   20.4713 N   0  0  0  0  0  0  0  0  0  0  0  0
    8.5579   -2.1841   22.5018 N   0  3  0  0  0  0  0  0  0  0  0  0
    5.3319   -2.8033   18.8156 O   0  0  0  0  0  0  0  0  0  0  0  0
    7.6706   -0.9477   17.4028 Cl  0  0  0  0  0  0  0  0  0  0  0  0
   10.9820    1.5013   25.0357 H   0  0  0  0  0  0  0  0  0  0  0  0
   13.1895    1.5595   23.9229 H   0  0  0  0  0  0  0  0  0  0  0  0
    9.4496   -0.4043   24.6648 H   0  0  0  0  0  0  0  0  0  0  0  0
   12.3428   -2.2214   22.0481 H   0  0  0  0  0  0  0  0  0  0  0  0
    5.9395   -3.7363   20.9348 H   0  0  0  0  0  0  0  0  0  0  0  0
    5.8377   -2.5539   22.2398 H   0  0  0  0  0  0  0  0  0  0  0  0
    6.7595   -0.2100   21.8183 H   0  0  0  0  0  0  0  0  0  0  0  0
    7.4719    0.1500   20.2508 H   0  0  0  0  0  0  0  0  0  0  0  0
    7.7058   -4.1096   22.7006 H   0  0  0  0  0  0  0  0  0  0  0  0
    8.4383   -3.7745   21.1007 H   0  0  0  0  0  0  0  0  0  0  0  0
    9.3567   -1.4382   20.6819 H   0  0  0  0  0  0  0  0  0  0  0  0
    9.2262   -0.2398   22.0066 H   0  0  0  0  0  0  0  0  0  0  0  0
   14.9952   -0.7797   22.8712 H   0  0  0  0  0  0  0  0  0  0  0  0
   14.2092   -0.8136   21.2736 H   0  0  0  0  0  0  0  0  0  0  0  0
   14.5584    0.7343   22.0413 H   0  0  0  0  0  0  0  0  0  0  0  0
   10.3157   -3.3275   22.4236 H   0  0  0  0  0  0  0  0  0  0  0  0
    9.6422   -3.1051   24.0445 H   0  0  0  0  0  0  0  0  0  0  0  0
    6.3012    0.2358   18.9218 H   0  0  0  0  0  0  0  0  0  0  0  0
    5.3476   -0.5835   17.6368 H   0  0  0  0  0  0  0  0  0  0  0  0
    7.9830   -1.8190   23.2738 H   0  0  0  0  0  0  0  0  0  0  0  0
  1  2  2  0  0  0  0
  1  3  1  0  0  0  0
  2  5  1  0  0  0  0
  3  6  2  0  0  0  0
  4  5  2  0  0  0  0
  4  6  1  0  0  0  0
  5 12  1  0  0  0  0
  6 13  1  0  0  0  0
  7 14  1  0  0  0  0
  7 15  1  0  0  0  0
  7 17  2  0  0  0  0
  8 10  1  0  0  0  0
  8 15  1  0  0  0  0
  9 11  1  0  0  0  0
  9 15  1  0  0  0  0
 10 16  1  0  0  0  0
 11 16  1  0  0  0  0
 13 16  1  0  0  0  0
 14 18  1  0  0  0  0
  1 19  1  0  0  0  0
  2 20  1  0  0  0  0
  3 21  1  0  0  0  0
  4 22  1  0  0  0  0
  8 23  1  0  0  0  0
  8 24  1  0  0  0  0
  9 25  1  0  0  0  0
  9 26  1  0  0  0  0
 10 27  1  0  0  0  0
 10 28  1  0  0  0  0
 11 29  1  0  0  0  0
 11 30  1  0  0  0  0
 12 31  1  0  0  0  0
 12 32  1  0  0  0  0
 12 33  1  0  0  0  0
 13 34  1  0  0  0  0
 13 35  1  0  0  0  0
 14 36  1  0  0  0  0
 14 37  1  0  0  0  0
 16 38  1  0  0  0  0
M  CHG  1  16   1
M  END
> <fragments>
x0692

> <Hybrid2>
-5.727720

$$$$
PCM-0102962
  -OEChem-03282016173D

 36 37  0     0  0  0  0  0  0999 V2000
    5.1980   -3.6736   28.1744 C   0  0  0  0  0  0  0  0  0  0  0  0
    3.3139   -2.5942   27.1149 C   0  0  0  0  0  0  0  0  0  0  0  0
    4.3454   -4.6424   28.7036 C   0  0  0  0  0  0  0  0  0  0  0  0
    2.4613   -3.5631   27.6442 C   0  0  0  0  0  0  0  0  0  0  0  0
    4.6822   -2.6495   27.3800 C   0  0  0  0  0  0  0  0  0  0  0  0
    2.9771   -4.5871   28.4385 C   0  0  0  0  0  0  0  0  0  0  0  0
    5.5788   -1.6295   26.8220 C   0  0  0  0  0  0  0  0  0  0  0  0
    6.7501   -2.3123   21.4714 C   0  0  0  0  0  0  0  0  0  0  0  0
    7.0709   -0.9720   24.8607 C   0  0  0  0  0  0  0  0  0  0  0  0
    5.8890   -3.1346   24.8838 C   0  0  0  0  0  0  0  0  0  0  0  0
    6.5763   -0.7093   23.4404 C   0  0  0  0  0  0  0  0  0  0  0  0
    5.3943   -2.8815   23.4627 C   0  0  0  0  0  0  0  0  0  0  0  0
    2.0660   -5.6240   29.0038 C   0  0  0  0  0  0  0  0  0  0  0  0
    8.0690   -1.7185   21.0457 C   0  0  0  0  0  0  0  0  0  0  0  0
    6.1460   -1.8674   25.5691 N   0  0  0  0  0  0  0  0  0  0  0  0
    6.2962   -1.9747   22.7456 N   0  0  0  0  0  0  0  0  0  0  0  0
    5.7704   -0.6337   27.5182 O   0  0  0  0  0  0  0  0  0  0  0  0
    6.1444   -3.0558   20.6952 O   0  0  0  0  0  0  0  0  0  0  0  0
    9.2647   -2.2518   22.2220 Cl  0  0  0  0  0  0  0  0  0  0  0  0
    6.2626   -3.7257   28.3869 H   0  0  0  0  0  0  0  0  0  0  0  0
    2.9009   -1.8009   26.4974 H   0  0  0  0  0  0  0  0  0  0  0  0
    4.7558   -5.4368   29.3212 H   0  0  0  0  0  0  0  0  0  0  0  0
    1.3965   -3.5126   27.4321 H   0  0  0  0  0  0  0  0  0  0  0  0
    8.0515   -1.4628   24.8410 H   0  0  0  0  0  0  0  0  0  0  0  0
    7.1918   -0.0218   25.3868 H   0  0  0  0  0  0  0  0  0  0  0  0
    5.1523   -3.7278   25.4348 H   0  0  0  0  0  0  0  0  0  0  0  0
    6.8277   -3.7011   24.8715 H   0  0  0  0  0  0  0  0  0  0  0  0
    5.6409   -0.1374   23.4602 H   0  0  0  0  0  0  0  0  0  0  0  0
    7.3137   -0.1071   22.9070 H   0  0  0  0  0  0  0  0  0  0  0  0
    5.2965   -3.8330   22.9305 H   0  0  0  0  0  0  0  0  0  0  0  0
    4.4037   -2.4114   23.4785 H   0  0  0  0  0  0  0  0  0  0  0  0
    1.6937   -5.3102   29.9867 H   0  0  0  0  0  0  0  0  0  0  0  0
    1.2053   -5.7996   28.3455 H   0  0  0  0  0  0  0  0  0  0  0  0
    2.5805   -6.5870   29.1176 H   0  0  0  0  0  0  0  0  0  0  0  0
    7.9889   -0.6375   21.0604 H   0  0  0  0  0  0  0  0  0  0  0  0
    8.3221   -2.0942   20.0609 H   0  0  0  0  0  0  0  0  0  0  0  0
  1  3  2  0  0  0  0
  1  5  1  0  0  0  0
  2  4  1  0  0  0  0
  2  5  2  0  0  0  0
  3  6  1  0  0  0  0
  4  6  2  0  0  0  0
  5  7  1  0  0  0  0
  6 13  1  0  0  0  0
  7 15  1  0  0  0  0
  7 17  2  0  0  0  0
  8 14  1  0  0  0  0
  8 16  1  0  0  0  0
  8 18  2  0  0  0  0
  9 11  1  0  0  0  0
  9 15  1  0  0  0  0
 10 12  1  0  0  0  0
 10 15  1  0  0  0  0
 11 16  1  0  0  0  0
 12 16  1  0  0  0  0
 14 19  1  0  0  0  0
  1 20  1  0  0  0  0
  2 21  1  0  0  0  0
  3 22  1  0  0  0  0
  4 23  1  0  0  0  0
  9 24  1  0  0  0  0
  9 25  1  0  0  0  0
 10 26  1  0  0  0  0
 10 27  1  0  0  0  0
 11 28  1  0  0  0  0
 11 29  1  0  0  0  0
 12 30  1  0  0  0  0
 12 31  1  0  0  0  0
 13 32  1  0  0  0  0
 13 33  1  0  0  0  0
 13 34  1  0  0  0  0
 14 35  1  0  0  0  0
 14 36  1  0  0  0  0
M  END
> <fragments>
x0705

> <Hybrid2>
-1.080877

$$$$
PCM-0102142
  -OEChem-03282016173D

 30 31  0     0  0  0  0  0  0999 V2000
   10.2704   -2.0519   22.1297 C   0  0  0  0  0  0  0  0  0  0  0  0
   11.1659   -1.1001   22.7032 C   0  0  0  0  0  0  0  0  0  0  0  0
    9.1245   -2.2054   22.8801 C   0  0  0  0  0  0  0  0  0  0  0  0
   10.6523   -0.5652   23.8694 C   0  0  0  0  0  0  0  0  0  0  0  0
    8.0042   -3.0559   22.6388 C   0  0  0  0  0  0  0  0  0  0  0  0
    5.8849   -3.9099   19.8330 C   0  0  0  0  0  0  0  0  0  0  0  0
   12.4893   -0.6743   22.1470 C   0  0  0  0  0  0  0  0  0  0  0  0
   11.3472    0.4404   24.7332 C   0  0  0  0  0  0  0  0  0  0  0  0
   13.3387    0.0602   23.1961 C   0  0  0  0  0  0  0  0  0  0  0  0
   12.5101    1.0953   23.9709 C   0  0  0  0  0  0  0  0  0  0  0  0
    4.6687   -4.7856   19.6778 C   0  0  0  0  0  0  0  0  0  0  0  0
    7.2841   -2.8710   21.4427 N   0  0  0  0  0  0  0  0  0  0  0  0
    6.1858   -3.6441   21.1541 N   0  0  0  0  0  0  0  0  0  0  0  0
    7.6520   -3.9361   23.4663 O   0  0  0  0  0  0  0  0  0  0  0  0
    6.5250   -3.5088   18.8625 O   0  0  0  0  0  0  0  0  0  0  0  0
    9.1265   -1.2052   24.2702 S   0  0  0  0  0  0  0  0  0  0  0  0
    5.1639   -6.2611   18.8335 Cl  0  0  0  0  0  0  0  0  0  0  0  0
   10.4599   -2.5939   21.2112 H   0  0  0  0  0  0  0  0  0  0  0  0
   13.0420   -1.5433   21.7719 H   0  0  0  0  0  0  0  0  0  0  0  0
   12.3096   -0.0076   21.2946 H   0  0  0  0  0  0  0  0  0  0  0  0
   10.6523    1.2165   25.0730 H   0  0  0  0  0  0  0  0  0  0  0  0
   11.7389   -0.0672   25.6234 H   0  0  0  0  0  0  0  0  0  0  0  0
   13.7568   -0.6664   23.9049 H   0  0  0  0  0  0  0  0  0  0  0  0
   14.1856    0.5507   22.7029 H   0  0  0  0  0  0  0  0  0  0  0  0
   12.1144    1.8371   23.2654 H   0  0  0  0  0  0  0  0  0  0  0  0
   13.1509    1.6358   24.6767 H   0  0  0  0  0  0  0  0  0  0  0  0
    4.2286   -5.0636   20.6390 H   0  0  0  0  0  0  0  0  0  0  0  0
    3.9182   -4.2634   19.0780 H   0  0  0  0  0  0  0  0  0  0  0  0
    7.5127   -2.1483   20.7690 H   0  0  0  0  0  0  0  0  0  0  0  0
    5.6412   -3.9771   21.9428 H   0  0  0  0  0  0  0  0  0  0  0  0
  1  2  1  0  0  0  0
  1  3  2  0  0  0  0
  2  4  2  0  0  0  0
  2  7  1  0  0  0  0
  3  5  1  0  0  0  0
  3 16  1  0  0  0  0
  4  8  1  0  0  0  0
  4 16  1  0  0  0  0
  5 12  1  0  0  0  0
  5 14  2  0  0  0  0
  6 11  1  0  0  0  0
  6 13  1  0  0  0  0
  6 15  2  0  0  0  0
  7  9  1  0  0  0  0
  8 10  1  0  0  0  0
  9 10  1  0  0  0  0
 11 17  1  0  0  0  0
 12 13  1  0  0  0  0
  1 18  1  0  0  0  0
  7 19  1  0  0  0  0
  7 20  1  0  0  0  0
  8 21  1  0  0  0  0
  8 22  1  0  0  0  0
  9 23  1  0  0  0  0
  9 24  1  0  0  0  0
 10 25  1  0  0  0  0
 10 26  1  0  0  0  0
 11 27  1  0  0  0  0
 11 28  1  0  0  0  0
 12 29  1  0  0  0  0
 13 30  1  0  0  0  0
M  END
> <fragments>
x0708

> <Hybrid2>
-2.875404

$$$$
PCM-0102759
  -OEChem-03282016173D

 37 38  0     0  0  0  0  0  0999 V2000
    2.7069   -4.0140   27.1822 C   0  0  0  0  0  0  0  0  0  0  0  0
    4.2693   -2.2394   26.6850 C   0  0  0  0  0  0  0  0  0  0  0  0
    3.7432   -4.9452   27.1149 C   0  0  0  0  0  0  0  0  0  0  0  0
    5.3056   -3.1706   26.6177 C   0  0  0  0  0  0  0  0  0  0  0  0
    2.9700   -2.6610   26.9673 C   0  0  0  0  0  0  0  0  0  0  0  0
    5.0425   -4.5235   26.8327 C   0  0  0  0  0  0  0  0  0  0  0  0
    6.1401   -3.6384   21.3058 C   0  0  0  0  0  0  0  0  0  0  0  0
    7.0578   -3.6557   23.6632 C   0  0  0  0  0  0  0  0  0  0  0  0
    5.9011   -5.6468   22.7220 C   0  0  0  0  0  0  0  0  0  0  0  0
    7.6850   -4.6908   24.5877 C   0  0  0  0  0  0  0  0  0  0  0  0
    5.5100   -5.8915   24.1727 C   0  0  0  0  0  0  0  0  0  0  0  0
    1.8621   -1.6652   27.0384 C   0  0  0  0  0  0  0  0  0  0  0  0
    6.6431   -2.2208   21.1879 C   0  0  0  0  0  0  0  0  0  0  0  0
    6.3731   -4.2763   22.5242 N   0  0  0  0  0  0  0  0  0  0  0  0
    6.6745   -5.6720   25.0746 N   0  0  0  0  0  0  0  0  0  0  0  0
    5.5641   -4.1625   20.3495 O   0  0  0  0  0  0  0  0  0  0  0  0
    7.4903   -5.1502   27.4565 O   0  0  0  0  0  0  0  0  0  0  0  0
    5.8137   -6.9969   27.1009 O   0  0  0  0  0  0  0  0  0  0  0  0
    6.3545   -5.7016   26.7496 S   0  0  0  0  0  0  0  0  0  0  0  0
    8.2995   -2.3211   20.6011 Cl  0  0  0  0  0  0  0  0  0  0  0  0
    1.6978   -4.3518   27.4023 H   0  0  0  0  0  0  0  0  0  0  0  0
    4.4835   -1.1874   26.5158 H   0  0  0  0  0  0  0  0  0  0  0  0
    3.5273   -5.9969   27.2834 H   0  0  0  0  0  0  0  0  0  0  0  0
    6.3141   -2.8313   26.3967 H   0  0  0  0  0  0  0  0  0  0  0  0
    6.2984   -3.0682   24.2056 H   0  0  0  0  0  0  0  0  0  0  0  0
    7.8285   -2.9443   23.3387 H   0  0  0  0  0  0  0  0  0  0  0  0
    6.6643   -6.3714   22.4145 H   0  0  0  0  0  0  0  0  0  0  0  0
    5.0344   -5.7859   22.0612 H   0  0  0  0  0  0  0  0  0  0  0  0
    8.5036   -5.2259   24.0718 H   0  0  0  0  0  0  0  0  0  0  0  0
    8.1304   -4.1706   25.4541 H   0  0  0  0  0  0  0  0  0  0  0  0
    4.7022   -5.1944   24.4461 H   0  0  0  0  0  0  0  0  0  0  0  0
    5.1251   -6.9163   24.3039 H   0  0  0  0  0  0  0  0  0  0  0  0
    1.7555   -1.2849   28.0617 H   0  0  0  0  0  0  0  0  0  0  0  0
    2.0467   -0.8152   26.3688 H   0  0  0  0  0  0  0  0  0  0  0  0
    0.9064   -2.1097   26.7311 H   0  0  0  0  0  0  0  0  0  0  0  0
    6.6230   -1.7580   22.1680 H   0  0  0  0  0  0  0  0  0  0  0  0
    6.0266   -1.6874   20.4735 H   0  0  0  0  0  0  0  0  0  0  0  0
  1  3  2  0  0  0  0
  1  5  1  0  0  0  0
  2  4  1  0  0  0  0
  2  5  2  0  0  0  0
  3  6  1  0  0  0  0
  4  6  2  0  0  0  0
  5 12  1  0  0  0  0
  6 19  1  0  0  0  0
  7 13  1  0  0  0  0
  7 14  1  0  0  0  0
  7 16  2  0  0  0  0
  8 10  1  0  0  0  0
  8 14  1  0  0  0  0
  9 11  1  0  0  0  0
  9 14  1  0  0  0  0
 10 15  1  0  0  0  0
 11 15  1  0  0  0  0
 13 20  1  0  0  0  0
 15 19  1  0  0  0  0
 17 19  2  0  0  0  0
 18 19  2  0  0  0  0
  1 21  1  0  0  0  0
  2 22  1  0  0  0  0
  3 23  1  0  0  0  0
  4 24  1  0  0  0  0
  8 25  1  0  0  0  0
  8 26  1  0  0  0  0
  9 27  1  0  0  0  0
  9 28  1  0  0  0  0
 10 29  1  0  0  0  0
 10 30  1  0  0  0  0
 11 31  1  0  0  0  0
 11 32  1  0  0  0  0
 12 33  1  0  0  0  0
 12 34  1  0  0  0  0
 12 35  1  0  0  0  0
 13 36  1  0  0  0  0
 13 37  1  0  0  0  0
M  END
> <fragments>
x0731

> <Hybrid2>
-2.087135

$$$$
PCM-0103016
  -OEChem-03282016173D

 33 34  0     0  0  0  0  0  0999 V2000
   10.3583   -5.4864   25.6566 C   0  0  0  0  0  0  0  0  0  0  0  0
    9.5620   -5.7591   26.7688 C   0  0  0  0  0  0  0  0  0  0  0  0
    9.7992   -4.8852   24.5290 C   0  0  0  0  0  0  0  0  0  0  0  0
    8.2065   -5.4306   26.7534 C   0  0  0  0  0  0  0  0  0  0  0  0
    8.4436   -4.5567   24.5135 C   0  0  0  0  0  0  0  0  0  0  0  0
    7.6472   -4.8294   25.6258 C   0  0  0  0  0  0  0  0  0  0  0  0
    6.3950   -2.2491   19.7477 C   0  0  0  0  0  0  0  0  0  0  0  0
    7.8878   -2.4983   23.2291 C   0  0  0  0  0  0  0  0  0  0  0  0
    7.3158   -4.7679   22.3102 C   0  0  0  0  0  0  0  0  0  0  0  0
    7.9241   -2.1015   21.7531 C   0  0  0  0  0  0  0  0  0  0  0  0
    6.2867   -3.9583   21.5244 C   0  0  0  0  0  0  0  0  0  0  0  0
    7.0448   -0.9845   19.2417 C   0  0  0  0  0  0  0  0  0  0  0  0
    7.9095   -3.9558   23.3761 N   0  0  0  0  0  0  0  0  0  0  0  0
    6.8626   -2.7364   20.9687 N   0  0  0  0  0  0  0  0  0  0  0  0
    6.2617   -4.5046   25.6370 N   0  0  0  0  0  0  0  0  0  0  0  0
    5.5015   -2.7824   19.0860 O   0  0  0  0  0  0  0  0  0  0  0  0
    5.5868   -4.7687   26.6594 O   0  0  0  0  0  0  0  0  0  0  0  0
    5.7589   -3.9641   24.6242 O   0  0  0  0  0  0  0  0  0  0  0  0
    6.0818    0.3550   19.8540 Cl  0  0  0  0  0  0  0  0  0  0  0  0
   11.4137   -5.7424   25.6686 H   0  0  0  0  0  0  0  0  0  0  0  0
    9.9975   -6.2276   27.6467 H   0  0  0  0  0  0  0  0  0  0  0  0
   10.4299   -4.6771   23.6684 H   0  0  0  0  0  0  0  0  0  0  0  0
    7.5983   -5.6495   27.6276 H   0  0  0  0  0  0  0  0  0  0  0  0
    8.7454   -2.0583   23.7538 H   0  0  0  0  0  0  0  0  0  0  0  0
    6.9773   -2.0916   23.6855 H   0  0  0  0  0  0  0  0  0  0  0  0
    6.8438   -5.6522   22.7551 H   0  0  0  0  0  0  0  0  0  0  0  0
    8.0867   -5.1285   21.6176 H   0  0  0  0  0  0  0  0  0  0  0  0
    7.8003   -1.0168   21.6474 H   0  0  0  0  0  0  0  0  0  0  0  0
    8.9002   -2.3616   21.3327 H   0  0  0  0  0  0  0  0  0  0  0  0
    5.8909   -4.5446   20.6862 H   0  0  0  0  0  0  0  0  0  0  0  0
    5.4386   -3.7086   22.1711 H   0  0  0  0  0  0  0  0  0  0  0  0
    7.0276   -0.9914   18.1582 H   0  0  0  0  0  0  0  0  0  0  0  0
    8.0536   -0.9284   19.6332 H   0  0  0  0  0  0  0  0  0  0  0  0
  1  2  1  0  0  0  0
  1  3  2  0  0  0  0
  2  4  2  0  0  0  0
  3  5  1  0  0  0  0
  4  6  1  0  0  0  0
  5  6  2  0  0  0  0
  5 13  1  0  0  0  0
  6 15  1  0  0  0  0
  7 12  1  0  0  0  0
  7 14  1  0  0  0  0
  7 16  2  0  0  0  0
  8 10  1  0  0  0  0
  8 13  1  0  0  0  0
  9 11  1  0  0  0  0
  9 13  1  0  0  0  0
 10 14  1  0  0  0  0
 11 14  1  0  0  0  0
 12 19  1  0  0  0  0
 15 17  2  0  0  0  0
 15 18  2  0  0  0  0
  1 20  1  0  0  0  0
  2 21  1  0  0  0  0
  3 22  1  0  0  0  0
  4 23  1  0  0  0  0
  8 24  1  0  0  0  0
  8 25  1  0  0  0  0
  9 26  1  0  0  0  0
  9 27  1  0  0  0  0
 10 28  1  0  0  0  0
 10 29  1  0  0  0  0
 11 30  1  0  0  0  0
 11 31  1  0  0  0  0
 12 32  1  0  0  0  0
 12 33  1  0  0  0  0
M  END
> <fragments>
x0734

> <Hybrid2>
-4.101091

$$$$
PCM-0102248
  -OEChem-03282016173D

 30 31  0     0  0  0  0  0  0999 V2000
   10.5835   -0.3261   26.1899 C   0  0  0  0  0  0  0  0  0  0  0  0
    9.8200   -1.5068   26.0283 C   0  0  0  0  0  0  0  0  0  0  0  0
    9.9617    0.6377   25.4306 C   0  0  0  0  0  0  0  0  0  0  0  0
    8.7860   -1.1804   25.1820 C   0  0  0  0  0  0  0  0  0  0  0  0
    7.6762   -1.9788   24.6469 C   0  0  0  0  0  0  0  0  0  0  0  0
    6.3903   -1.7590   19.2836 C   0  0  0  0  0  0  0  0  0  0  0  0
    8.4918   -1.5390   22.2705 C   0  0  0  0  0  0  0  0  0  0  0  0
    6.5200   -2.9566   22.6910 C   0  0  0  0  0  0  0  0  0  0  0  0
    7.7138   -0.7589   21.2136 C   0  0  0  0  0  0  0  0  0  0  0  0
    5.7371   -2.1847   21.6329 C   0  0  0  0  0  0  0  0  0  0  0  0
    6.7581   -0.6103   18.3788 C   0  0  0  0  0  0  0  0  0  0  0  0
    7.5735   -2.1165   23.2618 N   0  0  0  0  0  0  0  0  0  0  0  0
    6.6391   -1.5856   20.6443 N   0  0  0  0  0  0  0  0  0  0  0  0
    6.9060   -2.4634   25.4745 O   0  0  0  0  0  0  0  0  0  0  0  0
    5.8997   -2.7796   18.7940 O   0  0  0  0  0  0  0  0  0  0  0  0
    8.8651    0.1251   24.8131 O   0  0  0  0  0  0  0  0  0  0  0  0
    5.7893    0.7663   18.8932 Cl  0  0  0  0  0  0  0  0  0  0  0  0
   11.4757   -0.1942   26.7847 H   0  0  0  0  0  0  0  0  0  0  0  0
   10.0043   -2.4736   26.4749 H   0  0  0  0  0  0  0  0  0  0  0  0
   10.1640    1.6805   25.2342 H   0  0  0  0  0  0  0  0  0  0  0  0
    9.0395   -2.3695   21.8093 H   0  0  0  0  0  0  0  0  0  0  0  0
    9.2296   -0.8819   22.7373 H   0  0  0  0  0  0  0  0  0  0  0  0
    5.8386   -3.3112   23.4706 H   0  0  0  0  0  0  0  0  0  0  0  0
    7.0015   -3.8366   22.2484 H   0  0  0  0  0  0  0  0  0  0  0  0
    7.2414    0.1245   21.6597 H   0  0  0  0  0  0  0  0  0  0  0  0
    8.4043   -0.4052   20.4461 H   0  0  0  0  0  0  0  0  0  0  0  0
    5.0171   -2.8509   21.1474 H   0  0  0  0  0  0  0  0  0  0  0  0
    5.1689   -1.3681   22.0942 H   0  0  0  0  0  0  0  0  0  0  0  0
    6.5140   -0.8759   17.3566 H   0  0  0  0  0  0  0  0  0  0  0  0
    7.8124   -0.3902   18.5012 H   0  0  0  0  0  0  0  0  0  0  0  0
  1  2  1  0  0  0  0
  1  3  2  0  0  0  0
  2  4  2  0  0  0  0
  3 16  1  0  0  0  0
  4  5  1  0  0  0  0
  4 16  1  0  0  0  0
  5 12  1  0  0  0  0
  5 14  2  0  0  0  0
  6 11  1  0  0  0  0
  6 13  1  0  0  0  0
  6 15  2  0  0  0  0
  7  9  1  0  0  0  0
  7 12  1  0  0  0  0
  8 10  1  0  0  0  0
  8 12  1  0  0  0  0
  9 13  1  0  0  0  0
 10 13  1  0  0  0  0
 11 17  1  0  0  0  0
  1 18  1  0  0  0  0
  2 19  1  0  0  0  0
  3 20  1  0  0  0  0
  7 21  1  0  0  0  0
  7 22  1  0  0  0  0
  8 23  1  0  0  0  0
  8 24  1  0  0  0  0
  9 25  1  0  0  0  0
  9 26  1  0  0  0  0
 10 27  1  0  0  0  0
 10 28  1  0  0  0  0
 11 29  1  0  0  0  0
 11 30  1  0  0  0  0
M  END
> <fragments>
x0736

> <Hybrid2>
-3.104951

$$$$
PCM-0102425
  -OEChem-03282016173D

 34 36  0     1  0  0  0  0  0999 V2000
   13.8215   -0.7509   25.2486 C   0  0  0  0  0  0  0  0  0  0  0  0
   14.2884   -1.9114   25.8557 C   0  0  0  0  0  0  0  0  0  0  0  0
   12.5674   -0.7271   24.6315 C   0  0  0  0  0  0  0  0  0  0  0  0
   13.5174   -3.0766   25.8628 C   0  0  0  0  0  0  0  0  0  0  0  0
   11.7681   -1.8907   24.6243 C   0  0  0  0  0  0  0  0  0  0  0  0
   12.2588   -3.0456   25.2410 C   0  0  0  0  0  0  0  0  0  0  0  0
   10.0633   -3.2363   24.2367 C   0  0  0  0  0  0  0  0  0  0  0  0
    6.3044   -3.3545   21.0651 C   0  0  0  0  0  0  0  0  0  0  0  0
    7.1020   -5.6820   23.6504 C   0  0  0  0  0  0  0  0  0  0  0  0
    8.4559   -5.1966   24.1712 C   0  0  0  0  0  0  0  0  0  0  0  0
    6.9834   -5.4760   22.1429 C   0  0  0  0  0  0  0  0  0  0  0  0
    8.5596   -3.5761   22.2240 C   0  0  0  0  0  0  0  0  0  0  0  0
    8.7154   -3.7392   23.7461 C   0  0  2  0  0  0  0  0  0  0  0  0
    6.2629   -1.8678   21.3131 C   0  0  0  0  0  0  0  0  0  0  0  0
   10.5098   -2.0157   24.0536 N   0  0  0  0  0  0  0  0  0  0  0  0
    7.2514   -4.0818   21.7849 N   0  0  0  0  0  0  0  0  0  0  0  0
    5.5162   -3.8529   20.2573 O   0  0  0  0  0  0  0  0  0  0  0  0
   11.0924   -4.3060   25.0868 S   0  0  0  0  0  0  0  0  0  0  0  0
    7.3982   -1.1368   20.1840 Cl  0  0  0  0  0  0  0  0  0  0  0  0
   14.4353    0.1456   25.2530 H   0  0  0  0  0  0  0  0  0  0  0  0
   15.2657   -1.9141   26.3313 H   0  0  0  0  0  0  0  0  0  0  0  0
   12.2122    0.1855   24.1612 H   0  0  0  0  0  0  0  0  0  0  0  0
   13.8881   -3.9786   26.3399 H   0  0  0  0  0  0  0  0  0  0  0  0
    6.9768   -6.7442   23.8890 H   0  0  0  0  0  0  0  0  0  0  0  0
    6.2952   -5.1411   24.1601 H   0  0  0  0  0  0  0  0  0  0  0  0
    8.4822   -5.2847   25.2643 H   0  0  0  0  0  0  0  0  0  0  0  0
    9.2485   -5.8508   23.7840 H   0  0  0  0  0  0  0  0  0  0  0  0
    7.7141   -6.0974   21.6116 H   0  0  0  0  0  0  0  0  0  0  0  0
    5.9880   -5.7818   21.8060 H   0  0  0  0  0  0  0  0  0  0  0  0
    8.7059   -2.5300   21.9447 H   0  0  0  0  0  0  0  0  0  0  0  0
    9.3232   -4.1544   21.6875 H   0  0  0  0  0  0  0  0  0  0  0  0
    7.9462   -3.0961   24.2384 H   0  0  0  0  0  0  0  0  0  0  0  0
    6.5747   -1.6727   22.3329 H   0  0  0  0  0  0  0  0  0  0  0  0
    5.2596   -1.5068   21.1184 H   0  0  0  0  0  0  0  0  0  0  0  0
  1  2  1  0  0  0  0
  1  3  2  0  0  0  0
  2  4  2  0  0  0  0
  3  5  1  0  0  0  0
  4  6  1  0  0  0  0
  5  6  2  0  0  0  0
  5 15  1  0  0  0  0
  6 18  1  0  0  0  0
  7 13  1  0  0  0  0
  7 15  2  0  0  0  0
  7 18  1  0  0  0  0
  8 14  1  0  0  0  0
  8 16  1  0  0  0  0
  8 17  2  0  0  0  0
  9 10  1  0  0  0  0
  9 11  1  0  0  0  0
 10 13  1  0  0  0  0
 11 16  1  0  0  0  0
 12 13  1  0  0  0  0
 12 16  1  0  0  0  0
 14 19  1  0  0  0  0
  1 20  1  0  0  0  0
  2 21  1  0  0  0  0
  3 22  1  0  0  0  0
  4 23  1  0  0  0  0
  9 24  1  0  0  0  0
  9 25  1  0  0  0  0
 10 26  1  0  0  0  0
 10 27  1  0  0  0  0
 11 28  1  0  0  0  0
 11 29  1  0  0  0  0
 12 30  1  0  0  0  0
 12 31  1  0  0  0  0
 13 32  1  0  0  0  0
 14 33  1  0  0  0  0
 14 34  1  0  0  0  0
M  END
> <fragments>
x0749

> <Hybrid2>
-10.101554

$$$$
PCM-0102578
  -OEChem-03282016173D

 25 26  0     0  0  0  0  0  0999 V2000
    6.4815   -5.3182   24.7205 C   0  0  0  0  0  0  0  0  0  0  0  0
    5.5334   -5.3457   25.7460 C   0  0  0  0  0  0  0  0  0  0  0  0
    4.7966   -4.5823   23.1244 C   0  0  0  0  0  0  0  0  0  0  0  0
    6.1153   -4.9385   23.4172 C   0  0  0  0  0  0  0  0  0  0  0  0
    4.2383   -4.9894   25.4305 C   0  0  0  0  0  0  0  0  0  0  0  0
    3.8798   -4.6178   24.1549 C   0  0  0  0  0  0  0  0  0  0  0  0
    6.5513   -3.1951   20.6577 C   0  0  0  0  0  0  0  0  0  0  0  0
    2.1255   -4.5228   25.4179 C   0  0  0  0  0  0  0  0  0  0  0  0
    7.1453   -4.9176   22.3376 C   0  0  0  0  0  0  0  0  0  0  0  0
    6.8637   -1.7839   20.2297 C   0  0  0  0  0  0  0  0  0  0  0  0
    7.2962   -3.6106   21.7509 N   0  0  0  0  0  0  0  0  0  0  0  0
    5.7030   -3.8747   20.0825 O   0  0  0  0  0  0  0  0  0  0  0  0
    3.1865   -4.9562   26.2934 O   0  0  0  0  0  0  0  0  0  0  0  0
    2.5587   -4.3056   24.0593 O   0  0  0  0  0  0  0  0  0  0  0  0
    7.3613   -0.8767   21.6665 Cl  0  0  0  0  0  0  0  0  0  0  0  0
    7.5105   -5.5926   24.9395 H   0  0  0  0  0  0  0  0  0  0  0  0
    5.8119   -5.6368   26.7523 H   0  0  0  0  0  0  0  0  0  0  0  0
    4.5010   -4.2863   22.1235 H   0  0  0  0  0  0  0  0  0  0  0  0
    1.3385   -5.2857   25.4169 H   0  0  0  0  0  0  0  0  0  0  0  0
    1.7093   -3.5869   25.8073 H   0  0  0  0  0  0  0  0  0  0  0  0
    8.1280   -5.2224   22.7231 H   0  0  0  0  0  0  0  0  0  0  0  0
    6.8921   -5.6140   21.5268 H   0  0  0  0  0  0  0  0  0  0  0  0
    7.6672   -1.7374   19.4905 H   0  0  0  0  0  0  0  0  0  0  0  0
    5.9648   -1.3243   19.8095 H   0  0  0  0  0  0  0  0  0  0  0  0
    7.9745   -2.9685   22.1537 H   0  0  0  0  0  0  0  0  0  0  0  0
  1  2  2  0  0  0  0
  1  4  1  0  0  0  0
  2  5  1  0  0  0  0
  3  4  2  0  0  0  0
  3  6  1  0  0  0  0
  4  9  1  0  0  0  0
  5  6  2  0  0  0  0
  5 13  1  0  0  0  0
  6 14  1  0  0  0  0
  7 10  1  0  0  0  0
  7 11  1  0  0  0  0
  7 12  2  0  0  0  0
  8 13  1  0  0  0  0
  8 14  1  0  0  0  0
  9 11  1  0  0  0  0
 10 15  1  0  0  0  0
  1 16  1  0  0  0  0
  2 17  1  0  0  0  0
  3 18  1  0  0  0  0
  8 19  1  0  0  0  0
  8 20  1  0  0  0  0
  9 21  1  0  0  0  0
  9 22  1  0  0  0  0
 10 23  1  0  0  0  0
 10 24  1  0  0  0  0
 11 25  1  0  0  0  0
M  END
> <fragments>
x0752

> <Hybrid2>
-1.739265

$$$$
PCM-0102201
  -OEChem-03282016173D

 34 35  0     0  0  0  0  0  0999 V2000
    4.2704   -1.2750   26.9540 C   0  0  0  0  0  0  0  0  0  0  0  0
    3.2970   -2.1402   26.4546 C   0  0  0  0  0  0  0  0  0  0  0  0
    5.5408   -1.7597   27.2655 C   0  0  0  0  0  0  0  0  0  0  0  0
    3.5938   -3.4901   26.2668 C   0  0  0  0  0  0  0  0  0  0  0  0
    5.8376   -3.1097   27.0777 C   0  0  0  0  0  0  0  0  0  0  0  0
    4.8641   -3.9749   26.5783 C   0  0  0  0  0  0  0  0  0  0  0  0
    6.1271   -3.4261   21.0436 C   0  0  0  0  0  0  0  0  0  0  0  0
    6.6640   -3.6477   23.5058 C   0  0  0  0  0  0  0  0  0  0  0  0
    5.4177   -5.4305   22.2988 C   0  0  0  0  0  0  0  0  0  0  0  0
    7.0039   -4.7892   24.4551 C   0  0  0  0  0  0  0  0  0  0  0  0
    4.7815   -5.6692   23.6610 C   0  0  0  0  0  0  0  0  0  0  0  0
    6.8206   -2.0866   21.0776 C   0  0  0  0  0  0  0  0  0  0  0  0
    6.0870   -4.1308   22.2468 N   0  0  0  0  0  0  0  0  0  0  0  0
    5.8130   -5.6403   24.7347 N   0  0  0  0  0  0  0  0  0  0  0  0
    5.6412   -3.8346   19.9862 O   0  0  0  0  0  0  0  0  0  0  0  0
    6.3349   -6.0229   27.2231 O   0  0  0  0  0  0  0  0  0  0  0  0
    3.9963   -6.4223   26.3750 O   0  0  0  0  0  0  0  0  0  0  0  0
    2.6497   -4.3118   25.7869 F   0  0  0  0  0  0  0  0  0  0  0  0
    7.0621   -3.5634   27.3800 F   0  0  0  0  0  0  0  0  0  0  0  0
    5.2398   -5.6832   26.3405 S   0  0  0  0  0  0  0  0  0  0  0  0
    6.0613   -1.0946   19.8378 Cl  0  0  0  0  0  0  0  0  0  0  0  0
    4.0385   -0.2240   27.0997 H   0  0  0  0  0  0  0  0  0  0  0  0
    2.3075   -1.7638   26.2126 H   0  0  0  0  0  0  0  0  0  0  0  0
    6.2985   -1.0859   27.6540 H   0  0  0  0  0  0  0  0  0  0  0  0
    5.9127   -2.9815   23.9617 H   0  0  0  0  0  0  0  0  0  0  0  0
    7.5603   -3.0368   23.3369 H   0  0  0  0  0  0  0  0  0  0  0  0
    6.1192   -6.2410   22.0681 H   0  0  0  0  0  0  0  0  0  0  0  0
    4.6516   -5.4284   21.5114 H   0  0  0  0  0  0  0  0  0  0  0  0
    7.8159   -5.4123   24.0369 H   0  0  0  0  0  0  0  0  0  0  0  0
    7.3751   -4.3638   25.4044 H   0  0  0  0  0  0  0  0  0  0  0  0
    4.0380   -4.8787   23.8501 H   0  0  0  0  0  0  0  0  0  0  0  0
    4.2522   -6.6362   23.6788 H   0  0  0  0  0  0  0  0  0  0  0  0
    7.8708   -2.2286   20.8492 H   0  0  0  0  0  0  0  0  0  0  0  0
    6.6736   -1.6394   22.0540 H   0  0  0  0  0  0  0  0  0  0  0  0
  1  2  2  0  0  0  0
  1  3  1  0  0  0  0
  2  4  1  0  0  0  0
  3  5  2  0  0  0  0
  4  6  2  0  0  0  0
  4 18  1  0  0  0  0
  5  6  1  0  0  0  0
  5 19  1  0  0  0  0
  6 20  1  0  0  0  0
  7 12  1  0  0  0  0
  7 13  1  0  0  0  0
  7 15  2  0  0  0  0
  8 10  1  0  0  0  0
  8 13  1  0  0  0  0
  9 11  1  0  0  0  0
  9 13  1  0  0  0  0
 10 14  1  0  0  0  0
 11 14  1  0  0  0  0
 12 21  1  0  0  0  0
 14 20  1  0  0  0  0
 16 20  2  0  0  0  0
 17 20  2  0  0  0  0
  1 22  1  0  0  0  0
  2 23  1  0  0  0  0
  3 24  1  0  0  0  0
  8 25  1  0  0  0  0
  8 26  1  0  0  0  0
  9 27  1  0  0  0  0
  9 28  1  0  0  0  0
 10 29  1  0  0  0  0
 10 30  1  0  0  0  0
 11 31  1  0  0  0  0
 11 32  1  0  0  0  0
 12 33  1  0  0  0  0
 12 34  1  0  0  0  0
M  END
> <fragments>
x0755

> <Hybrid2>
-1.588711

$$$$
PCM-0102615
  -OEChem-03282016173D

 30 31  0     1  0  0  0  0  0999 V2000
   11.4570   -1.4133   22.1829 C   0  0  0  0  0  0  0  0  0  0  0  0
   10.2727   -0.5929   24.1223 C   0  0  0  0  0  0  0  0  0  0  0  0
   12.5835   -0.6833   22.5620 C   0  0  0  0  0  0  0  0  0  0  0  0
   11.3992    0.1370   24.5015 C   0  0  0  0  0  0  0  0  0  0  0  0
   10.3016   -1.3681   22.9631 C   0  0  0  0  0  0  0  0  0  0  0  0
   12.5546    0.0918   23.7213 C   0  0  0  0  0  0  0  0  0  0  0  0
    6.3114   -2.1789   20.1168 C   0  0  0  0  0  0  0  0  0  0  0  0
    6.2586   -2.6133   22.5497 C   0  0  0  0  0  0  0  0  0  0  0  0
    8.1602   -1.3353   21.6435 C   0  0  0  0  0  0  0  0  0  0  0  0
    7.2457   -3.3844   23.4131 C   0  0  0  0  0  0  0  0  0  0  0  0
    9.0795   -2.1603   22.5528 C   0  0  2  0  0  0  0  0  0  0  0  0
    6.6225   -1.0908   19.1203 C   0  0  0  0  0  0  0  0  0  0  0  0
    6.9233   -2.0736   21.3646 N   0  0  0  0  0  0  0  0  0  0  0  0
    5.5513   -3.0953   19.7938 O   0  0  0  0  0  0  0  0  0  0  0  0
    8.3746   -2.5700   23.7326 O   0  0  0  0  0  0  0  0  0  0  0  0
   13.6372    0.7908   24.0870 F   0  0  0  0  0  0  0  0  0  0  0  0
    6.0583    0.4181   19.8293 Cl  0  0  0  0  0  0  0  0  0  0  0  0
   11.4888   -2.0138   21.2776 H   0  0  0  0  0  0  0  0  0  0  0  0
    9.3769   -0.5518   24.7366 H   0  0  0  0  0  0  0  0  0  0  0  0
   13.4832   -0.7189   21.9552 H   0  0  0  0  0  0  0  0  0  0  0  0
   11.3769    0.7410   25.4037 H   0  0  0  0  0  0  0  0  0  0  0  0
    5.4128   -3.2503   22.2743 H   0  0  0  0  0  0  0  0  0  0  0  0
    5.8670   -1.7517   23.1033 H   0  0  0  0  0  0  0  0  0  0  0  0
    7.8521   -0.4076   22.1428 H   0  0  0  0  0  0  0  0  0  0  0  0
    8.6866   -1.0529   20.7287 H   0  0  0  0  0  0  0  0  0  0  0  0
    6.7691   -3.6752   24.3546 H   0  0  0  0  0  0  0  0  0  0  0  0
    7.5834   -4.3010   22.9152 H   0  0  0  0  0  0  0  0  0  0  0  0
    9.4375   -3.0645   22.0194 H   0  0  0  0  0  0  0  0  0  0  0  0
    6.0862   -1.2930   18.2001 H   0  0  0  0  0  0  0  0  0  0  0  0
    7.6947   -1.0517   18.9659 H   0  0  0  0  0  0  0  0  0  0  0  0
  1  3  2  0  0  0  0
  1  5  1  0  0  0  0
  2  4  1  0  0  0  0
  2  5  2  0  0  0  0
  3  6  1  0  0  0  0
  4  6  2  0  0  0  0
  5 11  1  0  0  0  0
  6 16  1  0  0  0  0
  7 12  1  0  0  0  0
  7 13  1  0  0  0  0
  7 14  2  0  0  0  0
  8 10  1  0  0  0  0
  8 13  1  0  0  0  0
  9 11  1  0  0  0  0
  9 13  1  0  0  0  0
 10 15  1  0  0  0  0
 11 15  1  0  0  0  0
 12 17  1  0  0  0  0
  1 18  1  0  0  0  0
  2 19  1  0  0  0  0
  3 20  1  0  0  0  0
  4 21  1  0  0  0  0
  8 22  1  0  0  0  0
  8 23  1  0  0  0  0
  9 24  1  0  0  0  0
  9 25  1  0  0  0  0
 10 26  1  0  0  0  0
 10 27  1  0  0  0  0
 11 28  1  0  0  0  0
 12 29  1  0  0  0  0
 12 30  1  0  0  0  0
M  END
> <fragments>
x0759

> <Hybrid2>
-5.831551

$$$$
PCM-0102281
  -OEChem-03282016173D

 34 35  0     0  0  0  0  0  0999 V2000
    2.5204   -2.7229   27.0993 C   0  0  0  0  0  0  0  0  0  0  0  0
    1.8753   -3.9344   26.8512 C   0  0  0  0  0  0  0  0  0  0  0  0
    3.9128   -2.6525   27.0557 C   0  0  0  0  0  0  0  0  0  0  0  0
    2.6225   -5.0756   26.5594 C   0  0  0  0  0  0  0  0  0  0  0  0
    4.6601   -3.7936   26.7639 C   0  0  0  0  0  0  0  0  0  0  0  0
    4.0150   -5.0051   26.5158 C   0  0  0  0  0  0  0  0  0  0  0  0
    6.1740   -2.9503   21.6527 C   0  0  0  0  0  0  0  0  0  0  0  0
    6.6665   -3.9243   23.9348 C   0  0  0  0  0  0  0  0  0  0  0  0
    5.1794   -5.1066   22.3289 C   0  0  0  0  0  0  0  0  0  0  0  0
    6.8355   -5.3215   24.5171 C   0  0  0  0  0  0  0  0  0  0  0  0
    4.5115   -5.6257   23.5946 C   0  0  0  0  0  0  0  0  0  0  0  0
    7.0535   -1.7840   22.0304 C   0  0  0  0  0  0  0  0  0  0  0  0
    6.0294   -3.9506   22.6139 N   0  0  0  0  0  0  0  0  0  0  0  0
    5.5334   -6.0423   24.5945 N   0  0  0  0  0  0  0  0  0  0  0  0
    5.6372   -2.9748   20.5426 O   0  0  0  0  0  0  0  0  0  0  0  0
    6.0709   -6.5029   27.0663 O   0  0  0  0  0  0  0  0  0  0  0  0
    4.0362   -7.5632   26.0254 O   0  0  0  0  0  0  0  0  0  0  0  0
    5.9975   -3.7137   26.7253 F   0  0  0  0  0  0  0  0  0  0  0  0
    4.9556   -6.4523   26.1459 S   0  0  0  0  0  0  0  0  0  0  0  0
    8.6925   -2.2138   21.5539 Cl  0  0  0  0  0  0  0  0  0  0  0  0
    1.9386   -1.8344   27.3264 H   0  0  0  0  0  0  0  0  0  0  0  0
    0.7911   -3.9890   26.8844 H   0  0  0  0  0  0  0  0  0  0  0  0
    4.4153   -1.7093   27.2488 H   0  0  0  0  0  0  0  0  0  0  0  0
    2.1094   -6.0141   26.3677 H   0  0  0  0  0  0  0  0  0  0  0  0
    6.0180   -3.3144   24.5856 H   0  0  0  0  0  0  0  0  0  0  0  0
    7.6421   -3.4216   23.9082 H   0  0  0  0  0  0  0  0  0  0  0  0
    5.7571   -5.9097   21.8563 H   0  0  0  0  0  0  0  0  0  0  0  0
    4.4237   -4.7775   21.6025 H   0  0  0  0  0  0  0  0  0  0  0  0
    7.5502   -5.9096   23.9122 H   0  0  0  0  0  0  0  0  0  0  0  0
    7.2615   -5.2347   25.5323 H   0  0  0  0  0  0  0  0  0  0  0  0
    3.8894   -4.8241   24.0233 H   0  0  0  0  0  0  0  0  0  0  0  0
    3.8482   -6.4755   23.3635 H   0  0  0  0  0  0  0  0  0  0  0  0
    7.0038   -1.6394   23.1036 H   0  0  0  0  0  0  0  0  0  0  0  0
    6.7257   -0.9058   21.4860 H   0  0  0  0  0  0  0  0  0  0  0  0
  1  2  1  0  0  0  0
  1  3  2  0  0  0  0
  2  4  2  0  0  0  0
  3  5  1  0  0  0  0
  4  6  1  0  0  0  0
  5  6  2  0  0  0  0
  5 18  1  0  0  0  0
  6 19  1  0  0  0  0
  7 12  1  0  0  0  0
  7 13  1  0  0  0  0
  7 15  2  0  0  0  0
  8 10  1  0  0  0  0
  8 13  1  0  0  0  0
  9 11  1  0  0  0  0
  9 13  1  0  0  0  0
 10 14  1  0  0  0  0
 11 14  1  0  0  0  0
 12 20  1  0  0  0  0
 14 19  1  0  0  0  0
 16 19  2  0  0  0  0
 17 19  2  0  0  0  0
  1 21  1  0  0  0  0
  2 22  1  0  0  0  0
  3 23  1  0  0  0  0
  4 24  1  0  0  0  0
  8 25  1  0  0  0  0
  8 26  1  0  0  0  0
  9 27  1  0  0  0  0
  9 28  1  0  0  0  0
 10 29  1  0  0  0  0
 10 30  1  0  0  0  0
 11 31  1  0  0  0  0
 11 32  1  0  0  0  0
 12 33  1  0  0  0  0
 12 34  1  0  0  0  0
M  END
> <fragments>
x0769

> <Hybrid2>
-2.620309

$$$$
PCM-0102269
  -OEChem-03282016173D

 35 36  0     0  0  0  0  0  0999 V2000
   11.9450   -2.1591   21.8375 C   0  0  0  0  0  0  0  0  0  0  0  0
   10.8070   -2.6819   22.4517 C   0  0  0  0  0  0  0  0  0  0  0  0
   12.4657   -0.9358   22.2597 C   0  0  0  0  0  0  0  0  0  0  0  0
   10.7102   -0.7582   23.9101 C   0  0  0  0  0  0  0  0  0  0  0  0
   10.1896   -1.9815   23.4879 C   0  0  0  0  0  0  0  0  0  0  0  0
   11.8482   -0.2353   23.2959 C   0  0  0  0  0  0  0  0  0  0  0  0
    5.8865   -1.9410   19.5808 C   0  0  0  0  0  0  0  0  0  0  0  0
    6.3052   -3.3959   21.5376 C   0  0  0  0  0  0  0  0  0  0  0  0
    6.3214   -0.9562   21.8849 C   0  0  0  0  0  0  0  0  0  0  0  0
    7.6216   -3.5323   22.2886 C   0  0  0  0  0  0  0  0  0  0  0  0
    7.6380   -1.0561   22.6434 C   0  0  0  0  0  0  0  0  0  0  0  0
    8.9648   -2.5439   24.1472 C   0  0  0  0  0  0  0  0  0  0  0  0
    5.7745   -0.5371   19.0421 C   0  0  0  0  0  0  0  0  0  0  0  0
    6.1769   -2.0675   20.9384 N   0  0  0  0  0  0  0  0  0  0  0  0
    7.7291   -2.4146   23.3018 N   0  3  0  0  0  0  0  0  0  0  0  0
    5.7229   -2.8951   18.8159 O   0  0  0  0  0  0  0  0  0  0  0  0
   12.4904    1.2744   23.8156 Cl  0  0  0  0  0  0  0  0  0  0  0  0
    7.3929   -0.0588   18.5423 Cl  0  0  0  0  0  0  0  0  0  0  0  0
   12.4254   -2.7047   21.0306 H   0  0  0  0  0  0  0  0  0  0  0  0
   10.4082   -3.6357   22.1162 H   0  0  0  0  0  0  0  0  0  0  0  0
   13.3531   -0.5402   21.7717 H   0  0  0  0  0  0  0  0  0  0  0  0
   10.2254   -0.2161   24.7188 H   0  0  0  0  0  0  0  0  0  0  0  0
    6.2389   -4.1753   20.7719 H   0  0  0  0  0  0  0  0  0  0  0  0
    5.4549   -3.5346   22.2163 H   0  0  0  0  0  0  0  0  0  0  0  0
    5.4726   -1.0067   22.5776 H   0  0  0  0  0  0  0  0  0  0  0  0
    6.2691    0.0130   21.3861 H   0  0  0  0  0  0  0  0  0  0  0  0
    7.6559   -4.4773   22.8403 H   0  0  0  0  0  0  0  0  0  0  0  0
    8.4861   -3.4639   21.6187 H   0  0  0  0  0  0  0  0  0  0  0  0
    8.5031   -0.9448   21.9801 H   0  0  0  0  0  0  0  0  0  0  0  0
    7.6833   -0.3048   23.4384 H   0  0  0  0  0  0  0  0  0  0  0  0
    9.0868   -3.6104   24.3649 H   0  0  0  0  0  0  0  0  0  0  0  0
    8.7542   -2.0323   25.0925 H   0  0  0  0  0  0  0  0  0  0  0  0
    5.4210    0.1154   19.8323 H   0  0  0  0  0  0  0  0  0  0  0  0
    5.1068   -0.5406   18.1882 H   0  0  0  0  0  0  0  0  0  0  0  0
    6.9268   -2.5003   23.9411 H   0  0  0  0  0  0  0  0  0  0  0  0
  1  2  2  0  0  0  0
  1  3  1  0  0  0  0
  2  5  1  0  0  0  0
  3  6  2  0  0  0  0
  4  5  2  0  0  0  0
  4  6  1  0  0  0  0
  5 12  1  0  0  0  0
  6 17  1  0  0  0  0
  7 13  1  0  0  0  0
  7 14  1  0  0  0  0
  7 16  2  0  0  0  0
  8 10  1  0  0  0  0
  8 14  1  0  0  0  0
  9 11  1  0  0  0  0
  9 14  1  0  0  0  0
 10 15  1  0  0  0  0
 11 15  1  0  0  0  0
 12 15  1  0  0  0  0
 13 18  1  0  0  0  0
  1 19  1  0  0  0  0
  2 20  1  0  0  0  0
  3 21  1  0  0  0  0
  4 22  1  0  0  0  0
  8 23  1  0  0  0  0
  8 24  1  0  0  0  0
  9 25  1  0  0  0  0
  9 26  1  0  0  0  0
 10 27  1  0  0  0  0
 10 28  1  0  0  0  0
 11 29  1  0  0  0  0
 11 30  1  0  0  0  0
 12 31  1  0  0  0  0
 12 32  1  0  0  0  0
 13 33  1  0  0  0  0
 13 34  1  0  0  0  0
 15 35  1  0  0  0  0
M  CHG  1  15   1
M  END
> <fragments>
x0770

> <Hybrid2>
-5.598250

$$$$
PCM-0102628
  -OEChem-03282016173D

 40 41  0     0  0  0  0  0  0999 V2000
    1.6806   -4.1546   25.3033 C   0  0  0  0  0  0  0  0  0  0  0  0
    2.5482   -5.2464   25.2777 C   0  0  0  0  0  0  0  0  0  0  0  0
    3.1237   -3.0450   26.8918 C   0  0  0  0  0  0  0  0  0  0  0  0
    1.9683   -3.0538   26.1103 C   0  0  0  0  0  0  0  0  0  0  0  0
    3.9913   -4.1369   26.8663 C   0  0  0  0  0  0  0  0  0  0  0  0
    3.7036   -5.2376   26.0592 C   0  0  0  0  0  0  0  0  0  0  0  0
    7.5911   -3.7602   21.7988 C   0  0  0  0  0  0  0  0  0  0  0  0
    6.1930   -5.8237   22.3080 C   0  0  0  0  0  0  0  0  0  0  0  0
    7.8255   -4.9707   23.9447 C   0  0  0  0  0  0  0  0  0  0  0  0
    5.1413   -5.9287   23.4083 C   0  0  0  0  0  0  0  0  0  0  0  0
    6.7793   -5.0696   25.0492 C   0  0  0  0  0  0  0  0  0  0  0  0
    1.0401   -1.8865   26.1374 C   0  0  0  0  0  0  0  0  0  0  0  0
    5.2203   -4.0956   27.7144 C   0  0  0  0  0  0  0  0  0  0  0  0
    8.6353   -2.8184   22.3429 C   0  0  0  0  0  0  0  0  0  0  0  0
    7.1893   -4.7979   22.6381 N   0  0  0  0  0  0  0  0  0  0  0  0
    5.8151   -6.1629   24.7213 N   0  0  0  0  0  0  0  0  0  0  0  0
    7.1491   -3.5793   20.6614 O   0  0  0  0  0  0  0  0  0  0  0  0
    5.5368   -6.6625   27.2350 O   0  0  0  0  0  0  0  0  0  0  0  0
    4.0022   -7.7801   25.5786 O   0  0  0  0  0  0  0  0  0  0  0  0
    4.7798   -6.6357   26.0021 S   0  0  0  0  0  0  0  0  0  0  0  0
    8.9699   -1.6483   21.0714 Cl  0  0  0  0  0  0  0  0  0  0  0  0
    0.7827   -4.1700   24.6914 H   0  0  0  0  0  0  0  0  0  0  0  0
    2.3130   -6.0981   24.6451 H   0  0  0  0  0  0  0  0  0  0  0  0
    3.3461   -2.1856   27.5202 H   0  0  0  0  0  0  0  0  0  0  0  0
    6.7358   -6.7714   22.2069 H   0  0  0  0  0  0  0  0  0  0  0  0
    5.7017   -5.6265   21.3536 H   0  0  0  0  0  0  0  0  0  0  0  0
    8.5139   -4.1467   24.1571 H   0  0  0  0  0  0  0  0  0  0  0  0
    8.4184   -5.8920   23.8939 H   0  0  0  0  0  0  0  0  0  0  0  0
    4.5382   -5.0147   23.4576 H   0  0  0  0  0  0  0  0  0  0  0  0
    4.4777   -6.7717   23.1873 H   0  0  0  0  0  0  0  0  0  0  0  0
    7.2805   -5.3005   25.9954 H   0  0  0  0  0  0  0  0  0  0  0  0
    6.2416   -4.1212   25.1624 H   0  0  0  0  0  0  0  0  0  0  0  0
    0.2821   -2.0196   26.9188 H   0  0  0  0  0  0  0  0  0  0  0  0
    1.5813   -0.9518   26.3329 H   0  0  0  0  0  0  0  0  0  0  0  0
    0.5288   -1.7620   25.1739 H   0  0  0  0  0  0  0  0  0  0  0  0
    5.0124   -4.5166   28.7048 H   0  0  0  0  0  0  0  0  0  0  0  0
    6.0372   -4.6663   27.2561 H   0  0  0  0  0  0  0  0  0  0  0  0
    5.5804   -3.0670   27.8399 H   0  0  0  0  0  0  0  0  0  0  0  0
    9.5314   -3.3829   22.5743 H   0  0  0  0  0  0  0  0  0  0  0  0
    8.2345   -2.3156   23.2156 H   0  0  0  0  0  0  0  0  0  0  0  0
  1  2  2  0  0  0  0
  1  4  1  0  0  0  0
  2  6  1  0  0  0  0
  3  4  2  0  0  0  0
  3  5  1  0  0  0  0
  4 12  1  0  0  0  0
  5  6  2  0  0  0  0
  5 13  1  0  0  0  0
  6 20  1  0  0  0  0
  7 14  1  0  0  0  0
  7 15  1  0  0  0  0
  7 17  2  0  0  0  0
  8 10  1  0  0  0  0
  8 15  1  0  0  0  0
  9 11  1  0  0  0  0
  9 15  1  0  0  0  0
 10 16  1  0  0  0  0
 11 16  1  0  0  0  0
 14 21  1  0  0  0  0
 16 20  1  0  0  0  0
 18 20  2  0  0  0  0
 19 20  2  0  0  0  0
  1 22  1  0  0  0  0
  2 23  1  0  0  0  0
  3 24  1  0  0  0  0
  8 25  1  0  0  0  0
  8 26  1  0  0  0  0
  9 27  1  0  0  0  0
  9 28  1  0  0  0  0
 10 29  1  0  0  0  0
 10 30  1  0  0  0  0
 11 31  1  0  0  0  0
 11 32  1  0  0  0  0
 12 33  1  0  0  0  0
 12 34  1  0  0  0  0
 12 35  1  0  0  0  0
 13 36  1  0  0  0  0
 13 37  1  0  0  0  0
 13 38  1  0  0  0  0
 14 39  1  0  0  0  0
 14 40  1  0  0  0  0
M  END
> <fragments>
x0771

> <Hybrid2>
-1.831967

$$$$
PCM-0102395
  -OEChem-03282016173D

 35 36  0     0  0  0  0  0  0999 V2000
    7.1450   -2.1350   26.3072 C   0  0  0  0  0  0  0  0  0  0  0  0
    8.4039   -5.6015   26.7358 C   0  0  0  0  0  0  0  0  0  0  0  0
    9.4158   -5.6535   25.7772 C   0  0  0  0  0  0  0  0  0  0  0  0
    7.6599   -4.4333   26.9020 C   0  0  0  0  0  0  0  0  0  0  0  0
    9.6839   -4.5373   24.9849 C   0  0  0  0  0  0  0  0  0  0  0  0
    7.9280   -3.3170   26.1096 C   0  0  0  0  0  0  0  0  0  0  0  0
    8.9400   -3.3690   25.1510 C   0  0  0  0  0  0  0  0  0  0  0  0
    5.9787   -1.6286   19.3612 C   0  0  0  0  0  0  0  0  0  0  0  0
    6.2891   -2.7467   21.5408 C   0  0  0  0  0  0  0  0  0  0  0  0
    7.5161   -0.6273   21.1033 C   0  0  0  0  0  0  0  0  0  0  0  0
    7.4905   -3.0584   22.4223 C   0  0  0  0  0  0  0  0  0  0  0  0
    7.5437   -0.5484   22.6241 C   0  0  0  0  0  0  0  0  0  0  0  0
    6.3229   -0.4569   18.4750 C   0  0  0  0  0  0  0  0  0  0  0  0
    6.5102   -1.1768   26.4673 N   0  0  0  0  0  0  0  0  0  0  0  0
    6.5778   -1.6463   20.6209 N   0  0  0  0  0  0  0  0  0  0  0  0
    7.8689   -1.8688   23.2339 N   0  0  0  0  0  0  0  0  0  0  0  0
    5.2020   -2.4949   18.9525 O   0  0  0  0  0  0  0  0  0  0  0  0
    9.4467   -0.8224   24.9738 O   0  0  0  0  0  0  0  0  0  0  0  0
   10.3880   -2.3754   23.2274 O   0  0  0  0  0  0  0  0  0  0  0  0
    9.3201   -1.9856   24.1226 S   0  0  0  0  0  0  0  0  0  0  0  0
    7.7636   -0.9137   17.5729 Cl  0  0  0  0  0  0  0  0  0  0  0  0
    8.1953   -6.4707   27.3527 H   0  0  0  0  0  0  0  0  0  0  0  0
    9.9949   -6.5631   25.6480 H   0  0  0  0  0  0  0  0  0  0  0  0
    6.8746   -4.4101   27.6540 H   0  0  0  0  0  0  0  0  0  0  0  0
   10.4751   -4.5910   24.2417 H   0  0  0  0  0  0  0  0  0  0  0  0
    6.0325   -3.6189   20.9220 H   0  0  0  0  0  0  0  0  0  0  0  0
    5.4198   -2.5374   22.1723 H   0  0  0  0  0  0  0  0  0  0  0  0
    7.2687    0.3585   20.6834 H   0  0  0  0  0  0  0  0  0  0  0  0
    8.5098   -0.8997   20.7136 H   0  0  0  0  0  0  0  0  0  0  0  0
    7.2730   -3.9096   23.0878 H   0  0  0  0  0  0  0  0  0  0  0  0
    8.3384   -3.3440   21.7806 H   0  0  0  0  0  0  0  0  0  0  0  0
    8.3079    0.1894   22.9281 H   0  0  0  0  0  0  0  0  0  0  0  0
    6.5719   -0.1894   23.0118 H   0  0  0  0  0  0  0  0  0  0  0  0
    6.5317    0.4055   19.0977 H   0  0  0  0  0  0  0  0  0  0  0  0
    5.4987   -0.2772   17.7942 H   0  0  0  0  0  0  0  0  0  0  0  0
  1  6  1  0  0  0  0
  1 14  3  0  0  0  0
  2  3  1  0  0  0  0
  2  4  2  0  0  0  0
  3  5  2  0  0  0  0
  4  6  1  0  0  0  0
  5  7  1  0  0  0  0
  6  7  2  0  0  0  0
  7 20  1  0  0  0  0
  8 13  1  0  0  0  0
  8 15  1  0  0  0  0
  8 17  2  0  0  0  0
  9 11  1  0  0  0  0
  9 15  1  0  0  0  0
 10 12  1  0  0  0  0
 10 15  1  0  0  0  0
 11 16  1  0  0  0  0
 12 16  1  0  0  0  0
 13 21  1  0  0  0  0
 16 20  1  0  0  0  0
 18 20  2  0  0  0  0
 19 20  2  0  0  0  0
  2 22  1  0  0  0  0
  3 23  1  0  0  0  0
  4 24  1  0  0  0  0
  5 25  1  0  0  0  0
  9 26  1  0  0  0  0
  9 27  1  0  0  0  0
 10 28  1  0  0  0  0
 10 29  1  0  0  0  0
 11 30  1  0  0  0  0
 11 31  1  0  0  0  0
 12 32  1  0  0  0  0
 12 33  1  0  0  0  0
 13 34  1  0  0  0  0
 13 35  1  0  0  0  0
M  END
> <fragments>
x0774

> <Hybrid2>
-5.778869

$$$$
PCM-0103072
  -OEChem-03282016173D

 34 35  0     0  0  0  0  0  0999 V2000
    5.6208   -5.1171   26.9062 C   0  0  0  0  0  0  0  0  0  0  0  0
    4.5902   -5.9950   26.5706 C   0  0  0  0  0  0  0  0  0  0  0  0
    6.4887   -4.6504   25.9189 C   0  0  0  0  0  0  0  0  0  0  0  0
    5.2954   -5.9396   24.2604 C   0  0  0  0  0  0  0  0  0  0  0  0
    4.4275   -6.4063   25.2477 C   0  0  0  0  0  0  0  0  0  0  0  0
    6.3260   -5.0617   24.5961 C   0  0  0  0  0  0  0  0  0  0  0  0
    3.3426   -7.3300   24.8960 C   0  0  0  0  0  0  0  0  0  0  0  0
    6.8812   -4.4036   22.2677 C   0  0  0  0  0  0  0  0  0  0  0  0
    1.9062   -5.4841   23.8838 C   0  0  0  0  0  0  0  0  0  0  0  0
    0.8871   -7.5675   24.7425 C   0  0  0  0  0  0  0  0  0  0  0  0
    1.3954   -5.6479   22.4574 C   0  0  0  0  0  0  0  0  0  0  0  0
    0.2545   -7.9748   23.4171 C   0  0  0  0  0  0  0  0  0  0  0  0
    8.0647   -3.8857   21.4838 C   0  0  0  0  0  0  0  0  0  0  0  0
    2.1068   -6.7869   24.5324 N   0  0  0  0  0  0  0  0  0  0  0  0
    7.1941   -4.5945   23.6087 N   0  0  0  0  0  0  0  0  0  0  0  0
    3.6153   -8.5285   24.9436 O   0  0  0  0  0  0  0  0  0  0  0  0
    5.8134   -4.6216   21.7016 O   0  0  0  0  0  0  0  0  0  0  0  0
   -0.2038   -6.5197   22.4217 S   0  0  0  0  0  0  0  0  0  0  0  0
    8.0191   -2.1165   21.5427 Cl  0  0  0  0  0  0  0  0  0  0  0  0
    5.7475   -4.7965   27.9361 H   0  0  0  0  0  0  0  0  0  0  0  0
    3.9209   -6.3528   27.3485 H   0  0  0  0  0  0  0  0  0  0  0  0
    7.2889   -3.9668   26.1919 H   0  0  0  0  0  0  0  0  0  0  0  0
    5.1691   -6.2613   23.2286 H   0  0  0  0  0  0  0  0  0  0  0  0
    2.8374   -4.9115   23.8644 H   0  0  0  0  0  0  0  0  0  0  0  0
    1.1986   -4.9099   24.4949 H   0  0  0  0  0  0  0  0  0  0  0  0
    0.1967   -6.9673   25.3476 H   0  0  0  0  0  0  0  0  0  0  0  0
    1.1161   -8.4698   25.3199 H   0  0  0  0  0  0  0  0  0  0  0  0
    1.2539   -4.6640   21.9993 H   0  0  0  0  0  0  0  0  0  0  0  0
    2.1167   -6.1969   21.8425 H   0  0  0  0  0  0  0  0  0  0  0  0
    0.9354   -8.6056   22.8353 H   0  0  0  0  0  0  0  0  0  0  0  0
   -0.6535   -8.5570   23.6035 H   0  0  0  0  0  0  0  0  0  0  0  0
    8.0523   -4.2043   20.4384 H   0  0  0  0  0  0  0  0  0  0  0  0
    8.9907   -4.2352   21.9490 H   0  0  0  0  0  0  0  0  0  0  0  0
    8.1451   -4.3728   23.8971 H   0  0  0  0  0  0  0  0  0  0  0  0
  1  2  1  0  0  0  0
  1  3  2  0  0  0  0
  2  5  2  0  0  0  0
  3  6  1  0  0  0  0
  4  5  1  0  0  0  0
  4  6  2  0  0  0  0
  5  7  1  0  0  0  0
  6 15  1  0  0  0  0
  7 14  1  0  0  0  0
  7 16  2  0  0  0  0
  8 13  1  0  0  0  0
  8 15  1  0  0  0  0
  8 17  2  0  0  0  0
  9 11  1  0  0  0  0
  9 14  1  0  0  0  0
 10 12  1  0  0  0  0
 10 14  1  0  0  0  0
 11 18  1  0  0  0  0
 12 18  1  0  0  0  0
 13 19  1  0  0  0  0
  1 20  1  0  0  0  0
  2 21  1  0  0  0  0
  3 22  1  0  0  0  0
  4 23  1  0  0  0  0
  9 24  1  0  0  0  0
  9 25  1  0  0  0  0
 10 26  1  0  0  0  0
 10 27  1  0  0  0  0
 11 28  1  0  0  0  0
 11 29  1  0  0  0  0
 12 30  1  0  0  0  0
 12 31  1  0  0  0  0
 13 32  1  0  0  0  0
 13 33  1  0  0  0  0
 15 34  1  0  0  0  0
M  END
> <fragments>
x0786

> <Hybrid2>
-0.873283

$$$$
PCM-0102275
  -OEChem-03282016173D

 31 32  0     1  0  0  0  0  0999 V2000
   10.1482   -4.3039   26.2097 C   0  0  0  0  0  0  0  0  0  0  0  0
   10.0496   -4.4674   24.8311 C   0  0  0  0  0  0  0  0  0  0  0  0
    5.2965   -4.3818   26.5661 C   0  0  0  0  0  0  0  0  0  0  0  0
    8.9935   -4.2412   26.9901 C   0  0  0  0  0  0  0  0  0  0  0  0
    8.7958   -4.5687   24.2276 C   0  0  0  0  0  0  0  0  0  0  0  0
    6.5503   -4.2805   27.1696 C   0  0  0  0  0  0  0  0  0  0  0  0
    5.1979   -4.5452   25.1875 C   0  0  0  0  0  0  0  0  0  0  0  0
    7.7232   -4.3415   26.3995 C   0  0  0  0  0  0  0  0  0  0  0  0
    7.6229   -4.5077   24.9976 C   0  0  0  0  0  0  0  0  0  0  0  0
    6.3527   -4.6079   24.4071 C   0  0  0  0  0  0  0  0  0  0  0  0
    6.1276   -3.2736   20.9670 C   0  0  0  0  0  0  0  0  0  0  0  0
    6.8223   -6.0686   22.3977 C   0  0  0  0  0  0  0  0  0  0  0  0
    6.7770   -2.0418   20.3898 C   0  0  0  0  0  0  0  0  0  0  0  0
    6.1750   -4.7847   22.9308 C   0  0  2  0  0  0  0  0  0  0  0  0
    6.6630   -3.6388   22.1866 N   0  0  0  0  0  0  0  0  0  0  0  0
    5.2096   -3.8539   20.3901 O   0  0  0  0  0  0  0  0  0  0  0  0
    5.5235   -0.8070   20.1928 Cl  0  0  0  0  0  0  0  0  0  0  0  0
   11.1246   -4.2250   26.6788 H   0  0  0  0  0  0  0  0  0  0  0  0
   10.9492   -4.5161   24.2244 H   0  0  0  0  0  0  0  0  0  0  0  0
    4.3972   -4.3329   27.1731 H   0  0  0  0  0  0  0  0  0  0  0  0
    9.0944   -4.1132   28.0658 H   0  0  0  0  0  0  0  0  0  0  0  0
    8.7603   -4.6957   23.1482 H   0  0  0  0  0  0  0  0  0  0  0  0
    6.6035   -4.1531   28.2488 H   0  0  0  0  0  0  0  0  0  0  0  0
    4.2154   -4.6229   24.7291 H   0  0  0  0  0  0  0  0  0  0  0  0
    7.8971   -6.0792   22.6092 H   0  0  0  0  0  0  0  0  0  0  0  0
    6.3766   -6.9561   22.8609 H   0  0  0  0  0  0  0  0  0  0  0  0
    6.6901   -6.1703   21.3146 H   0  0  0  0  0  0  0  0  0  0  0  0
    7.5646   -1.6417   21.0330 H   0  0  0  0  0  0  0  0  0  0  0  0
    7.2019   -2.2800   19.4109 H   0  0  0  0  0  0  0  0  0  0  0  0
    5.1017   -4.8398   22.6856 H   0  0  0  0  0  0  0  0  0  0  0  0
    7.4202   -3.0895   22.5736 H   0  0  0  0  0  0  0  0  0  0  0  0
  1  2  1  0  0  0  0
  1  4  2  0  0  0  0
  2  5  2  0  0  0  0
  3  6  1  0  0  0  0
  3  7  2  0  0  0  0
  4  8  1  0  0  0  0
  5  9  1  0  0  0  0
  6  8  2  0  0  0  0
  7 10  1  0  0  0  0
  8  9  1  0  0  0  0
  9 10  2  0  0  0  0
 10 14  1  0  0  0  0
 11 13  1  0  0  0  0
 11 15  1  0  0  0  0
 11 16  2  0  0  0  0
 12 14  1  0  0  0  0
 13 17  1  0  0  0  0
 14 15  1  0  0  0  0
  1 18  1  0  0  0  0
  2 19  1  0  0  0  0
  3 20  1  0  0  0  0
  4 21  1  0  0  0  0
  5 22  1  0  0  0  0
  6 23  1  0  0  0  0
  7 24  1  0  0  0  0
 12 25  1  0  0  0  0
 12 26  1  0  0  0  0
 12 27  1  0  0  0  0
 13 28  1  0  0  0  0
 13 29  1  0  0  0  0
 14 30  1  0  0  0  0
 15 31  1  0  0  0  0
M  END
> <fragments>
x0820

> <Hybrid2>
-4.013700

$$$$
PCM-0102287
  -OEChem-03282016173D

 41 43  0     0  0  0  0  0  0999 V2000
   10.7361    1.9921   25.8673 C   0  0  0  0  0  0  0  0  0  0  0  0
    9.8184    0.9541   25.7354 C   0  0  0  0  0  0  0  0  0  0  0  0
   13.5992   -0.1172   22.5468 C   0  0  0  0  0  0  0  0  0  0  0  0
   11.9073    1.9895   25.1093 C   0  0  0  0  0  0  0  0  0  0  0  0
   10.0684   -0.0904   24.8449 C   0  0  0  0  0  0  0  0  0  0  0  0
   13.3491    0.9274   23.4372 C   0  0  0  0  0  0  0  0  0  0  0  0
   12.6815   -1.1551   22.4149 C   0  0  0  0  0  0  0  0  0  0  0  0
   12.1754    0.9462   24.2082 C   0  0  0  0  0  0  0  0  0  0  0  0
   11.2421   -0.1093   24.0740 C   0  0  0  0  0  0  0  0  0  0  0  0
   11.5102   -1.1526   23.1728 C   0  0  0  0  0  0  0  0  0  0  0  0
    6.1031   -2.0158   19.7094 C   0  0  0  0  0  0  0  0  0  0  0  0
    6.8763   -2.5260   22.0036 C   0  0  0  0  0  0  0  0  0  0  0  0
    7.8880   -0.6022   20.8424 C   0  0  0  0  0  0  0  0  0  0  0  0
    8.2540   -3.0426   22.3918 C   0  0  0  0  0  0  0  0  0  0  0  0
    9.2819   -1.0891   21.2150 C   0  0  0  0  0  0  0  0  0  0  0  0
   10.5644   -2.3014   22.9816 C   0  0  0  0  0  0  0  0  0  0  0  0
    6.2358   -1.1398   18.4893 C   0  0  0  0  0  0  0  0  0  0  0  0
    6.9411   -1.7209   20.7838 N   0  0  0  0  0  0  0  0  0  0  0  0
    9.2048   -1.8721   22.5066 N   0  3  0  0  0  0  0  0  0  0  0  0
    5.2808   -2.9355   19.7048 O   0  0  0  0  0  0  0  0  0  0  0  0
    5.0869    0.1786   18.6884 Cl  0  0  0  0  0  0  0  0  0  0  0  0
   10.5408    2.8049   26.5608 H   0  0  0  0  0  0  0  0  0  0  0  0
    8.9068    0.9570   26.3259 H   0  0  0  0  0  0  0  0  0  0  0  0
   14.5109   -0.1198   21.9565 H   0  0  0  0  0  0  0  0  0  0  0  0
   12.6105    2.8111   25.2288 H   0  0  0  0  0  0  0  0  0  0  0  0
    9.3273   -0.8828   24.7703 H   0  0  0  0  0  0  0  0  0  0  0  0
   14.0805    1.7282   23.5240 H   0  0  0  0  0  0  0  0  0  0  0  0
   12.8877   -1.9632   21.7178 H   0  0  0  0  0  0  0  0  0  0  0  0
    6.1921   -3.3707   21.8753 H   0  0  0  0  0  0  0  0  0  0  0  0
    6.4624   -1.8906   22.7960 H   0  0  0  0  0  0  0  0  0  0  0  0
    7.5122    0.1029   21.5938 H   0  0  0  0  0  0  0  0  0  0  0  0
    7.9395   -0.0621   19.8955 H   0  0  0  0  0  0  0  0  0  0  0  0
    8.2213   -3.5337   23.3697 H   0  0  0  0  0  0  0  0  0  0  0  0
    8.6595   -3.7338   21.6444 H   0  0  0  0  0  0  0  0  0  0  0  0
    9.7057   -1.7464   20.4476 H   0  0  0  0  0  0  0  0  0  0  0  0
    9.9534   -0.2417   21.3871 H   0  0  0  0  0  0  0  0  0  0  0  0
   10.9474   -3.0103   22.2396 H   0  0  0  0  0  0  0  0  0  0  0  0
   10.4121   -2.8485   23.9182 H   0  0  0  0  0  0  0  0  0  0  0  0
    5.9855   -1.7219   17.6098 H   0  0  0  0  0  0  0  0  0  0  0  0
    7.2462   -0.7498   18.4450 H   0  0  0  0  0  0  0  0  0  0  0  0
    8.8293   -1.2398   23.2270 H   0  0  0  0  0  0  0  0  0  0  0  0
  1  2  1  0  0  0  0
  1  4  2  0  0  0  0
  2  5  2  0  0  0  0
  3  6  1  0  0  0  0
  3  7  2  0  0  0  0
  4  8  1  0  0  0  0
  5  9  1  0  0  0  0
  6  8  2  0  0  0  0
  7 10  1  0  0  0  0
  8  9  1  0  0  0  0
  9 10  2  0  0  0  0
 10 16  1  0  0  0  0
 11 17  1  0  0  0  0
 11 18  1  0  0  0  0
 11 20  2  0  0  0  0
 12 14  1  0  0  0  0
 12 18  1  0  0  0  0
 13 15  1  0  0  0  0
 13 18  1  0  0  0  0
 14 19  1  0  0  0  0
 15 19  1  0  0  0  0
 16 19  1  0  0  0  0
 17 21  1  0  0  0  0
  1 22  1  0  0  0  0
  2 23  1  0  0  0  0
  3 24  1  0  0  0  0
  4 25  1  0  0  0  0
  5 26  1  0  0  0  0
  6 27  1  0  0  0  0
  7 28  1  0  0  0  0
 12 29  1  0  0  0  0
 12 30  1  0  0  0  0
 13 31  1  0  0  0  0
 13 32  1  0  0  0  0
 14 33  1  0  0  0  0
 14 34  1  0  0  0  0
 15 35  1  0  0  0  0
 15 36  1  0  0  0  0
 16 37  1  0  0  0  0
 16 38  1  0  0  0  0
 17 39  1  0  0  0  0
 17 40  1  0  0  0  0
 19 41  1  0  0  0  0
M  CHG  1  19   1
M  END
> <fragments>
x0830

> <Hybrid2>
-9.263649

$$$$
PCM-0102911
  -OEChem-03282016173D

 41 42  0     1  0  0  0  0  0999 V2000
   12.5774    2.0181   23.7608 C   0  0  0  0  0  0  0  0  0  0  0  0
   11.4451    1.6578   24.4913 C   0  0  0  0  0  0  0  0  0  0  0  0
   13.1192    1.1307   22.8309 C   0  0  0  0  0  0  0  0  0  0  0  0
   10.8545    0.4100   24.2919 C   0  0  0  0  0  0  0  0  0  0  0  0
   12.5286   -0.1171   22.6316 C   0  0  0  0  0  0  0  0  0  0  0  0
   11.3962   -0.4775   23.3620 C   0  0  0  0  0  0  0  0  0  0  0  0
    6.2739   -1.9779   20.0238 C   0  0  0  0  0  0  0  0  0  0  0  0
    7.1979   -3.0817   22.9557 C   0  0  0  0  0  0  0  0  0  0  0  0
    6.3617   -1.8961   22.4832 C   0  0  0  0  0  0  0  0  0  0  0  0
    7.8120   -0.3470   21.2161 C   0  0  0  0  0  0  0  0  0  0  0  0
    8.6792   -3.0822   22.5878 C   0  0  0  0  0  0  0  0  0  0  0  0
    9.2144   -0.9022   21.4272 C   0  0  0  0  0  0  0  0  0  0  0  0
   13.1252   -1.0506   21.6298 C   0  0  0  0  0  0  0  0  0  0  0  0
   10.7440   -1.8143   23.1655 C   0  0  0  0  0  0  0  0  0  0  0  0
    6.7418   -1.4004   18.7115 C   0  0  0  0  0  0  0  0  0  0  0  0
    6.7787   -1.3854   21.1823 N   0  0  0  0  0  0  0  0  0  0  0  0
    9.3085   -1.7108   22.7102 N   0  3  2  0  0  0  0  0  0  0  0  0
    5.4823   -2.9241   20.0232 O   0  0  0  0  0  0  0  0  0  0  0  0
    5.5813   -0.1538   18.2698 Cl  0  0  0  0  0  0  0  0  0  0  0  0
   13.0374    2.9894   23.9169 H   0  0  0  0  0  0  0  0  0  0  0  0
   11.0240    2.3492   25.2154 H   0  0  0  0  0  0  0  0  0  0  0  0
   14.0026    1.4204   22.2680 H   0  0  0  0  0  0  0  0  0  0  0  0
    9.9722    0.1385   24.8655 H   0  0  0  0  0  0  0  0  0  0  0  0
    7.0650   -3.2431   24.0501 H   0  0  0  0  0  0  0  0  0  0  0  0
    6.7432   -3.9937   22.5090 H   0  0  0  0  0  0  0  0  0  0  0  0
    5.3264   -2.1987   22.4327 H   0  0  0  0  0  0  0  0  0  0  0  0
    6.4579   -1.0858   23.1931 H   0  0  0  0  0  0  0  0  0  0  0  0
    7.5402    0.4175   21.9624 H   0  0  0  0  0  0  0  0  0  0  0  0
    7.8035    0.1843   20.2505 H   0  0  0  0  0  0  0  0  0  0  0  0
    9.2168   -3.7319   23.2967 H   0  0  0  0  0  0  0  0  0  0  0  0
    8.8706   -3.4567   21.5688 H   0  0  0  0  0  0  0  0  0  0  0  0
    9.5536   -1.5360   20.5996 H   0  0  0  0  0  0  0  0  0  0  0  0
    9.9162   -0.0680   21.5412 H   0  0  0  0  0  0  0  0  0  0  0  0
   13.8777   -1.6892   22.1068 H   0  0  0  0  0  0  0  0  0  0  0  0
   12.3576   -1.6915   21.1790 H   0  0  0  0  0  0  0  0  0  0  0  0
   13.6028   -0.4996   20.8102 H   0  0  0  0  0  0  0  0  0  0  0  0
   11.2720   -2.4051   22.4092 H   0  0  0  0  0  0  0  0  0  0  0  0
   10.7380   -2.3921   24.0960 H   0  0  0  0  0  0  0  0  0  0  0  0
    6.7471   -2.1864   17.9660 H   0  0  0  0  0  0  0  0  0  0  0  0
    7.7233   -0.9641   18.8519 H   0  0  0  0  0  0  0  0  0  0  0  0
    8.8060   -1.2000   23.4297 H   0  0  0  0  0  0  0  0  0  0  0  0
  1  2  1  0  0  0  0
  1  3  2  0  0  0  0
  2  4  2  0  0  0  0
  3  5  1  0  0  0  0
  4  6  1  0  0  0  0
  5  6  2  0  0  0  0
  5 13  1  0  0  0  0
  6 14  1  0  0  0  0
  7 15  1  0  0  0  0
  7 16  1  0  0  0  0
  7 18  2  0  0  0  0
  8  9  1  0  0  0  0
  8 11  1  0  0  0  0
  9 16  1  0  0  0  0
 10 12  1  0  0  0  0
 10 16  1  0  0  0  0
 11 17  1  0  0  0  0
 12 17  1  0  0  0  0
 14 17  1  0  0  0  0
 15 19  1  0  0  0  0
  1 20  1  0  0  0  0
  2 21  1  0  0  0  0
  3 22  1  0  0  0  0
  4 23  1  0  0  0  0
  8 24  1  0  0  0  0
  8 25  1  0  0  0  0
  9 26  1  0  0  0  0
  9 27  1  0  0  0  0
 10 28  1  0  0  0  0
 10 29  1  0  0  0  0
 11 30  1  0  0  0  0
 11 31  1  0  0  0  0
 12 32  1  0  0  0  0
 12 33  1  0  0  0  0
 13 34  1  0  0  0  0
 13 35  1  0  0  0  0
 13 36  1  0  0  0  0
 14 37  1  0  0  0  0
 14 38  1  0  0  0  0
 15 39  1  0  0  0  0
 15 40  1  0  0  0  0
 17 41  1  0  0  0  0
M  CHG  1  17   1
M  END
> <fragments>
x0831

> <Hybrid2>
-7.894884

$$$$
POB0129
  -OEChem-03282016173D

 26 27  0     1  0  0  0  0  0999 V2000
   12.9583    0.5614   23.1722 C   0  0  0  0  0  0  0  0  0  0  0  0
   13.7211   -0.0615   22.2091 C   0  0  0  0  0  0  0  0  0  0  0  0
   11.4176   -0.9219   22.2621 C   0  0  0  0  0  0  0  0  0  0  0  0
   11.6238    0.0629   23.2031 C   0  0  0  0  0  0  0  0  0  0  0  0
   10.0997    2.5582   22.6713 C   0  0  0  0  0  0  0  0  0  0  0  0
    8.3072    0.8363   24.9404 C   0  0  0  0  0  0  0  0  0  0  0  0
    9.1617   -0.0633   24.0578 C   0  0  0  0  0  0  0  0  0  0  0  0
    8.9216    2.2331   24.8319 C   0  0  0  0  0  0  0  0  0  0  0  0
   10.5596    0.5592   24.1575 C   0  0  2  0  0  0  0  0  0  0  0  0
   10.2503    2.0674   24.0848 C   0  0  1  0  0  0  0  0  0  0  0  0
   10.4335    3.8815   22.5052 N   0  0  0  0  0  0  0  0  0  0  0  0
    9.7273    1.8221   21.7608 O   0  0  0  0  0  0  0  0  0  0  0  0
   12.8291   -1.2420   21.3471 S   0  0  0  0  0  0  0  0  0  0  0  0
   13.3432    1.3378   23.8214 H   0  0  0  0  0  0  0  0  0  0  0  0
   14.7593    0.1207   21.9698 H   0  0  0  0  0  0  0  0  0  0  0  0
   10.5070   -1.4704   22.0642 H   0  0  0  0  0  0  0  0  0  0  0  0
    7.2563    0.8246   24.6353 H   0  0  0  0  0  0  0  0  0  0  0  0
    8.3526    0.4938   25.9809 H   0  0  0  0  0  0  0  0  0  0  0  0
    9.1462   -1.1038   24.3989 H   0  0  0  0  0  0  0  0  0  0  0  0
    8.7897   -0.0495   23.0256 H   0  0  0  0  0  0  0  0  0  0  0  0
    8.2359    2.9214   24.3250 H   0  0  0  0  0  0  0  0  0  0  0  0
    9.0966    2.6339   25.8372 H   0  0  0  0  0  0  0  0  0  0  0  0
   10.9535    0.3585   25.1942 H   0  0  0  0  0  0  0  0  0  0  0  0
   11.0460    2.6586   24.5456 H   0  0  0  0  0  0  0  0  0  0  0  0
   10.7445    4.4104   23.3134 H   0  0  0  0  0  0  0  0  0  0  0  0
   10.3814    4.3506   21.6068 H   0  0  0  0  0  0  0  0  0  0  0  0
  1  2  2  0  0  0  0
  1  4  1  0  0  0  0
  2 13  1  0  0  0  0
  3  4  2  0  0  0  0
  3 13  1  0  0  0  0
  4  9  1  0  0  0  0
  5 10  1  0  0  0  0
  5 11  1  0  0  0  0
  5 12  2  0  0  0  0
  6  7  1  0  0  0  0
  6  8  1  0  0  0  0
  7  9  1  0  0  0  0
  8 10  1  0  0  0  0
  9 10  1  0  0  0  0
  1 14  1  0  0  0  0
  2 15  1  0  0  0  0
  3 16  1  0  0  0  0
  6 17  1  0  0  0  0
  6 18  1  0  0  0  0
  7 19  1  0  0  0  0
  7 20  1  0  0  0  0
  8 21  1  0  0  0  0
  8 22  1  0  0  0  0
  9 23  1  0  0  0  0
 10 24  1  0  0  0  0
 11 25  1  0  0  0  0
 11 26  1  0  0  0  0
M  END
> <fragments>
x0874

> <Hybrid2>
-7.257104

$$$$
POB0073
  -OEChem-03282016173D

 28 29  0     0  0  0  0  0  0999 V2000
    6.0240    8.8001   11.5820 C   0  0  0  0  0  0  0  0  0  0  0  0
    6.1129   10.1801   11.7275 C   0  0  0  0  0  0  0  0  0  0  0  0
    5.0054    8.2522   10.8103 C   0  0  0  0  0  0  0  0  0  0  0  0
    5.1660   10.9622   11.0860 C   0  0  0  0  0  0  0  0  0  0  0  0
    4.1080    9.1206   10.2100 C   0  0  0  0  0  0  0  0  0  0  0  0
    3.6076    9.3144    7.1280 C   0  0  0  0  0  0  0  0  0  0  0  0
    4.0656    7.8646    7.2729 C   0  0  0  0  0  0  0  0  0  0  0  0
    2.5654    9.5315    8.2241 C   0  0  0  0  0  0  0  0  0  0  0  0
    3.3218    7.3143    8.4894 C   0  0  0  0  0  0  0  0  0  0  0  0
    2.9691    8.5506    9.3500 C   0  0  0  0  0  0  0  0  0  0  0  0
    1.7738    8.2214   10.2600 C   0  0  0  0  0  0  0  0  0  0  0  0
    4.1623   10.4662   10.3283 N   0  0  0  0  0  0  0  0  0  0  0  0
    2.1881    7.2582   11.2094 O   0  0  0  0  0  0  0  0  0  0  0  0
    6.7473    8.1531   12.0691 H   0  0  0  0  0  0  0  0  0  0  0  0
    6.8985   10.6292   12.3242 H   0  0  0  0  0  0  0  0  0  0  0  0
    4.9251    7.1773   10.6889 H   0  0  0  0  0  0  0  0  0  0  0  0
    5.1914   12.0438   11.1678 H   0  0  0  0  0  0  0  0  0  0  0  0
    4.4402   10.0149    7.2282 H   0  0  0  0  0  0  0  0  0  0  0  0
    3.1629    9.4684    6.1404 H   0  0  0  0  0  0  0  0  0  0  0  0
    3.8020    7.2984    6.3748 H   0  0  0  0  0  0  0  0  0  0  0  0
    5.1481    7.7917    7.4035 H   0  0  0  0  0  0  0  0  0  0  0  0
    2.6276   10.5656    8.5743 H   0  0  0  0  0  0  0  0  0  0  0  0
    1.5513    9.3640    7.8611 H   0  0  0  0  0  0  0  0  0  0  0  0
    2.4407    6.7359    8.2001 H   0  0  0  0  0  0  0  0  0  0  0  0
    3.9889    6.6403    9.0390 H   0  0  0  0  0  0  0  0  0  0  0  0
    0.9586    7.8162    9.6633 H   0  0  0  0  0  0  0  0  0  0  0  0
    1.4452    9.1219   10.7754 H   0  0  0  0  0  0  0  0  0  0  0  0
    1.4204    7.0634   11.7743 H   0  0  0  0  0  0  0  0  0  0  0  0
  1  2  2  0  0  0  0
  1  3  1  0  0  0  0
  2  4  1  0  0  0  0
  3  5  2  0  0  0  0
  4 12  2  0  0  0  0
  5 10  1  0  0  0  0
  5 12  1  0  0  0  0
  6  7  1  0  0  0  0
  6  8  1  0  0  0  0
  7  9  1  0  0  0  0
  8 10  1  0  0  0  0
  9 10  1  0  0  0  0
 10 11  1  0  0  0  0
 11 13  1  0  0  0  0
  1 14  1  0  0  0  0
  2 15  1  0  0  0  0
  3 16  1  0  0  0  0
  4 17  1  0  0  0  0
  6 18  1  0  0  0  0
  6 19  1  0  0  0  0
  7 20  1  0  0  0  0
  7 21  1  0  0  0  0
  8 22  1  0  0  0  0
  8 23  1  0  0  0  0
  9 24  1  0  0  0  0
  9 25  1  0  0  0  0
 11 26  1  0  0  0  0
 11 27  1  0  0  0  0
 13 28  1  0  0  0  0
M  END
> <fragments>
x0887

> <Hybrid2>
-1.444870

$$$$
NCL-00023830
  -OEChem-03282016173D

 17 17  0     0  0  0  0  0  0999 V2000
   12.7091    3.3238   23.3586 C   0  0  0  0  0  0  0  0  0  0  0  0
   10.4911    2.9047   24.2198 C   0  0  0  0  0  0  0  0  0  0  0  0
   12.8423    1.9715   23.0436 C   0  0  0  0  0  0  0  0  0  0  0  0
   10.6243    1.5524   23.9047 C   0  0  0  0  0  0  0  0  0  0  0  0
   11.5335    3.7904   23.9468 C   0  0  0  0  0  0  0  0  0  0  0  0
   11.7999    1.0858   23.3166 C   0  0  0  0  0  0  0  0  0  0  0  0
   10.6917    6.0910   22.8965 N   0  0  0  0  0  0  0  0  0  0  0  0
   10.3848    5.6101   25.4105 O   0  0  0  0  0  0  0  0  0  0  0  0
   12.6973    6.0508   24.5129 O   0  0  0  0  0  0  0  0  0  0  0  0
   11.3673    5.4822   24.3431 S   0  0  0  0  0  0  0  0  0  0  0  0
   11.9804   -0.7464   22.8901 Br  0  0  0  0  0  0  0  0  0  0  0  0
   13.5274    4.0053   23.1415 H   0  0  0  0  0  0  0  0  0  0  0  0
    9.5717    3.2573   24.6795 H   0  0  0  0  0  0  0  0  0  0  0  0
   13.7649    1.6237   22.5857 H   0  0  0  0  0  0  0  0  0  0  0  0
    9.8032    0.8753   24.1256 H   0  0  0  0  0  0  0  0  0  0  0  0
    9.7048    6.3763   22.9082 H   0  0  0  0  0  0  0  0  0  0  0  0
   11.2857    6.6753   22.2956 H   0  0  0  0  0  0  0  0  0  0  0  0
  1  3  2  0  0  0  0
  1  5  1  0  0  0  0
  2  4  1  0  0  0  0
  2  5  2  0  0  0  0
  3  6  1  0  0  0  0
  4  6  2  0  0  0  0
  5 10  1  0  0  0  0
  6 11  1  0  0  0  0
  7 10  1  0  0  0  0
  8 10  2  0  0  0  0
  9 10  2  0  0  0  0
  1 12  1  0  0  0  0
  2 13  1  0  0  0  0
  3 14  1  0  0  0  0
  4 15  1  0  0  0  0
  7 16  1  0  0  0  0
  7 17  1  0  0  0  0
M  END
> <fragments>
x0946

> <Hybrid2>
-4.741473

$$$$
NCL-00024905
  -OEChem-03282016173D

 35 35  0     1  0  0  0  0  0999 V2000
   13.0979   -1.5146   22.9795 C   0  0  0  0  0  0  0  0  0  0  0  0
   14.2495   -1.1956   22.8637 C   0  0  0  0  0  0  0  0  0  0  0  0
    6.1748    1.0375   20.6366 C   0  0  0  0  0  0  0  0  0  0  0  0
    7.5330    0.0765   18.8848 C   0  0  0  0  0  0  0  0  0  0  0  0
    5.3051    1.5566   19.6776 C   0  0  0  0  0  0  0  0  0  0  0  0
    6.6632    0.5956   17.9257 C   0  0  0  0  0  0  0  0  0  0  0  0
    7.2888    0.2975   20.2402 C   0  0  0  0  0  0  0  0  0  0  0  0
    5.5492    1.3356   18.3222 C   0  0  0  0  0  0  0  0  0  0  0  0
    8.0708    2.0526   23.2644 C   0  0  0  0  0  0  0  0  0  0  0  0
   10.2649    0.0911   22.7025 C   0  0  0  0  0  0  0  0  0  0  0  0
    7.6852    3.4505   23.6185 C   0  0  0  0  0  0  0  0  0  0  0  0
   11.6965   -1.9067   23.1235 C   0  0  0  0  0  0  0  0  0  0  0  0
    8.2296   -0.2647   21.2777 C   0  0  0  0  0  0  0  0  0  0  0  0
    9.3679    0.6997   21.6305 C   0  0  1  0  0  0  0  0  0  0  0  0
   10.8413   -1.0998   22.2831 N   0  0  0  0  0  0  0  0  0  0  0  0
    8.8791    1.9540   22.1452 N   0  0  0  0  0  0  0  0  0  0  0  0
    7.6692    1.1221   23.9533 O   0  0  0  0  0  0  0  0  0  0  0  0
   10.4103    0.5909   23.8161 O   0  0  0  0  0  0  0  0  0  0  0  0
    4.6997    1.8411   17.3866 O   0  0  0  0  0  0  0  0  0  0  0  0
   16.0722   -0.6909   22.6801 Br  0  0  0  0  0  0  0  0  0  0  0  0
    5.9769    1.2146   21.6903 H   0  0  0  0  0  0  0  0  0  0  0  0
    8.3986   -0.4989   18.5666 H   0  0  0  0  0  0  0  0  0  0  0  0
    4.4387    2.1321   19.9927 H   0  0  0  0  0  0  0  0  0  0  0  0
    6.8586    0.4197   16.8716 H   0  0  0  0  0  0  0  0  0  0  0  0
    6.7501    3.7658   23.1283 H   0  0  0  0  0  0  0  0  0  0  0  0
    7.5046    3.5762   24.6982 H   0  0  0  0  0  0  0  0  0  0  0  0
    8.4248    4.2241   23.3567 H   0  0  0  0  0  0  0  0  0  0  0  0
   11.3550   -1.7827   24.1553 H   0  0  0  0  0  0  0  0  0  0  0  0
   11.5518   -2.9520   22.8348 H   0  0  0  0  0  0  0  0  0  0  0  0
    7.6654   -0.5338   22.1809 H   0  0  0  0  0  0  0  0  0  0  0  0
    8.6337   -1.2124   20.8978 H   0  0  0  0  0  0  0  0  0  0  0  0
    9.9740    0.9388   20.7487 H   0  0  0  0  0  0  0  0  0  0  0  0
   10.6526   -1.4203   21.3379 H   0  0  0  0  0  0  0  0  0  0  0  0
    9.1414    2.8099   21.6616 H   0  0  0  0  0  0  0  0  0  0  0  0
    5.0017    1.6044   16.4952 H   0  0  0  0  0  0  0  0  0  0  0  0
  1  2  3  0  0  0  0
  1 12  1  0  0  0  0
  2 20  1  0  0  0  0
  3  5  2  0  0  0  0
  3  7  1  0  0  0  0
  4  6  1  0  0  0  0
  4  7  2  0  0  0  0
  5  8  1  0  0  0  0
  6  8  2  0  0  0  0
  7 13  1  0  0  0  0
  8 19  1  0  0  0  0
  9 11  1  0  0  0  0
  9 16  1  0  0  0  0
  9 17  2  0  0  0  0
 10 14  1  0  0  0  0
 10 15  1  0  0  0  0
 10 18  2  0  0  0  0
 12 15  1  0  0  0  0
 13 14  1  0  0  0  0
 14 16  1  0  0  0  0
  3 21  1  0  0  0  0
  4 22  1  0  0  0  0
  5 23  1  0  0  0  0
  6 24  1  0  0  0  0
 11 25  1  0  0  0  0
 11 26  1  0  0  0  0
 11 27  1  0  0  0  0
 12 28  1  0  0  0  0
 12 29  1  0  0  0  0
 13 30  1  0  0  0  0
 13 31  1  0  0  0  0
 14 32  1  0  0  0  0
 15 33  1  0  0  0  0
 16 34  1  0  0  0  0
 19 35  1  0  0  0  0
M  END
> <fragments>
x0967

> <Hybrid2>
-6.092483

$$$$
NCL-00025058
  -OEChem-03282016173D

 28 27  0     1  0  0  0  0  0999 V2000
    6.9836   -5.1278   22.8581 C   0  0  0  0  0  0  0  0  0  0  0  0
    7.8971   -5.0108   23.6283 C   0  0  0  0  0  0  0  0  0  0  0  0
    0.6046   -5.6021   22.6402 C   0  0  0  0  0  0  0  0  0  0  0  0
    3.7576   -5.4170   23.2089 C   0  0  0  0  0  0  0  0  0  0  0  0
   -0.3420   -5.8346   21.5096 C   0  0  0  0  0  0  0  0  0  0  0  0
    2.4709   -8.6527   24.8712 C   0  0  0  0  0  0  0  0  0  0  0  0
    5.8733   -5.2675   21.9167 C   0  0  0  0  0  0  0  0  0  0  0  0
    2.7111   -6.4259   23.6729 C   0  0  2  0  0  0  0  0  0  0  0  0
    3.3363   -7.8007   23.9506 C   0  0  1  0  0  0  0  0  0  0  0  0
    4.7878   -6.0197   22.5010 N   0  0  0  0  0  0  0  0  0  0  0  0
    1.6790   -6.4748   22.6691 N   0  0  0  0  0  0  0  0  0  0  0  0
    0.3852   -4.6957   23.4352 O   0  0  0  0  0  0  0  0  0  0  0  0
    3.6592   -4.2083   23.4106 O   0  0  0  0  0  0  0  0  0  0  0  0
    4.6163   -7.6577   24.5645 O   0  0  0  0  0  0  0  0  0  0  0  0
    9.3427   -4.8253   24.8475 Br  0  0  0  0  0  0  0  0  0  0  0  0
   -1.1453   -6.5415   21.7723 H   0  0  0  0  0  0  0  0  0  0  0  0
   -0.8568   -4.9123   21.1959 H   0  0  0  0  0  0  0  0  0  0  0  0
    0.1116   -6.2398   20.5909 H   0  0  0  0  0  0  0  0  0  0  0  0
    2.2902   -8.1510   25.8281 H   0  0  0  0  0  0  0  0  0  0  0  0
    2.9331   -9.6256   25.0637 H   0  0  0  0  0  0  0  0  0  0  0  0
    1.4872   -8.8193   24.4185 H   0  0  0  0  0  0  0  0  0  0  0  0
    6.1869   -5.7933   21.0102 H   0  0  0  0  0  0  0  0  0  0  0  0
    5.4792   -4.2882   21.6295 H   0  0  0  0  0  0  0  0  0  0  0  0
    2.2394   -6.0388   24.5843 H   0  0  0  0  0  0  0  0  0  0  0  0
    3.4853   -8.3473   23.0122 H   0  0  0  0  0  0  0  0  0  0  0  0
    4.7780   -7.0293   22.3894 H   0  0  0  0  0  0  0  0  0  0  0  0
    1.7428   -7.1868   21.9447 H   0  0  0  0  0  0  0  0  0  0  0  0
    4.9739   -8.5529   24.6658 H   0  0  0  0  0  0  0  0  0  0  0  0
  1  2  3  0  0  0  0
  1  7  1  0  0  0  0
  2 15  1  0  0  0  0
  3  5  1  0  0  0  0
  3 11  1  0  0  0  0
  3 12  2  0  0  0  0
  4  8  1  0  0  0  0
  4 10  1  0  0  0  0
  4 13  2  0  0  0  0
  6  9  1  0  0  0  0
  7 10  1  0  0  0  0
  8  9  1  0  0  0  0
  8 11  1  0  0  0  0
  9 14  1  0  0  0  0
  5 16  1  0  0  0  0
  5 17  1  0  0  0  0
  5 18  1  0  0  0  0
  6 19  1  0  0  0  0
  6 20  1  0  0  0  0
  6 21  1  0  0  0  0
  7 22  1  0  0  0  0
  7 23  1  0  0  0  0
  8 24  1  0  0  0  0
  9 25  1  0  0  0  0
 10 26  1  0  0  0  0
 11 27  1  0  0  0  0
 14 28  1  0  0  0  0
M  END
> <fragments>
x0978

> <Hybrid2>
-4.174518

$$$$
NCL-00025412 
  -OEChem-03282016173D

 28 27  0     1  0  0  0  0  0999 V2000
    6.6476   -5.6669   22.4487 C   0  0  0  0  0  0  0  0  0  0  0  0
    7.6867   -6.0764   22.0086 C   0  0  0  0  0  0  0  0  0  0  0  0
    0.5096   -7.5141   21.1725 C   0  0  0  0  0  0  0  0  0  0  0  0
    2.4817   -8.4747   25.1208 C   0  0  0  0  0  0  0  0  0  0  0  0
    3.0313   -5.8902   23.2556 C   0  0  0  0  0  0  0  0  0  0  0  0
   -0.5387   -6.8710   20.3265 C   0  0  0  0  0  0  0  0  0  0  0  0
    5.3840   -5.1641   22.9864 C   0  0  0  0  0  0  0  0  0  0  0  0
    1.5299   -7.5798   24.3467 C   0  0  0  0  0  0  0  0  0  0  0  0
    2.1131   -7.0836   23.0234 C   0  0  1  0  0  0  0  0  0  0  0  0
    1.9240   -8.9410   26.2924 N   0  0  0  0  0  0  0  0  0  0  0  0
    4.3275   -6.1339   22.8239 N   0  0  0  0  0  0  0  0  0  0  0  0
    1.0835   -6.6676   22.1054 N   0  0  0  0  0  0  0  0  0  0  0  0
    0.7845   -8.6957   20.9997 O   0  0  0  0  0  0  0  0  0  0  0  0
    3.6197   -8.7503   24.7525 O   0  0  0  0  0  0  0  0  0  0  0  0
    2.6607   -4.8544   23.8044 O   0  0  0  0  0  0  0  0  0  0  0  0
    9.3315   -6.7248   21.3121 Br  0  0  0  0  0  0  0  0  0  0  0  0
   -0.1229   -6.4238   19.4092 H   0  0  0  0  0  0  0  0  0  0  0  0
   -1.2994   -7.5894   19.9811 H   0  0  0  0  0  0  0  0  0  0  0  0
   -1.1052   -6.0607   20.8127 H   0  0  0  0  0  0  0  0  0  0  0  0
    5.0721   -4.2494   22.4740 H   0  0  0  0  0  0  0  0  0  0  0  0
    5.4727   -4.9486   24.0553 H   0  0  0  0  0  0  0  0  0  0  0  0
    1.2865   -6.7299   24.9968 H   0  0  0  0  0  0  0  0  0  0  0  0
    0.5970   -8.1314   24.1734 H   0  0  0  0  0  0  0  0  0  0  0  0
    2.6793   -7.8757   22.5197 H   0  0  0  0  0  0  0  0  0  0  0  0
    0.9795   -8.6840   26.5591 H   0  0  0  0  0  0  0  0  0  0  0  0
    2.4273   -9.5521   26.9277 H   0  0  0  0  0  0  0  0  0  0  0  0
    4.5537   -7.0217   22.3852 H   0  0  0  0  0  0  0  0  0  0  0  0
    0.7621   -5.7028   22.1447 H   0  0  0  0  0  0  0  0  0  0  0  0
  1  2  3  0  0  0  0
  1  7  1  0  0  0  0
  2 16  1  0  0  0  0
  3  6  1  0  0  0  0
  3 12  1  0  0  0  0
  3 13  2  0  0  0  0
  4  8  1  0  0  0  0
  4 10  1  0  0  0  0
  4 14  2  0  0  0  0
  5  9  1  0  0  0  0
  5 11  1  0  0  0  0
  5 15  2  0  0  0  0
  7 11  1  0  0  0  0
  8  9  1  0  0  0  0
  9 12  1  0  0  0  0
  6 17  1  0  0  0  0
  6 18  1  0  0  0  0
  6 19  1  0  0  0  0
  7 20  1  0  0  0  0
  7 21  1  0  0  0  0
  8 22  1  0  0  0  0
  8 23  1  0  0  0  0
  9 24  1  0  0  0  0
 10 25  1  0  0  0  0
 10 26  1  0  0  0  0
 11 27  1  0  0  0  0
 12 28  1  0  0  0  0
M  END
> <fragments>
x0981

> <Hybrid2>
-3.172795

$$$$
Z1741969146
  -OEChem-03282016173D

 14 13  0     0  0  0  0  0  0999 V2000
    9.5485   -5.0489   25.6937 C   0  0  0  0  0  0  0  0  0  0  0  0
   10.3932   -2.7902   25.1558 C   0  0  0  0  0  0  0  0  0  0  0  0
   10.6643   -4.2838   25.0932 C   0  0  0  0  0  0  0  0  0  0  0  0
    9.6594   -6.3686   25.7365 N   0  0  0  0  0  0  0  0  0  0  0  0
    8.5081   -4.3663   26.1491 N   0  3  0  0  0  0  0  0  0  0  0  0
   10.2427   -2.4633   26.1900 H   0  0  0  0  0  0  0  0  0  0  0  0
    9.4931   -2.5314   24.5888 H   0  0  0  0  0  0  0  0  0  0  0  0
   11.2357   -2.2309   24.7378 H   0  0  0  0  0  0  0  0  0  0  0  0
   10.8114   -4.5866   24.0497 H   0  0  0  0  0  0  0  0  0  0  0  0
   11.6012   -4.5080   25.6169 H   0  0  0  0  0  0  0  0  0  0  0  0
   10.4800   -6.8374   25.3692 H   0  0  0  0  0  0  0  0  0  0  0  0
    8.9190   -6.9334   26.1377 H   0  0  0  0  0  0  0  0  0  0  0  0
    8.4892   -3.3546   26.0837 H   0  0  0  0  0  0  0  0  0  0  0  0
    7.7162   -4.8385   26.5711 H   0  0  0  0  0  0  0  0  0  0  0  0
  1  3  1  0  0  0  0
  1  4  1  0  0  0  0
  1  5  2  0  0  0  0
  2  3  1  0  0  0  0
  2  6  1  0  0  0  0
  2  7  1  0  0  0  0
  2  8  1  0  0  0  0
  3  9  1  0  0  0  0
  3 10  1  0  0  0  0
  4 11  1  0  0  0  0
  4 12  1  0  0  0  0
  5 13  1  0  0  0  0
  5 14  1  0  0  0  0
M  CHG  1   5   1
M  END
> <fragments>
x0387

> <Hybrid2>
-4.595698

$$$$
Z1741970824
  -OEChem-03282016173D

 12 12  0     0  0  0  0  0  0999 V2000
   10.5668   -3.9974   24.8764 C   0  0  0  0  0  0  0  0  0  0  0  0
    9.6045   -3.7522   26.9907 C   0  0  0  0  0  0  0  0  0  0  0  0
    9.8805   -1.9613   25.6182 C   0  0  0  0  0  0  0  0  0  0  0  0
   10.1629   -4.5960   26.0524 C   0  0  0  0  0  0  0  0  0  0  0  0
   10.4402   -2.6779   24.6249 N   0  0  0  0  0  0  0  0  0  0  0  0
    9.4476   -2.4249   26.8062 N   0  0  0  0  0  0  0  0  0  0  0  0
   10.3115   -5.9676   26.2789 N   0  0  0  0  0  0  0  0  0  0  0  0
   11.0176   -4.5730   24.0737 H   0  0  0  0  0  0  0  0  0  0  0  0
    9.2560   -4.1227   27.9500 H   0  0  0  0  0  0  0  0  0  0  0  0
    9.7658   -0.8988   25.4427 H   0  0  0  0  0  0  0  0  0  0  0  0
   10.6811   -6.5574   25.5526 H   0  0  0  0  0  0  0  0  0  0  0  0
    9.9618   -6.3745   27.1300 H   0  0  0  0  0  0  0  0  0  0  0  0
  1  4  1  0  0  0  0
  1  5  2  0  0  0  0
  2  4  2  0  0  0  0
  2  6  1  0  0  0  0
  3  5  1  0  0  0  0
  3  6  2  0  0  0  0
  4  7  1  0  0  0  0
  1  8  1  0  0  0  0
  2  9  1  0  0  0  0
  3 10  1  0  0  0  0
  7 11  1  0  0  0  0
  7 12  1  0  0  0  0
M  END
> <fragments>
x0387

> <Hybrid2>
-3.957347

$$$$
Z1741982125
  -OEChem-03282016173D

 12 12  0     0  0  0  0  0  0999 V2000
    9.2439   -3.2989   24.3850 C   0  0  0  0  0  0  0  0  0  0  0  0
    8.1942   -4.0987   24.6164 C   0  0  0  0  0  0  0  0  0  0  0  0
   10.5254   -3.5532   24.9951 C   0  0  0  0  0  0  0  0  0  0  0  0
   10.6706   -4.6061   25.8074 C   0  0  0  0  0  0  0  0  0  0  0  0
    8.3513   -5.2755   25.5223 C   0  0  0  0  0  0  0  0  0  0  0  0
    9.6155   -5.4458   26.0660 N   0  0  0  0  0  0  0  0  0  0  0  0
    7.3990   -6.0186   25.7450 O   0  0  0  0  0  0  0  0  0  0  0  0
    9.1527   -2.4389   23.7309 H   0  0  0  0  0  0  0  0  0  0  0  0
    7.2256   -3.9205   24.1654 H   0  0  0  0  0  0  0  0  0  0  0  0
   11.3493   -2.8827   24.7824 H   0  0  0  0  0  0  0  0  0  0  0  0
   11.6063   -4.8489   26.2945 H   0  0  0  0  0  0  0  0  0  0  0  0
    9.7804   -6.2302   26.6899 H   0  0  0  0  0  0  0  0  0  0  0  0
  1  2  2  0  0  0  0
  1  3  1  0  0  0  0
  2  5  1  0  0  0  0
  3  4  2  0  0  0  0
  4  6  1  0  0  0  0
  5  6  1  0  0  0  0
  5  7  2  0  0  0  0
  1  8  1  0  0  0  0
  2  9  1  0  0  0  0
  3 10  1  0  0  0  0
  4 11  1  0  0  0  0
  6 12  1  0  0  0  0
M  END
> <fragments>
x0387

> <Hybrid2>
-4.679280

$$$$
Z3241250482
  -OEChem-03282016173D

 13 13  0     0  0  0  0  0  0999 V2000
   10.5914   -4.4158   25.2774 C   0  0  0  0  0  0  0  0  0  0  0  0
    8.7100   -4.5878   26.4502 C   0  0  0  0  0  0  0  0  0  0  0  0
    9.5018   -5.4987   25.4794 C   0  0  0  0  0  0  0  0  0  0  0  0
    8.6685   -2.7170   24.5494 O   0  0  0  0  0  0  0  0  0  0  0  0
    9.9607   -2.2466   26.6918 O   0  0  0  0  0  0  0  0  0  0  0  0
    9.9609   -6.7407   26.0431 O   0  0  0  0  0  0  0  0  0  0  0  0
    9.4267   -3.1564   25.7015 S   0  0  0  0  0  0  0  0  0  0  0  0
   11.4290   -4.4669   25.9802 H   0  0  0  0  0  0  0  0  0  0  0  0
   10.9764   -4.3303   24.2579 H   0  0  0  0  0  0  0  0  0  0  0  0
    7.6226   -4.6366   26.3485 H   0  0  0  0  0  0  0  0  0  0  0  0
    8.9825   -4.6908   27.5055 H   0  0  0  0  0  0  0  0  0  0  0  0
    8.9446   -5.6965   24.5536 H   0  0  0  0  0  0  0  0  0  0  0  0
    9.1793   -7.3045   26.1067 H   0  0  0  0  0  0  0  0  0  0  0  0
  1  3  1  0  0  0  0
  1  7  1  0  0  0  0
  2  3  1  0  0  0  0
  2  7  1  0  0  0  0
  3  6  1  0  0  0  0
  4  7  2  0  0  0  0
  5  7  2  0  0  0  0
  1  8  1  0  0  0  0
  1  9  1  0  0  0  0
  2 10  1  0  0  0  0
  2 11  1  0  0  0  0
  3 12  1  0  0  0  0
  6 13  1  0  0  0  0
M  END
> <fragments>
x0387

> <Hybrid2>
-3.273957

$$$$
Z1348371854
  -OEChem-03282016173D

 28 29  0     1  0  0  0  0  0999 V2000
    9.2706   -0.0093   21.2521 C   0  0  0  0  0  0  0  0  0  0  0  0
   10.1427   -1.9815   22.4146 C   0  0  0  0  0  0  0  0  0  0  0  0
    9.8714   -3.1917   23.0432 C   0  0  0  0  0  0  0  0  0  0  0  0
    7.5595   -2.8383   22.6108 C   0  0  0  0  0  0  0  0  0  0  0  0
    9.0735   -1.2586   21.9107 C   0  0  0  0  0  0  0  0  0  0  0  0
    8.5578   -3.6354   23.1474 C   0  0  0  0  0  0  0  0  0  0  0  0
    6.2112   -4.8285   25.1781 C   0  0  0  0  0  0  0  0  0  0  0  0
    6.8789   -5.3403   23.8995 C   0  0  0  0  0  0  0  0  0  0  0  0
    9.2328   -5.5397   24.6163 C   0  0  0  0  0  0  0  0  0  0  0  0
    7.0172   -5.1026   26.4493 C   0  0  0  0  0  0  0  0  0  0  0  0
    9.3703   -4.8714   25.9848 C   0  0  0  0  0  0  0  0  0  0  0  0
    9.4309    1.0076   20.7163 N   0  0  0  0  0  0  0  0  0  0  0  0
    7.7843   -1.6571   21.9929 N   0  0  0  0  0  0  0  0  0  0  0  0
    8.2547   -4.8444   23.7734 N   0  0  3  0  0  0  0  0  0  0  0  0
    8.1762   -4.2759   26.4892 O   0  0  0  0  0  0  0  0  0  0  0  0
   11.1649   -1.6275   22.3277 H   0  0  0  0  0  0  0  0  0  0  0  0
   10.6900   -3.7799   23.4490 H   0  0  0  0  0  0  0  0  0  0  0  0
    6.5152   -3.1319   22.6605 H   0  0  0  0  0  0  0  0  0  0  0  0
    6.0891   -3.7437   25.0700 H   0  0  0  0  0  0  0  0  0  0  0  0
    5.2047   -5.2536   25.2704 H   0  0  0  0  0  0  0  0  0  0  0  0
    6.8726   -6.4251   23.9155 H   0  0  0  0  0  0  0  0  0  0  0  0
    6.3054   -5.0002   23.0432 H   0  0  0  0  0  0  0  0  0  0  0  0
   10.2234   -5.5095   24.1329 H   0  0  0  0  0  0  0  0  0  0  0  0
    8.9699   -6.6051   24.7122 H   0  0  0  0  0  0  0  0  0  0  0  0
    6.4230   -4.9936   27.3575 H   0  0  0  0  0  0  0  0  0  0  0  0
    7.3804   -6.1307   26.4098 H   0  0  0  0  0  0  0  0  0  0  0  0
    9.6590   -5.6432   26.7210 H   0  0  0  0  0  0  0  0  0  0  0  0
   10.1944   -4.1307   26.0003 H   0  0  0  0  0  0  0  0  0  0  0  0
  1  5  1  0  0  0  0
  1 12  3  0  0  0  0
  2  3  2  0  0  0  0
  2  5  1  0  0  0  0
  3  6  1  0  0  0  0
  4  6  2  0  0  0  0
  4 13  1  0  0  0  0
  5 13  2  0  0  0  0
  6 14  1  0  0  0  0
  7  8  1  0  0  0  0
  7 10  1  0  0  0  0
  8 14  1  0  0  0  0
  9 11  1  0  0  0  0
  9 14  1  0  0  0  0
 10 15  1  0  0  0  0
 11 15  1  0  0  0  0
  2 16  1  0  0  0  0
  3 17  1  0  0  0  0
  4 18  1  0  0  0  0
  7 19  1  0  0  0  0
  7 20  1  0  0  0  0
  8 21  1  0  0  0  0
  8 22  1  0  0  0  0
  9 23  1  0  0  0  0
  9 24  1  0  0  0  0
 10 25  1  0  0  0  0
 10 26  1  0  0  0  0
 11 27  1  0  0  0  0
 11 28  1  0  0  0  0
M  END
> <fragments>
x1077

> <Hybrid2>
-7.238197

$$$$
Z1849009686
  -OEChem-03282016173D

 23 23  0     0  0  0  0  0  0999 V2000
    8.0658   -0.6709   -7.6910 C   0  0  0  0  0  0  0  0  0  0  0  0
    8.4250   -1.6817   -8.5825 C   0  0  0  0  0  0  0  0  0  0  0  0
    6.7393   -3.1242   -7.6262 C   0  0  0  0  0  0  0  0  0  0  0  0
    7.0433   -0.8868   -6.7670 C   0  0  0  0  0  0  0  0  0  0  0  0
    6.3801   -2.1134   -6.7346 C   0  0  0  0  0  0  0  0  0  0  0  0
    7.7618   -2.9084   -8.5501 C   0  0  0  0  0  0  0  0  0  0  0  0
    5.2836   -2.3685   -5.7532 C   0  0  0  0  0  0  0  0  0  0  0  0
    6.6772    0.2102   -5.8219 C   0  0  0  0  0  0  0  0  0  0  0  0
    7.1008    2.2503   -7.4680 N   0  0  0  0  0  0  0  0  0  0  0  0
    5.0195    0.7678   -7.7631 O   0  0  0  0  0  0  0  0  0  0  0  0
    5.1568    2.3350   -5.7856 O   0  0  0  0  0  0  0  0  0  0  0  0
    8.1061   -3.8789   -9.4065 F   0  0  0  0  0  0  0  0  0  0  0  0
    5.7956    1.4361   -6.7321 S   0  0  0  0  0  0  0  0  0  0  0  0
    8.5893    0.2811   -7.7230 H   0  0  0  0  0  0  0  0  0  0  0  0
    9.2220   -1.5135   -9.3005 H   0  0  0  0  0  0  0  0  0  0  0  0
    6.2295   -4.0838   -7.6087 H   0  0  0  0  0  0  0  0  0  0  0  0
    5.6932   -2.7862   -4.8262 H   0  0  0  0  0  0  0  0  0  0  0  0
    4.7446   -1.4441   -5.5119 H   0  0  0  0  0  0  0  0  0  0  0  0
    4.5455   -3.0722   -6.1577 H   0  0  0  0  0  0  0  0  0  0  0  0
    7.5584    0.6862   -5.3788 H   0  0  0  0  0  0  0  0  0  0  0  0
    6.0291   -0.1406   -5.0117 H   0  0  0  0  0  0  0  0  0  0  0  0
    7.7023    2.8288   -6.8687 H   0  0  0  0  0  0  0  0  0  0  0  0
    7.6085    1.7615   -8.2156 H   0  0  0  0  0  0  0  0  0  0  0  0
  1  2  2  0  0  0  0
  1  4  1  0  0  0  0
  2  6  1  0  0  0  0
  3  5  1  0  0  0  0
  3  6  2  0  0  0  0
  4  5  2  0  0  0  0
  4  8  1  0  0  0  0
  5  7  1  0  0  0  0
  6 12  1  0  0  0  0
  8 13  1  0  0  0  0
  9 13  1  0  0  0  0
 10 13  2  0  0  0  0
 11 13  2  0  0  0  0
  1 14  1  0  0  0  0
  2 15  1  0  0  0  0
  3 16  1  0  0  0  0
  7 17  1  0  0  0  0
  7 18  1  0  0  0  0
  7 19  1  0  0  0  0
  8 20  1  0  0  0  0
  8 21  1  0  0  0  0
  9 22  1  0  0  0  0
  9 23  1  0  0  0  0
M  END
> <fragments>
x1086

> <Hybrid2>
-8.643620

$$$$
Z316425948_minor
  -OEChem-03282016173D

 38 40  0     0  0  0  0  0  0999 V2000
    4.8975    1.7517   20.4584 C   0  0  0  0  0  0  0  0  0  0  0  0
    5.9782    1.0225   20.9514 C   0  0  0  0  0  0  0  0  0  0  0  0
    4.7153    1.8290   19.0842 C   0  0  0  0  0  0  0  0  0  0  0  0
    8.3704   -0.7062   18.7999 C   0  0  0  0  0  0  0  0  0  0  0  0
    6.8289    0.4020   20.0224 C   0  0  0  0  0  0  0  0  0  0  0  0
    7.9970   -0.4025   20.0914 C   0  0  0  0  0  0  0  0  0  0  0  0
    6.5287    0.5618   18.6727 C   0  0  0  0  0  0  0  0  0  0  0  0
    9.5149    0.2643   21.9565 C   0  0  0  0  0  0  0  0  0  0  0  0
   11.8190    0.8086   22.6711 C   0  0  0  0  0  0  0  0  0  0  0  0
   10.8623   -1.3530   23.3823 C   0  0  0  0  0  0  0  0  0  0  0  0
   13.1035    0.1187   22.2361 C   0  0  0  0  0  0  0  0  0  0  0  0
   12.1359   -2.0728   22.9592 C   0  0  0  0  0  0  0  0  0  0  0  0
   13.8174   -0.8997   24.4359 C   0  0  0  0  0  0  0  0  0  0  0  0
    8.7044   -0.8463   21.3372 C   0  0  0  0  0  0  0  0  0  0  0  0
    5.5010    1.2532   18.1447 N   0  0  0  0  0  0  0  0  0  0  0  0
    7.4732   -0.1160   17.9478 N   0  0  0  0  0  0  0  0  0  0  0  0
   10.6810   -0.1101   22.6241 N   0  0  0  0  0  0  0  0  0  0  0  0
   13.3253   -1.1442   23.0356 N   0  3  0  0  0  0  0  0  0  0  0  0
    9.1232    1.4290   21.8470 O   0  0  0  0  0  0  0  0  0  0  0  0
    4.2126    2.2491   21.1368 H   0  0  0  0  0  0  0  0  0  0  0  0
    6.1486    0.9416   22.0200 H   0  0  0  0  0  0  0  0  0  0  0  0
    3.8775    2.3925   18.6820 H   0  0  0  0  0  0  0  0  0  0  0  0
    9.1930   -1.2894   18.4096 H   0  0  0  0  0  0  0  0  0  0  0  0
   11.9468    1.2166   23.6796 H   0  0  0  0  0  0  0  0  0  0  0  0
   11.5879    1.6526   22.0085 H   0  0  0  0  0  0  0  0  0  0  0  0
    9.9828   -1.9812   23.1913 H   0  0  0  0  0  0  0  0  0  0  0  0
   10.8952   -1.1719   24.4588 H   0  0  0  0  0  0  0  0  0  0  0  0
   13.0454   -0.1727   21.1756 H   0  0  0  0  0  0  0  0  0  0  0  0
   13.9852    0.7655   22.3778 H   0  0  0  0  0  0  0  0  0  0  0  0
   12.3472   -2.9434   23.6020 H   0  0  0  0  0  0  0  0  0  0  0  0
   12.0563   -2.4152   21.9154 H   0  0  0  0  0  0  0  0  0  0  0  0
   13.0310   -0.3725   24.9789 H   0  0  0  0  0  0  0  0  0  0  0  0
   14.0262   -1.8698   24.8908 H   0  0  0  0  0  0  0  0  0  0  0  0
   14.7231   -0.2937   24.3706 H   0  0  0  0  0  0  0  0  0  0  0  0
    7.9820   -1.2020   22.0739 H   0  0  0  0  0  0  0  0  0  0  0  0
    9.3717   -1.6834   21.1262 H   0  0  0  0  0  0  0  0  0  0  0  0
    7.5040   -0.1708   16.9392 H   0  0  0  0  0  0  0  0  0  0  0  0
   14.1170   -1.6552   22.5486 H   0  0  0  0  0  0  0  0  0  0  0  0
  1  2  2  0  0  0  0
  1  3  1  0  0  0  0
  2  5  1  0  0  0  0
  3 15  2  0  0  0  0
  4  6  2  0  0  0  0
  4 16  1  0  0  0  0
  5  6  1  0  0  0  0
  5  7  2  0  0  0  0
  6 14  1  0  0  0  0
  7 15  1  0  0  0  0
  7 16  1  0  0  0  0
  8 14  1  0  0  0  0
  8 17  1  0  0  0  0
  8 19  2  0  0  0  0
  9 11  1  0  0  0  0
  9 17  1  0  0  0  0
 10 12  1  0  0  0  0
 10 17  1  0  0  0  0
 11 18  1  0  0  0  0
 12 18  1  0  0  0  0
 13 18  1  0  0  0  0
  1 20  1  0  0  0  0
  2 21  1  0  0  0  0
  3 22  1  0  0  0  0
  4 23  1  0  0  0  0
  9 24  1  0  0  0  0
  9 25  1  0  0  0  0
 10 26  1  0  0  0  0
 10 27  1  0  0  0  0
 11 28  1  0  0  0  0
 11 29  1  0  0  0  0
 12 30  1  0  0  0  0
 12 31  1  0  0  0  0
 13 32  1  0  0  0  0
 13 33  1  0  0  0  0
 13 34  1  0  0  0  0
 14 35  1  0  0  0  0
 14 36  1  0  0  0  0
 16 37  1  0  0  0  0
 18 38  1  0  0  0  0
M  CHG  1  18   1
M  END
> <fragments>
x1093

> <Hybrid2>
-6.186084

$$$$
Z328695024
  -OEChem-03282016173D

 30 31  0     1  0  0  0  0  0999 V2000
   25.4396   -9.5701    1.4506 C   0  0  0  0  0  0  0  0  0  0  0  0
   23.0383   -6.4584    0.6531 C   0  0  0  0  0  0  0  0  0  0  0  0
   24.5677   -8.4658    1.4795 C   0  0  0  0  0  0  0  0  0  0  0  0
   24.3919   -8.1360    0.1471 C   0  0  0  0  0  0  0  0  0  0  0  0
   23.8959   -7.6887    2.4172 C   0  0  0  0  0  0  0  0  0  0  0  0
   24.3461   -6.4660    5.6774 C   0  0  0  0  0  0  0  0  0  0  0  0
   22.3528   -8.0011    5.5493 C   0  0  0  0  0  0  0  0  0  0  0  0
   25.2791   -9.0920   -1.9986 C   0  0  0  0  0  0  0  0  0  0  0  0
   24.8466   -9.0456    4.2652 C   0  0  0  0  0  0  0  0  0  0  0  0
   23.3229   -7.1285    4.7663 C   0  0  0  0  0  0  0  0  0  0  0  0
   25.7918   -9.9175    0.2079 N   0  0  0  0  0  0  0  0  0  0  0  0
   23.6384   -7.1405   -0.3462 N   0  0  0  0  0  0  0  0  0  0  0  0
   23.1175   -6.6660    1.9891 N   0  0  0  0  0  0  0  0  0  0  0  0
   25.1392   -9.0279   -0.5630 N   0  0  0  0  0  0  0  0  0  0  0  0
   24.0162   -7.9528    3.7930 N   0  0  3  0  0  0  0  0  0  0  0  0
   25.8356  -10.1396    2.2795 H   0  0  0  0  0  0  0  0  0  0  0  0
   22.4070   -5.6318    0.3450 H   0  0  0  0  0  0  0  0  0  0  0  0
   24.9176   -7.2168    6.2328 H   0  0  0  0  0  0  0  0  0  0  0  0
   25.0525   -5.8530    5.1064 H   0  0  0  0  0  0  0  0  0  0  0  0
   23.8531   -5.8099    6.4031 H   0  0  0  0  0  0  0  0  0  0  0  0
   22.8903   -8.7787    6.1030 H   0  0  0  0  0  0  0  0  0  0  0  0
   21.6418   -8.4932    4.8776 H   0  0  0  0  0  0  0  0  0  0  0  0
   21.7833   -7.4128    6.2774 H   0  0  0  0  0  0  0  0  0  0  0  0
   26.1273   -8.4639   -2.2833 H   0  0  0  0  0  0  0  0  0  0  0  0
   25.4520  -10.1284   -2.3017 H   0  0  0  0  0  0  0  0  0  0  0  0
   24.3598   -8.7304   -2.4678 H   0  0  0  0  0  0  0  0  0  0  0  0
   24.8093   -9.0872    5.3637 H   0  0  0  0  0  0  0  0  0  0  0  0
   24.4754   -9.9941    3.8497 H   0  0  0  0  0  0  0  0  0  0  0  0
   25.8849   -8.8842    3.9396 H   0  0  0  0  0  0  0  0  0  0  0  0
   22.7640   -6.3597    4.2216 H   0  0  0  0  0  0  0  0  0  0  0  0
  1  3  1  0  0  0  0
  1 11  2  0  0  0  0
  2 12  1  0  0  0  0
  2 13  2  0  0  0  0
  3  4  1  0  0  0  0
  3  5  2  0  0  0  0
  4 12  2  0  0  0  0
  4 14  1  0  0  0  0
  5 13  1  0  0  0  0
  5 15  1  0  0  0  0
  6 10  1  0  0  0  0
  7 10  1  0  0  0  0
  8 14  1  0  0  0  0
  9 15  1  0  0  0  0
 10 15  1  0  0  0  0
 11 14  1  0  0  0  0
  1 16  1  0  0  0  0
  2 17  1  0  0  0  0
  6 18  1  0  0  0  0
  6 19  1  0  0  0  0
  6 20  1  0  0  0  0
  7 21  1  0  0  0  0
  7 22  1  0  0  0  0
  7 23  1  0  0  0  0
  8 24  1  0  0  0  0
  8 25  1  0  0  0  0
  8 26  1  0  0  0  0
  9 27  1  0  0  0  0
  9 28  1  0  0  0  0
  9 29  1  0  0  0  0
 10 30  1  0  0  0  0
M  END
> <fragments>
x1101

> <Hybrid2>
-1.664622

$$$$
Z271004858
  -OEChem-03282016173D

 28 29  0     0  0  0  0  0  0999 V2000
   23.8593   -0.2840   25.6406 C   0  0  0  0  0  0  0  0  0  0  0  0
   23.8529   -0.5839   26.9983 C   0  0  0  0  0  0  0  0  0  0  0  0
   21.9881    7.5824   24.1211 C   0  0  0  0  0  0  0  0  0  0  0  0
   22.0476    6.1619   22.1677 C   0  0  0  0  0  0  0  0  0  0  0  0
   22.7263    6.6361   24.8318 C   0  0  0  0  0  0  0  0  0  0  0  0
   22.7858    5.2156   22.8784 C   0  0  0  0  0  0  0  0  0  0  0  0
   23.5198    0.9956   25.2154 C   0  0  0  0  0  0  0  0  0  0  0  0
   23.5025    0.4230   27.8832 C   0  0  0  0  0  0  0  0  0  0  0  0
   21.6487    7.3453   22.7890 C   0  0  0  0  0  0  0  0  0  0  0  0
   23.1252    5.4527   24.2105 C   0  0  0  0  0  0  0  0  0  0  0  0
   23.1841    1.9317   26.1801 C   0  0  0  0  0  0  0  0  0  0  0  0
   23.1668    1.6776   27.5078 N   0  0  0  0  0  0  0  0  0  0  0  0
   20.9022    8.3019   22.0698 N   0  0  0  0  0  0  0  0  0  0  0  0
   22.8254    3.2680   25.7878 N   0  0  0  0  0  0  0  0  0  0  0  0
   24.7320    4.9595   26.1856 O   0  0  0  0  0  0  0  0  0  0  0  0
   24.8402    3.4883   24.1550 O   0  0  0  0  0  0  0  0  0  0  0  0
   24.0486    4.2671   25.0994 S   0  0  0  0  0  0  0  0  0  0  0  0
   24.1280   -1.0462   24.9154 H   0  0  0  0  0  0  0  0  0  0  0  0
   24.1139   -1.5745   27.3526 H   0  0  0  0  0  0  0  0  0  0  0  0
   21.6821    8.5010   24.6152 H   0  0  0  0  0  0  0  0  0  0  0  0
   21.7896    5.9676   21.1297 H   0  0  0  0  0  0  0  0  0  0  0  0
   22.9848    6.8314   25.8690 H   0  0  0  0  0  0  0  0  0  0  0  0
   23.0911    4.2970   22.3842 H   0  0  0  0  0  0  0  0  0  0  0  0
   23.5206    1.2420   24.1591 H   0  0  0  0  0  0  0  0  0  0  0  0
   23.4820    0.2401   28.9526 H   0  0  0  0  0  0  0  0  0  0  0  0
   20.5820    9.1244   22.5395 H   0  0  0  0  0  0  0  0  0  0  0  0
   20.6255    8.0986   21.1307 H   0  0  0  0  0  0  0  0  0  0  0  0
   22.1601    3.7374   26.4163 H   0  0  0  0  0  0  0  0  0  0  0  0
  1  2  1  0  0  0  0
  1  7  2  0  0  0  0
  2  8  2  0  0  0  0
  3  5  2  0  0  0  0
  3  9  1  0  0  0  0
  4  6  1  0  0  0  0
  4  9  2  0  0  0  0
  5 10  1  0  0  0  0
  6 10  2  0  0  0  0
  7 11  1  0  0  0  0
  8 12  1  0  0  0  0
  9 13  1  0  0  0  0
 10 17  1  0  0  0  0
 11 12  2  0  0  0  0
 11 14  1  0  0  0  0
 14 17  1  0  0  0  0
 15 17  2  0  0  0  0
 16 17  2  0  0  0  0
  1 18  1  0  0  0  0
  2 19  1  0  0  0  0
  3 20  1  0  0  0  0
  4 21  1  0  0  0  0
  5 22  1  0  0  0  0
  6 23  1  0  0  0  0
  7 24  1  0  0  0  0
  8 25  1  0  0  0  0
 13 26  1  0  0  0  0
 13 27  1  0  0  0  0
 14 28  1  0  0  0  0
M  END
> <fragments>
x1119

> <Hybrid2>
-0.886664

$$$$
Z217038356
  -OEChem-03282016173D

 30 31  0     1  0  0  0  0  0999 V2000
    9.4967  -16.8904   -6.4727 C   0  0  0  0  0  0  0  0  0  0  0  0
   10.5141  -16.6189   -5.5383 C   0  0  0  0  0  0  0  0  0  0  0  0
    8.7621  -17.8982   -5.8974 C   0  0  0  0  0  0  0  0  0  0  0  0
    7.7093  -18.6771   -2.9993 C   0  0  0  0  0  0  0  0  0  0  0  0
    7.8442  -20.8157   -1.7632 C   0  0  0  0  0  0  0  0  0  0  0  0
    6.0843  -19.2223   -1.1200 C   0  0  0  0  0  0  0  0  0  0  0  0
    6.8067  -21.9253   -1.6758 C   0  0  0  0  0  0  0  0  0  0  0  0
    5.1096  -20.4010   -1.0550 C   0  0  2  0  0  0  0  0  0  0  0  0
    4.0322  -20.1654   -0.0063 C   0  0  0  0  0  0  0  0  0  0  0  0
    8.9426  -19.1493   -3.7268 C   0  0  0  0  0  0  0  0  0  0  0  0
   10.4358  -17.3918   -4.4517 N   0  0  0  0  0  0  0  0  0  0  0  0
    9.3605  -18.1587   -4.6998 N   0  0  0  0  0  0  0  0  0  0  0  0
    7.1942  -19.5329   -2.0282 N   0  0  0  0  0  0  0  0  0  0  0  0
    7.2222  -17.5800   -3.2835 O   0  0  0  0  0  0  0  0  0  0  0  0
    5.8145  -21.5984   -0.6995 O   0  0  0  0  0  0  0  0  0  0  0  0
    9.3212  -16.4211   -7.4293 H   0  0  0  0  0  0  0  0  0  0  0  0
   11.3082  -15.8893   -5.6052 H   0  0  0  0  0  0  0  0  0  0  0  0
    7.8869  -18.4379   -6.2320 H   0  0  0  0  0  0  0  0  0  0  0  0
    8.3652  -20.7081   -0.8045 H   0  0  0  0  0  0  0  0  0  0  0  0
    8.5892  -21.0479   -2.5300 H   0  0  0  0  0  0  0  0  0  0  0  0
    5.5560  -18.3137   -1.4148 H   0  0  0  0  0  0  0  0  0  0  0  0
    6.5376  -19.0421   -0.1374 H   0  0  0  0  0  0  0  0  0  0  0  0
    6.3267  -22.1071   -2.6446 H   0  0  0  0  0  0  0  0  0  0  0  0
    7.2851  -22.8584   -1.3621 H   0  0  0  0  0  0  0  0  0  0  0  0
    4.6250  -20.5497   -2.0298 H   0  0  0  0  0  0  0  0  0  0  0  0
    4.4892  -20.0147    0.9723 H   0  0  0  0  0  0  0  0  0  0  0  0
    3.3652  -21.0265    0.0449 H   0  0  0  0  0  0  0  0  0  0  0  0
    3.4477  -19.2811   -0.2625 H   0  0  0  0  0  0  0  0  0  0  0  0
    8.7138  -20.0833   -4.2349 H   0  0  0  0  0  0  0  0  0  0  0  0
    9.7390  -19.3053   -3.0027 H   0  0  0  0  0  0  0  0  0  0  0  0
  1  2  1  0  0  0  0
  1  3  2  0  0  0  0
  2 11  2  0  0  0  0
  3 12  1  0  0  0  0
  4 10  1  0  0  0  0
  4 13  1  0  0  0  0
  4 14  2  0  0  0  0
  5  7  1  0  0  0  0
  5 13  1  0  0  0  0
  6  8  1  0  0  0  0
  6 13  1  0  0  0  0
  7 15  1  0  0  0  0
  8  9  1  0  0  0  0
  8 15  1  0  0  0  0
 10 12  1  0  0  0  0
 11 12  1  0  0  0  0
  1 16  1  0  0  0  0
  2 17  1  0  0  0  0
  3 18  1  0  0  0  0
  5 19  1  0  0  0  0
  5 20  1  0  0  0  0
  6 21  1  0  0  0  0
  6 22  1  0  0  0  0
  7 23  1  0  0  0  0
  7 24  1  0  0  0  0
  8 25  1  0  0  0  0
  9 26  1  0  0  0  0
  9 27  1  0  0  0  0
  9 28  1  0  0  0  0
 10 29  1  0  0  0  0
 10 30  1  0  0  0  0
M  END
> <fragments>
x1132

> <Hybrid2>
-4.214947

$$$$
Z1259086950
  -OEChem-03282016173D

 33 34  0     1  0  0  0  0  0999 V2000
   22.5259   11.9573    7.1616 C   0  0  0  0  0  0  0  0  0  0  0  0
   22.7706   12.7877    8.2553 C   0  0  0  0  0  0  0  0  0  0  0  0
   21.9858   12.4880    5.9901 C   0  0  0  0  0  0  0  0  0  0  0  0
   22.4752   14.1487    8.1775 C   0  0  0  0  0  0  0  0  0  0  0  0
   21.6903   13.8490    5.9123 C   0  0  0  0  0  0  0  0  0  0  0  0
   21.9351   14.6794    7.0061 C   0  0  0  0  0  0  0  0  0  0  0  0
   23.1793   16.9238    5.1355 C   0  0  0  0  0  0  0  0  0  0  0  0
   20.9253   17.9520    5.3416 C   0  0  0  0  0  0  0  0  0  0  0  0
   23.2072   17.4235    3.7017 C   0  0  0  0  0  0  0  0  0  0  0  0
   21.0627   18.3991    3.8889 C   0  0  1  0  0  0  0  0  0  0  0  0
   21.6169   16.1431    6.9218 C   0  0  0  0  0  0  0  0  0  0  0  0
   20.3169   19.7052    3.6535 C   0  0  0  0  0  0  0  0  0  0  0  0
   21.7401   16.6930    5.5297 N   0  3  2  0  0  0  0  0  0  0  0  0
   22.4418   18.6223    3.5735 O   0  0  0  0  0  0  0  0  0  0  0  0
   20.8570   20.6969    4.5094 O   0  0  0  0  0  0  0  0  0  0  0  0
   22.7572   10.8979    7.2219 H   0  0  0  0  0  0  0  0  0  0  0  0
   23.1922   12.3749    9.1672 H   0  0  0  0  0  0  0  0  0  0  0  0
   21.7961   11.8420    5.1380 H   0  0  0  0  0  0  0  0  0  0  0  0
   22.6691   14.7881    9.0348 H   0  0  0  0  0  0  0  0  0  0  0  0
   21.2696   14.2536    4.9956 H   0  0  0  0  0  0  0  0  0  0  0  0
   23.7119   15.9734    5.2379 H   0  0  0  0  0  0  0  0  0  0  0  0
   23.5884   17.6658    5.8300 H   0  0  0  0  0  0  0  0  0  0  0  0
   21.3229   18.6971    6.0402 H   0  0  0  0  0  0  0  0  0  0  0  0
   19.8868   17.7147    5.5944 H   0  0  0  0  0  0  0  0  0  0  0  0
   24.2367   17.6579    3.4132 H   0  0  0  0  0  0  0  0  0  0  0  0
   22.8335   16.6679    3.0005 H   0  0  0  0  0  0  0  0  0  0  0  0
   20.6577   17.6388    3.2087 H   0  0  0  0  0  0  0  0  0  0  0  0
   20.5916   16.3450    7.2501 H   0  0  0  0  0  0  0  0  0  0  0  0
   22.2913   16.7315    7.5533 H   0  0  0  0  0  0  0  0  0  0  0  0
   19.2567   19.5775    3.8775 H   0  0  0  0  0  0  0  0  0  0  0  0
   20.4355   20.0237    2.6166 H   0  0  0  0  0  0  0  0  0  0  0  0
   21.3557   15.9785    4.8959 H   0  0  0  0  0  0  0  0  0  0  0  0
   20.3649   21.5179    4.3396 H   0  0  0  0  0  0  0  0  0  0  0  0
  1  2  1  0  0  0  0
  1  3  2  0  0  0  0
  2  4  2  0  0  0  0
  3  5  1  0  0  0  0
  4  6  1  0  0  0  0
  5  6  2  0  0  0  0
  6 11  1  0  0  0  0
  7  9  1  0  0  0  0
  7 13  1  0  0  0  0
  8 10  1  0  0  0  0
  8 13  1  0  0  0  0
  9 14  1  0  0  0  0
 10 12  1  0  0  0  0
 10 14  1  0  0  0  0
 11 13  1  0  0  0  0
 12 15  1  0  0  0  0
  1 16  1  0  0  0  0
  2 17  1  0  0  0  0
  3 18  1  0  0  0  0
  4 19  1  0  0  0  0
  5 20  1  0  0  0  0
  7 21  1  0  0  0  0
  7 22  1  0  0  0  0
  8 23  1  0  0  0  0
  8 24  1  0  0  0  0
  9 25  1  0  0  0  0
  9 26  1  0  0  0  0
 10 27  1  0  0  0  0
 11 28  1  0  0  0  0
 11 29  1  0  0  0  0
 12 30  1  0  0  0  0
 12 31  1  0  0  0  0
 13 32  1  0  0  0  0
 15 33  1  0  0  0  0
M  CHG  1  13   1
M  END
> <fragments>
x1163

> <Hybrid2>
-4.460948

$$$$
Z2643472210
  -OEChem-03282016173D

 30 31  0     1  0  0  0  0  0999 V2000
    3.7638   -3.6871  -10.4718 C   0  0  0  0  0  0  0  0  0  0  0  0
    3.7053   -3.8559  -11.8337 C   0  0  0  0  0  0  0  0  0  0  0  0
    4.3736   -2.4301  -10.2989 C   0  0  0  0  0  0  0  0  0  0  0  0
    4.6852   -1.7455   -9.0178 C   0  0  0  0  0  0  0  0  0  0  0  0
    7.1234    0.2006   -5.3278 C   0  0  0  0  0  0  0  0  0  0  0  0
    7.1341   -1.2909   -5.1030 C   0  0  0  0  0  0  0  0  0  0  0  0
    7.6358    0.3045   -6.7462 C   0  0  0  0  0  0  0  0  0  0  0  0
    6.7520   -1.8396   -6.4696 C   0  0  1  0  0  0  0  0  0  0  0  0
    4.4258   -2.4489  -13.7781 C   0  0  0  0  0  0  0  0  0  0  0  0
    5.2533   -2.0591   -6.6230 C   0  0  0  0  0  0  0  0  0  0  0  0
    4.6807   -1.8421  -11.4582 N   0  0  0  0  0  0  0  0  0  0  0  0
    4.2623   -2.7336  -12.3727 N   0  0  0  0  0  0  0  0  0  0  0  0
    4.9603   -2.5677   -7.9246 N   0  0  0  0  0  0  0  0  0  0  0  0
    4.6670   -0.5182   -8.9734 O   0  0  0  0  0  0  0  0  0  0  0  0
    7.1669   -0.8603   -7.4384 O   0  0  0  0  0  0  0  0  0  0  0  0
    3.4139   -4.3776   -9.7182 H   0  0  0  0  0  0  0  0  0  0  0  0
    3.3239   -4.6601  -12.4476 H   0  0  0  0  0  0  0  0  0  0  0  0
    6.1403    0.6589   -5.1929 H   0  0  0  0  0  0  0  0  0  0  0  0
    7.8250    0.6852   -4.6386 H   0  0  0  0  0  0  0  0  0  0  0  0
    8.1027   -1.6701   -4.7498 H   0  0  0  0  0  0  0  0  0  0  0  0
    6.3775   -1.5547   -4.3474 H   0  0  0  0  0  0  0  0  0  0  0  0
    7.2230    1.1819   -7.2536 H   0  0  0  0  0  0  0  0  0  0  0  0
    8.7264    0.3504   -6.7971 H   0  0  0  0  0  0  0  0  0  0  0  0
    7.2835   -2.7622   -6.6826 H   0  0  0  0  0  0  0  0  0  0  0  0
    3.5296   -1.9265  -14.1230 H   0  0  0  0  0  0  0  0  0  0  0  0
    5.3118   -1.8243  -13.9224 H   0  0  0  0  0  0  0  0  0  0  0  0
    4.5566   -3.3874  -14.3241 H   0  0  0  0  0  0  0  0  0  0  0  0
    4.9413   -2.7752   -5.8600 H   0  0  0  0  0  0  0  0  0  0  0  0
    4.7584   -1.0972   -6.4744 H   0  0  0  0  0  0  0  0  0  0  0  0
    4.8913   -3.5818   -8.0383 H   0  0  0  0  0  0  0  0  0  0  0  0
  1  2  2  0  0  0  0
  1  3  1  0  0  0  0
  2 12  1  0  0  0  0
  3  4  1  0  0  0  0
  3 11  2  0  0  0  0
  4 13  1  0  0  0  0
  4 14  2  0  0  0  0
  5  6  1  0  0  0  0
  5  7  1  0  0  0  0
  6  8  1  0  0  0  0
  7 15  1  0  0  0  0
  8 10  1  0  0  0  0
  8 15  1  0  0  0  0
  9 12  1  0  0  0  0
 10 13  1  0  0  0  0
 11 12  1  0  0  0  0
  1 16  1  0  0  0  0
  2 17  1  0  0  0  0
  5 18  1  0  0  0  0
  5 19  1  0  0  0  0
  6 20  1  0  0  0  0
  6 21  1  0  0  0  0
  7 22  1  0  0  0  0
  7 23  1  0  0  0  0
  8 24  1  0  0  0  0
  9 25  1  0  0  0  0
  9 26  1  0  0  0  0
  9 27  1  0  0  0  0
 10 28  1  0  0  0  0
 10 29  1  0  0  0  0
 13 30  1  0  0  0  0
M  END
> <fragments>
x1187

> <Hybrid2>
-4.117119

$$$$
Z1271660837
  -OEChem-03282016173D

 23 23  0     0  0  0  0  0  0999 V2000
   21.7795  -23.9383   24.9225 C   0  0  0  0  0  0  0  0  0  0  0  0
   21.3047  -22.7066   24.5477 C   0  0  0  0  0  0  0  0  0  0  0  0
   21.9984  -18.4899   24.1788 C   0  0  0  0  0  0  0  0  0  0  0  0
   20.8032  -26.2335   24.5999 C   0  0  0  0  0  0  0  0  0  0  0  0
   21.9197  -21.3539   24.7553 C   0  0  0  0  0  0  0  0  0  0  0  0
   23.0800  -19.4220   23.6781 C   0  0  0  0  0  0  0  0  0  0  0  0
   20.1071  -22.8521   23.9043 N   0  0  0  0  0  0  0  0  0  0  0  0
   19.8184  -24.1484   23.8674 N   0  0  0  0  0  0  0  0  0  0  0  0
   20.8224  -24.7979   24.4786 N   0  0  0  0  0  0  0  0  0  0  0  0
   22.5132  -20.7871   23.5154 N   0  3  0  0  0  0  0  0  0  0  0  0
   22.6713  -24.2631   25.4396 H   0  0  0  0  0  0  0  0  0  0  0  0
   21.1841  -18.4298   23.4503 H   0  0  0  0  0  0  0  0  0  0  0  0
   21.5792  -18.8431   25.1267 H   0  0  0  0  0  0  0  0  0  0  0  0
   22.3884  -17.4786   24.3348 H   0  0  0  0  0  0  0  0  0  0  0  0
   20.3020  -26.4861   25.5379 H   0  0  0  0  0  0  0  0  0  0  0  0
   20.2647  -26.6635   23.7508 H   0  0  0  0  0  0  0  0  0  0  0  0
   21.8300  -26.6099   24.6004 H   0  0  0  0  0  0  0  0  0  0  0  0
   21.1761  -20.6307   25.1072 H   0  0  0  0  0  0  0  0  0  0  0  0
   22.7233  -21.3946   25.4986 H   0  0  0  0  0  0  0  0  0  0  0  0
   23.9074  -19.5004   24.3887 H   0  0  0  0  0  0  0  0  0  0  0  0
   23.4592  -19.1130   22.7002 H   0  0  0  0  0  0  0  0  0  0  0  0
   23.2503  -21.4196   23.1747 H   0  0  0  0  0  0  0  0  0  0  0  0
   21.7967  -20.7688   22.7766 H   0  0  0  0  0  0  0  0  0  0  0  0
  1  2  2  0  0  0  0
  1  9  1  0  0  0  0
  2  5  1  0  0  0  0
  2  7  1  0  0  0  0
  3  6  1  0  0  0  0
  4  9  1  0  0  0  0
  5 10  1  0  0  0  0
  6 10  1  0  0  0  0
  7  8  2  0  0  0  0
  8  9  1  0  0  0  0
  1 11  1  0  0  0  0
  3 12  1  0  0  0  0
  3 13  1  0  0  0  0
  3 14  1  0  0  0  0
  4 15  1  0  0  0  0
  4 16  1  0  0  0  0
  4 17  1  0  0  0  0
  5 18  1  0  0  0  0
  5 19  1  0  0  0  0
  6 20  1  0  0  0  0
  6 21  1  0  0  0  0
 10 22  1  0  0  0  0
 10 23  1  0  0  0  0
M  CHG  1  10   1
M  END
> <fragments>
x1226

> <Hybrid2>
-2.522496

$$$$
Z979145504
  -OEChem-03282016173D

 29 30  0     0  0  0  0  0  0999 V2000
   19.6502  -20.4197   13.7621 C   0  0  0  0  0  0  0  0  0  0  0  0
   20.6024  -21.4363   13.6879 C   0  0  0  0  0  0  0  0  0  0  0  0
   19.3323  -19.8505   14.9952 C   0  0  0  0  0  0  0  0  0  0  0  0
   21.2366  -21.8837   14.8468 C   0  0  0  0  0  0  0  0  0  0  0  0
   19.9666  -20.2979   16.1542 C   0  0  0  0  0  0  0  0  0  0  0  0
   20.9188  -21.3146   16.0800 C   0  0  0  0  0  0  0  0  0  0  0  0
   21.5715  -21.7751   17.2734 C   0  0  0  0  0  0  0  0  0  0  0  0
   21.4975  -23.0793   17.7158 C   0  0  0  0  0  0  0  0  0  0  0  0
   22.8044  -21.5819   19.0769 C   0  0  0  0  0  0  0  0  0  0  0  0
   20.8439  -25.5047   17.7464 C   0  0  0  0  0  0  0  0  0  0  0  0
   23.6601  -20.9938   20.1305 C   0  0  0  0  0  0  0  0  0  0  0  0
   19.9811  -27.6835   17.3491 C   0  0  0  0  0  0  0  0  0  0  0  0
   22.3201  -20.9150   18.0528 N   0  0  0  0  0  0  0  0  0  0  0  0
   20.8714  -24.1926   17.2293 N   0  0  0  0  0  0  0  0  0  0  0  0
   21.4007  -25.8933   18.7660 O   0  0  0  0  0  0  0  0  0  0  0  0
   20.0924  -26.3158   16.9384 O   0  0  0  0  0  0  0  0  0  0  0  0
   22.3997  -23.2473   19.1647 S   0  0  0  0  0  0  0  0  0  0  0  0
   19.1570  -20.0705   12.8597 H   0  0  0  0  0  0  0  0  0  0  0  0
   20.8509  -21.8788   12.7277 H   0  0  0  0  0  0  0  0  0  0  0  0
   18.5919  -19.0581   15.0526 H   0  0  0  0  0  0  0  0  0  0  0  0
   21.9768  -22.6771   14.7726 H   0  0  0  0  0  0  0  0  0  0  0  0
   19.7076  -19.8438   17.1079 H   0  0  0  0  0  0  0  0  0  0  0  0
   23.0509  -20.6023   20.9600 H   0  0  0  0  0  0  0  0  0  0  0  0
   24.3640  -21.7323   20.5476 H   0  0  0  0  0  0  0  0  0  0  0  0
   24.2767  -20.1658   19.7439 H   0  0  0  0  0  0  0  0  0  0  0  0
   19.3628  -28.2306   16.6331 H   0  0  0  0  0  0  0  0  0  0  0  0
   19.5326  -27.7306   18.3446 H   0  0  0  0  0  0  0  0  0  0  0  0
   20.9787  -28.1278   17.3796 H   0  0  0  0  0  0  0  0  0  0  0  0
   20.3377  -24.0519   16.3497 H   0  0  0  0  0  0  0  0  0  0  0  0
  1  2  1  0  0  0  0
  1  3  2  0  0  0  0
  2  4  2  0  0  0  0
  3  5  1  0  0  0  0
  4  6  1  0  0  0  0
  5  6  2  0  0  0  0
  6  7  1  0  0  0  0
  7  8  2  0  0  0  0
  7 13  1  0  0  0  0
  8 14  1  0  0  0  0
  8 17  1  0  0  0  0
  9 11  1  0  0  0  0
  9 13  2  0  0  0  0
  9 17  1  0  0  0  0
 10 14  1  0  0  0  0
 10 15  2  0  0  0  0
 10 16  1  0  0  0  0
 12 16  1  0  0  0  0
  1 18  1  0  0  0  0
  2 19  1  0  0  0  0
  3 20  1  0  0  0  0
  4 21  1  0  0  0  0
  5 22  1  0  0  0  0
 11 23  1  0  0  0  0
 11 24  1  0  0  0  0
 11 25  1  0  0  0  0
 12 26  1  0  0  0  0
 12 27  1  0  0  0  0
 12 28  1  0  0  0  0
 14 29  1  0  0  0  0
M  END
> <fragments>
x1235

> <Hybrid2>
-4.372152

$$$$
Z126932614
  -OEChem-03282016173D

 24 25  0     0  0  0  0  0  0999 V2000
   11.1354  -27.3757    3.0570 C   0  0  0  0  0  0  0  0  0  0  0  0
   10.9144  -26.0050    2.9045 C   0  0  0  0  0  0  0  0  0  0  0  0
   12.3651  -27.8612    3.5192 C   0  0  0  0  0  0  0  0  0  0  0  0
   11.9107  -25.0710    3.2073 C   0  0  0  0  0  0  0  0  0  0  0  0
   13.3775  -26.9370    3.8280 C   0  0  0  0  0  0  0  0  0  0  0  0
   13.1273  -25.5773    3.6659 C   0  0  0  0  0  0  0  0  0  0  0  0
   15.1769  -25.9470    4.4125 C   0  0  0  0  0  0  0  0  0  0  0  0
   18.0892  -25.2594    7.1562 C   0  0  0  0  0  0  0  0  0  0  0  0
   16.5371  -25.6181    4.8778 C   0  0  0  0  0  0  0  0  0  0  0  0
   14.6555  -27.1473    4.2926 N   0  0  0  0  0  0  0  0  0  0  0  0
   14.2952  -24.9680    4.0471 N   0  0  0  0  0  0  0  0  0  0  0  0
   15.5378  -25.8130    7.2853 O   0  0  0  0  0  0  0  0  0  0  0  0
   17.1326  -27.5960    6.4797 O   0  0  0  0  0  0  0  0  0  0  0  0
   16.7181  -26.2056    6.5365 S   0  0  0  0  0  0  0  0  0  0  0  0
   10.3411  -28.0770    2.8139 H   0  0  0  0  0  0  0  0  0  0  0  0
    9.9501  -25.6566    2.5424 H   0  0  0  0  0  0  0  0  0  0  0  0
   12.5261  -28.9282    3.6351 H   0  0  0  0  0  0  0  0  0  0  0  0
   11.7406  -24.0068    3.0905 H   0  0  0  0  0  0  0  0  0  0  0  0
   18.2757  -25.5590    8.1886 H   0  0  0  0  0  0  0  0  0  0  0  0
   18.9608  -25.4680    6.5340 H   0  0  0  0  0  0  0  0  0  0  0  0
   17.8278  -24.2013    7.1063 H   0  0  0  0  0  0  0  0  0  0  0  0
   16.7398  -24.5346    4.8908 H   0  0  0  0  0  0  0  0  0  0  0  0
   17.3276  -26.0939    4.2745 H   0  0  0  0  0  0  0  0  0  0  0  0
   14.4699  -23.9717    4.0560 H   0  0  0  0  0  0  0  0  0  0  0  0
  1  2  1  0  0  0  0
  1  3  2  0  0  0  0
  2  4  2  0  0  0  0
  3  5  1  0  0  0  0
  4  6  1  0  0  0  0
  5  6  2  0  0  0  0
  5 10  1  0  0  0  0
  6 11  1  0  0  0  0
  7  9  1  0  0  0  0
  7 10  2  0  0  0  0
  7 11  1  0  0  0  0
  8 14  1  0  0  0  0
  9 14  1  0  0  0  0
 12 14  2  0  0  0  0
 13 14  2  0  0  0  0
  1 15  1  0  0  0  0
  2 16  1  0  0  0  0
  3 17  1  0  0  0  0
  4 18  1  0  0  0  0
  8 19  1  0  0  0  0
  8 20  1  0  0  0  0
  8 21  1  0  0  0  0
  9 22  1  0  0  0  0
  9 23  1  0  0  0  0
 11 24  1  0  0  0  0
M  END
> <fragments>
x1237

> <Hybrid2>
-3.544934

$$$$
Z509756472
  -OEChem-03282016173D

 33 34  0     0  0  0  0  0  0999 V2000
   13.3589   -1.1529   21.5219 C   0  0  0  0  0  0  0  0  0  0  0  0
   11.1158   -1.0421   22.4896 C   0  0  0  0  0  0  0  0  0  0  0  0
   12.7941    0.5525   23.1807 C   0  0  0  0  0  0  0  0  0  0  0  0
   10.1950   -0.4467   23.3517 C   0  0  0  0  0  0  0  0  0  0  0  0
   11.8733    1.1479   24.0429 C   0  0  0  0  0  0  0  0  0  0  0  0
   12.4153   -0.5425   22.4041 C   0  0  0  0  0  0  0  0  0  0  0  0
   10.5737    0.6483   24.1283 C   0  0  0  0  0  0  0  0  0  0  0  0
    7.6616    2.1429   23.7345 C   0  0  0  0  0  0  0  0  0  0  0  0
    5.8682    2.4068   22.0492 C   0  0  0  0  0  0  0  0  0  0  0  0
    5.2820    1.2958   24.1709 C   0  0  0  0  0  0  0  0  0  0  0  0
    5.0182    1.3710   21.3305 C   0  0  0  0  0  0  0  0  0  0  0  0
    4.4375    0.3239   23.3536 C   0  0  0  0  0  0  0  0  0  0  0  0
    9.5822    1.2902   25.0551 C   0  0  0  0  0  0  0  0  0  0  0  0
   14.1254   -1.6488   20.8054 N   0  0  0  0  0  0  0  0  0  0  0  0
    6.3350    1.8985   23.3412 N   0  0  0  0  0  0  0  0  0  0  0  0
    8.2283    1.1791   24.5602 N   0  0  0  0  0  0  0  0  0  0  0  0
    8.2897    3.1465   23.3813 O   0  0  0  0  0  0  0  0  0  0  0  0
    3.9415    0.9539   22.1719 O   0  0  0  0  0  0  0  0  0  0  0  0
   10.8061   -1.8962   21.8920 H   0  0  0  0  0  0  0  0  0  0  0  0
   13.8029    0.9547   23.1244 H   0  0  0  0  0  0  0  0  0  0  0  0
    9.1849   -0.8431   23.4124 H   0  0  0  0  0  0  0  0  0  0  0  0
   12.1767    2.0019   24.6428 H   0  0  0  0  0  0  0  0  0  0  0  0
    6.7059    2.7165   21.4174 H   0  0  0  0  0  0  0  0  0  0  0  0
    5.2675    3.2972   22.2704 H   0  0  0  0  0  0  0  0  0  0  0  0
    4.6634    2.1246   24.5337 H   0  0  0  0  0  0  0  0  0  0  0  0
    5.6884    0.7643   25.0324 H   0  0  0  0  0  0  0  0  0  0  0  0
    4.5825    1.8089   20.4269 H   0  0  0  0  0  0  0  0  0  0  0  0
    5.6117    0.5008   21.0258 H   0  0  0  0  0  0  0  0  0  0  0  0
    5.0094   -0.5713   23.0815 H   0  0  0  0  0  0  0  0  0  0  0  0
    3.5744   -0.0024   23.9427 H   0  0  0  0  0  0  0  0  0  0  0  0
    9.6191    0.8216   26.0446 H   0  0  0  0  0  0  0  0  0  0  0  0
    9.8028    2.3543   25.1908 H   0  0  0  0  0  0  0  0  0  0  0  0
    7.6756    0.3736   24.8233 H   0  0  0  0  0  0  0  0  0  0  0  0
  1  6  1  0  0  0  0
  1 14  3  0  0  0  0
  2  4  2  0  0  0  0
  2  6  1  0  0  0  0
  3  5  1  0  0  0  0
  3  6  2  0  0  0  0
  4  7  1  0  0  0  0
  5  7  2  0  0  0  0
  7 13  1  0  0  0  0
  8 15  1  0  0  0  0
  8 16  1  0  0  0  0
  8 17  2  0  0  0  0
  9 11  1  0  0  0  0
  9 15  1  0  0  0  0
 10 12  1  0  0  0  0
 10 15  1  0  0  0  0
 11 18  1  0  0  0  0
 12 18  1  0  0  0  0
 13 16  1  0  0  0  0
  2 19  1  0  0  0  0
  3 20  1  0  0  0  0
  4 21  1  0  0  0  0
  5 22  1  0  0  0  0
  9 23  1  0  0  0  0
  9 24  1  0  0  0  0
 10 25  1  0  0  0  0
 10 26  1  0  0  0  0
 11 27  1  0  0  0  0
 11 28  1  0  0  0  0
 12 29  1  0  0  0  0
 12 30  1  0  0  0  0
 13 31  1  0  0  0  0
 13 32  1  0  0  0  0
 16 33  1  0  0  0  0
M  END
> <fragments>
x1249

> <Hybrid2>
-4.906038

$$$$
PCM-0102704
  -OEChem-03282016173D

 34 35  0     0  0  0  0  0  0999 V2000
    2.6415   -5.3473   26.2477 C   0  0  0  0  0  0  0  0  0  0  0  0
    3.8574   -3.2839   26.5655 C   0  0  0  0  0  0  0  0  0  0  0  0
    1.5023   -4.6222   25.8982 C   0  0  0  0  0  0  0  0  0  0  0  0
    2.7182   -2.5588   26.2159 C   0  0  0  0  0  0  0  0  0  0  0  0
    3.8190   -4.6781   26.5814 C   0  0  0  0  0  0  0  0  0  0  0  0
    1.5407   -3.2280   25.8822 C   0  0  0  0  0  0  0  0  0  0  0  0
    6.6626   -5.3721   21.2718 C   0  0  0  0  0  0  0  0  0  0  0  0
    5.0924   -5.7027   23.1532 C   0  0  0  0  0  0  0  0  0  0  0  0
    7.4228   -4.9906   23.6496 C   0  0  0  0  0  0  0  0  0  0  0  0
    5.1843   -6.4997   24.4477 C   0  0  0  0  0  0  0  0  0  0  0  0
    6.7947   -4.6417   24.9931 C   0  0  0  0  0  0  0  0  0  0  0  0
    8.0785   -5.6872   20.8548 C   0  0  0  0  0  0  0  0  0  0  0  0
    6.4172   -5.3497   22.6451 N   0  0  0  0  0  0  0  0  0  0  0  0
    5.9774   -5.7814   25.4873 N   0  0  0  0  0  0  0  0  0  0  0  0
    5.8085   -5.1489   20.4109 O   0  0  0  0  0  0  0  0  0  0  0  0
    6.0990   -4.7397   27.8349 O   0  0  0  0  0  0  0  0  0  0  0  0
    4.8342   -6.8931   27.5022 O   0  0  0  0  0  0  0  0  0  0  0  0
    5.2606   -5.5957   27.0238 S   0  0  0  0  0  0  0  0  0  0  0  0
    0.1353   -2.3334   25.4510 Cl  0  0  0  0  0  0  0  0  0  0  0  0
    8.1832   -7.4382   20.7100 Cl  0  0  0  0  0  0  0  0  0  0  0  0
    2.6007   -6.4332   26.2568 H   0  0  0  0  0  0  0  0  0  0  0  0
    4.7695   -2.7526   26.8237 H   0  0  0  0  0  0  0  0  0  0  0  0
    0.5917   -5.1570   25.6405 H   0  0  0  0  0  0  0  0  0  0  0  0
    2.7627   -1.4727   26.2078 H   0  0  0  0  0  0  0  0  0  0  0  0
    4.6009   -6.3011   22.3706 H   0  0  0  0  0  0  0  0  0  0  0  0
    4.4650   -4.8189   23.3155 H   0  0  0  0  0  0  0  0  0  0  0  0
    8.0408   -4.1510   23.2984 H   0  0  0  0  0  0  0  0  0  0  0  0
    8.0943   -5.8584   23.7525 H   0  0  0  0  0  0  0  0  0  0  0  0
    4.1728   -6.7199   24.8402 H   0  0  0  0  0  0  0  0  0  0  0  0
    5.6666   -7.4715   24.2340 H   0  0  0  0  0  0  0  0  0  0  0  0
    7.5960   -4.4273   25.7147 H   0  0  0  0  0  0  0  0  0  0  0  0
    6.1679   -3.7415   24.9060 H   0  0  0  0  0  0  0  0  0  0  0  0
    8.7577   -5.3361   21.6233 H   0  0  0  0  0  0  0  0  0  0  0  0
    8.2741   -5.2219   19.8955 H   0  0  0  0  0  0  0  0  0  0  0  0
  1  3  2  0  0  0  0
  1  5  1  0  0  0  0
  2  4  1  0  0  0  0
  2  5  2  0  0  0  0
  3  6  1  0  0  0  0
  4  6  2  0  0  0  0
  5 18  1  0  0  0  0
  6 19  1  0  0  0  0
  7 12  1  0  0  0  0
  7 13  1  0  0  0  0
  7 15  2  0  0  0  0
  8 10  1  0  0  0  0
  8 13  1  0  0  0  0
  9 11  1  0  0  0  0
  9 13  1  0  0  0  0
 10 14  1  0  0  0  0
 11 14  1  0  0  0  0
 12 20  1  0  0  0  0
 14 18  1  0  0  0  0
 16 18  2  0  0  0  0
 17 18  2  0  0  0  0
  1 21  1  0  0  0  0
  2 22  1  0  0  0  0
  3 23  1  0  0  0  0
  4 24  1  0  0  0  0
  8 25  1  0  0  0  0
  8 26  1  0  0  0  0
  9 27  1  0  0  0  0
  9 28  1  0  0  0  0
 10 29  1  0  0  0  0
 10 30  1  0  0  0  0
 11 31  1  0  0  0  0
 11 32  1  0  0  0  0
 12 33  1  0  0  0  0
 12 34  1  0  0  0  0
M  END
> <fragments>
x1308

> <Hybrid2>
-2.028034

$$$$
PCM-0102372
  -OEChem-03282016173D

 30 31  0     1  0  0  0  0  0999 V2000
    9.4870   -5.3148   25.0798 C   0  0  0  0  0  0  0  0  0  0  0  0
    9.5078   -5.5635   23.7075 C   0  0  0  0  0  0  0  0  0  0  0  0
    8.3384   -4.7955   25.6772 C   0  0  0  0  0  0  0  0  0  0  0  0
    8.3800   -5.2930   22.9326 C   0  0  0  0  0  0  0  0  0  0  0  0
    7.2106   -4.5249   24.9023 C   0  0  0  0  0  0  0  0  0  0  0  0
    7.2314   -4.7737   23.5299 C   0  0  0  0  0  0  0  0  0  0  0  0
    4.3507   -5.0289   24.3262 C   0  0  0  0  0  0  0  0  0  0  0  0
    3.9273   -6.1184   24.9750 C   0  0  0  0  0  0  0  0  0  0  0  0
    6.2253   -3.5439   21.6676 C   0  0  0  0  0  0  0  0  0  0  0  0
    5.0172   -6.7137   22.6946 C   0  0  0  0  0  0  0  0  0  0  0  0
    4.8324   -5.2142   22.9172 C   0  0  2  0  0  0  0  0  0  0  0  0
    7.1540   -2.3912   22.0060 C   0  0  0  0  0  0  0  0  0  0  0  0
    6.0615   -4.4932   22.7257 N   0  0  0  0  0  0  0  0  0  0  0  0
    5.6626   -3.5840   20.5705 O   0  0  0  0  0  0  0  0  0  0  0  0
    4.8701   -8.5223   24.6125 O   0  0  0  0  0  0  0  0  0  0  0  0
    2.7431   -7.8366   23.4218 O   0  0  0  0  0  0  0  0  0  0  0  0
    4.0469   -7.5188   23.9691 S   0  0  0  0  0  0  0  0  0  0  0  0
    6.5428   -1.5113   23.4229 Cl  0  0  0  0  0  0  0  0  0  0  0  0
   10.3647   -5.5260   25.6838 H   0  0  0  0  0  0  0  0  0  0  0  0
   10.4015   -5.9686   23.2422 H   0  0  0  0  0  0  0  0  0  0  0  0
    8.3222   -4.6028   26.7461 H   0  0  0  0  0  0  0  0  0  0  0  0
    8.4078   -5.4910   21.8639 H   0  0  0  0  0  0  0  0  0  0  0  0
    6.3211   -4.1204   25.3788 H   0  0  0  0  0  0  0  0  0  0  0  0
    4.3520   -4.0517   24.7932 H   0  0  0  0  0  0  0  0  0  0  0  0
    3.5664   -6.1441   25.9945 H   0  0  0  0  0  0  0  0  0  0  0  0
    4.5938   -7.0118   21.7278 H   0  0  0  0  0  0  0  0  0  0  0  0
    6.0567   -7.0520   22.7482 H   0  0  0  0  0  0  0  0  0  0  0  0
    4.1076   -4.8140   22.1879 H   0  0  0  0  0  0  0  0  0  0  0  0
    8.1493   -2.7739   22.2455 H   0  0  0  0  0  0  0  0  0  0  0  0
    7.2030   -1.6703   21.1865 H   0  0  0  0  0  0  0  0  0  0  0  0
  1  2  1  0  0  0  0
  1  3  2  0  0  0  0
  2  4  2  0  0  0  0
  3  5  1  0  0  0  0
  4  6  1  0  0  0  0
  5  6  2  0  0  0  0
  6 13  1  0  0  0  0
  7  8  2  0  0  0  0
  7 11  1  0  0  0  0
  8 17  1  0  0  0  0
  9 12  1  0  0  0  0
  9 13  1  0  0  0  0
  9 14  2  0  0  0  0
 10 11  1  0  0  0  0
 10 17  1  0  0  0  0
 11 13  1  0  0  0  0
 12 18  1  0  0  0  0
 15 17  2  0  0  0  0
 16 17  2  0  0  0  0
  1 19  1  0  0  0  0
  2 20  1  0  0  0  0
  3 21  1  0  0  0  0
  4 22  1  0  0  0  0
  5 23  1  0  0  0  0
  7 24  1  0  0  0  0
  8 25  1  0  0  0  0
 10 26  1  0  0  0  0
 10 27  1  0  0  0  0
 11 28  1  0  0  0  0
 12 29  1  0  0  0  0
 12 30  1  0  0  0  0
M  END
> <fragments>
x1311

> <Hybrid2>
-6.172644

$$$$
PCM-0102277
  -OEChem-03282016173D

 32 33  0     0  0  0  0  0  0999 V2000
    9.5822   -5.2889   25.0547 C   0  0  0  0  0  0  0  0  0  0  0  0
    9.0322   -5.8081   26.2622 C   0  0  0  0  0  0  0  0  0  0  0  0
    9.5698   -3.9116   25.0307 C   0  0  0  0  0  0  0  0  0  0  0  0
    8.6204   -4.8078   27.1153 C   0  0  0  0  0  0  0  0  0  0  0  0
    6.4635   -2.2636   19.7942 C   0  0  0  0  0  0  0  0  0  0  0  0
    6.6594   -2.6107   22.2360 C   0  0  0  0  0  0  0  0  0  0  0  0
    8.2695   -1.0938   21.1499 C   0  0  0  0  0  0  0  0  0  0  0  0
    7.7914   -3.3334   22.9513 C   0  0  0  0  0  0  0  0  0  0  0  0
    9.4264   -1.7930   21.8508 C   0  0  0  0  0  0  0  0  0  0  0  0
   10.0549   -2.9920   23.9491 C   0  0  0  0  0  0  0  0  0  0  0  0
    7.0128   -1.5989   18.5573 C   0  0  0  0  0  0  0  0  0  0  0  0
    7.1282   -2.0014   20.9913 N   0  0  0  0  0  0  0  0  0  0  0  0
    8.9373   -2.3689   23.1609 N   0  3  0  0  0  0  0  0  0  0  0  0
    5.4750   -2.9954   19.6970 O   0  0  0  0  0  0  0  0  0  0  0  0
    8.8971   -3.2502   26.4599 S   0  0  0  0  0  0  0  0  0  0  0  0
    7.9065   -4.9758   28.6642 Cl  0  0  0  0  0  0  0  0  0  0  0  0
    6.1655   -0.0651   18.3911 Cl  0  0  0  0  0  0  0  0  0  0  0  0
    9.9666   -5.8985   24.2468 H   0  0  0  0  0  0  0  0  0  0  0  0
    8.9459   -6.8636   26.4876 H   0  0  0  0  0  0  0  0  0  0  0  0
    5.8429   -3.3131   22.0411 H   0  0  0  0  0  0  0  0  0  0  0  0
    6.2538   -1.8076   22.8634 H   0  0  0  0  0  0  0  0  0  0  0  0
    7.9233   -0.2360   21.7393 H   0  0  0  0  0  0  0  0  0  0  0  0
    8.6158   -0.7036   20.1914 H   0  0  0  0  0  0  0  0  0  0  0  0
    7.4680   -3.6757   23.9397 H   0  0  0  0  0  0  0  0  0  0  0  0
    8.1683   -4.1832   22.3710 H   0  0  0  0  0  0  0  0  0  0  0  0
    9.8321   -2.6159   21.2518 H   0  0  0  0  0  0  0  0  0  0  0  0
   10.2231   -1.0797   22.0855 H   0  0  0  0  0  0  0  0  0  0  0  0
   10.6441   -2.1677   24.3650 H   0  0  0  0  0  0  0  0  0  0  0  0
   10.6872   -3.5250   23.2309 H   0  0  0  0  0  0  0  0  0  0  0  0
    6.8108   -2.2305   17.6997 H   0  0  0  0  0  0  0  0  0  0  0  0
    8.0740   -1.4252   18.6936 H   0  0  0  0  0  0  0  0  0  0  0  0
    8.5813   -1.5859   23.7265 H   0  0  0  0  0  0  0  0  0  0  0  0
  1  2  1  0  0  0  0
  1  3  2  0  0  0  0
  2  4  2  0  0  0  0
  3 10  1  0  0  0  0
  3 15  1  0  0  0  0
  4 15  1  0  0  0  0
  4 16  1  0  0  0  0
  5 11  1  0  0  0  0
  5 12  1  0  0  0  0
  5 14  2  0  0  0  0
  6  8  1  0  0  0  0
  6 12  1  0  0  0  0
  7  9  1  0  0  0  0
  7 12  1  0  0  0  0
  8 13  1  0  0  0  0
  9 13  1  0  0  0  0
 10 13  1  0  0  0  0
 11 17  1  0  0  0  0
  1 18  1  0  0  0  0
  2 19  1  0  0  0  0
  6 20  1  0  0  0  0
  6 21  1  0  0  0  0
  7 22  1  0  0  0  0
  7 23  1  0  0  0  0
  8 24  1  0  0  0  0
  8 25  1  0  0  0  0
  9 26  1  0  0  0  0
  9 27  1  0  0  0  0
 10 28  1  0  0  0  0
 10 29  1  0  0  0  0
 11 30  1  0  0  0  0
 11 31  1  0  0  0  0
 13 32  1  0  0  0  0
M  CHG  1  13   1
M  END
> <fragments>
x1334

> <Hybrid2>
-6.128600

$$$$
PCM-0102353
  -OEChem-03282016173D

 40 41  0     0  0  0  0  0  0999 V2000
    7.6537   -5.5314   27.1383 C   0  0  0  0  0  0  0  0  0  0  0  0
    8.7855   -5.3478   26.3440 C   0  0  0  0  0  0  0  0  0  0  0  0
    6.8332   -3.3591   26.4711 C   0  0  0  0  0  0  0  0  0  0  0  0
    6.6775   -4.5371   27.2018 C   0  0  0  0  0  0  0  0  0  0  0  0
    8.9413   -4.1699   25.6134 C   0  0  0  0  0  0  0  0  0  0  0  0
    7.9651   -3.1755   25.6769 C   0  0  0  0  0  0  0  0  0  0  0  0
    6.2151   -2.0532   19.2749 C   0  0  0  0  0  0  0  0  0  0  0  0
    6.7948   -3.3243   21.3107 C   0  0  0  0  0  0  0  0  0  0  0  0
    7.6083   -0.9833   21.0953 C   0  0  0  0  0  0  0  0  0  0  0  0
    6.8073   -3.0097   22.8001 C   0  0  0  0  0  0  0  0  0  0  0  0
    8.6586   -1.4555   22.0922 C   0  0  0  0  0  0  0  0  0  0  0  0
    5.4668   -4.7345   28.0501 C   0  0  0  0  0  0  0  0  0  0  0  0
   10.1650   -4.0048   24.7728 C   0  0  0  0  0  0  0  0  0  0  0  0
    6.8377   -1.1595   18.2308 C   0  0  0  0  0  0  0  0  0  0  0  0
    6.8612   -2.1017   20.5101 N   0  0  0  0  0  0  0  0  0  0  0  0
    8.0527   -2.2836   23.1730 N   0  0  0  0  0  0  0  0  0  0  0  0
    5.1936   -2.6886   19.0031 O   0  0  0  0  0  0  0  0  0  0  0  0
    6.9534   -0.8699   25.0180 O   0  0  0  0  0  0  0  0  0  0  0  0
    9.4572   -1.1500   25.0019 O   0  0  0  0  0  0  0  0  0  0  0  0
    8.1294   -1.6737   24.7639 S   0  0  0  0  0  0  0  0  0  0  0  0
    6.0785    0.4193   18.4014 Cl  0  0  0  0  0  0  0  0  0  0  0  0
    7.5404   -6.4529   27.7032 H   0  0  0  0  0  0  0  0  0  0  0  0
    9.5388   -6.1301   26.3000 H   0  0  0  0  0  0  0  0  0  0  0  0
    6.0701   -2.5860   26.5227 H   0  0  0  0  0  0  0  0  0  0  0  0
    7.6727   -3.9290   21.0404 H   0  0  0  0  0  0  0  0  0  0  0  0
    5.9101   -3.9237   21.0735 H   0  0  0  0  0  0  0  0  0  0  0  0
    6.9252   -0.2724   21.5823 H   0  0  0  0  0  0  0  0  0  0  0  0
    8.0844   -0.4466   20.2594 H   0  0  0  0  0  0  0  0  0  0  0  0
    5.9274   -2.4066   23.0768 H   0  0  0  0  0  0  0  0  0  0  0  0
    6.7559   -3.9541   23.3640 H   0  0  0  0  0  0  0  0  0  0  0  0
    9.4138   -2.0568   21.5550 H   0  0  0  0  0  0  0  0  0  0  0  0
    9.1867   -0.5918   22.5378 H   0  0  0  0  0  0  0  0  0  0  0  0
    5.6452   -4.3564   29.0641 H   0  0  0  0  0  0  0  0  0  0  0  0
    4.5973   -4.2112   27.6316 H   0  0  0  0  0  0  0  0  0  0  0  0
    5.1962   -5.7964   28.1171 H   0  0  0  0  0  0  0  0  0  0  0  0
    9.9870   -4.3921   23.7631 H   0  0  0  0  0  0  0  0  0  0  0  0
   10.4540   -2.9494   24.6969 H   0  0  0  0  0  0  0  0  0  0  0  0
   11.0188   -4.5394   25.2072 H   0  0  0  0  0  0  0  0  0  0  0  0
    6.6294   -1.5684   17.2487 H   0  0  0  0  0  0  0  0  0  0  0  0
    7.9019   -1.0836   18.4225 H   0  0  0  0  0  0  0  0  0  0  0  0
  1  2  2  0  0  0  0
  1  4  1  0  0  0  0
  2  5  1  0  0  0  0
  3  4  2  0  0  0  0
  3  6  1  0  0  0  0
  4 12  1  0  0  0  0
  5  6  2  0  0  0  0
  5 13  1  0  0  0  0
  6 20  1  0  0  0  0
  7 14  1  0  0  0  0
  7 15  1  0  0  0  0
  7 17  2  0  0  0  0
  8 10  1  0  0  0  0
  8 15  1  0  0  0  0
  9 11  1  0  0  0  0
  9 15  1  0  0  0  0
 10 16  1  0  0  0  0
 11 16  1  0  0  0  0
 14 21  1  0  0  0  0
 16 20  1  0  0  0  0
 18 20  2  0  0  0  0
 19 20  2  0  0  0  0
  1 22  1  0  0  0  0
  2 23  1  0  0  0  0
  3 24  1  0  0  0  0
  8 25  1  0  0  0  0
  8 26  1  0  0  0  0
  9 27  1  0  0  0  0
  9 28  1  0  0  0  0
 10 29  1  0  0  0  0
 10 30  1  0  0  0  0
 11 31  1  0  0  0  0
 11 32  1  0  0  0  0
 12 33  1  0  0  0  0
 12 34  1  0  0  0  0
 12 35  1  0  0  0  0
 13 36  1  0  0  0  0
 13 37  1  0  0  0  0
 13 38  1  0  0  0  0
 14 39  1  0  0  0  0
 14 40  1  0  0  0  0
M  END
> <fragments>
x1336

> <Hybrid2>
-5.511868

$$$$
PCM-0103067
  -OEChem-03282016173D

 25 26  0     0  0  0  0  0  0999 V2000
    7.8314   -5.2413   27.3205 C   0  0  0  0  0  0  0  0  0  0  0  0
    6.6213   -5.7112   26.8222 C   0  0  0  0  0  0  0  0  0  0  0  0
    8.6518   -4.4146   26.5488 C   0  0  0  0  0  0  0  0  0  0  0  0
    7.0105   -4.5306   24.7341 C   0  0  0  0  0  0  0  0  0  0  0  0
    6.2005   -5.3646   25.5349 C   0  0  0  0  0  0  0  0  0  0  0  0
    8.2229   -4.0703   25.2568 C   0  0  0  0  0  0  0  0  0  0  0  0
    7.6987   -3.3426   23.0072 C   0  0  0  0  0  0  0  0  0  0  0  0
    6.8624   -2.7836   20.7377 C   0  0  0  0  0  0  0  0  0  0  0  0
    5.0342   -7.0892   24.3855 C   0  0  0  0  0  0  0  0  0  0  0  0
    7.3070   -2.0037   19.5222 C   0  0  0  0  0  0  0  0  0  0  0  0
    6.7243   -4.1051   23.4451 N   0  0  0  0  0  0  0  0  0  0  0  0
    7.7952   -2.7274   21.7873 N   0  0  0  0  0  0  0  0  0  0  0  0
    5.7959   -3.3923   20.7245 O   0  0  0  0  0  0  0  0  0  0  0  0
    5.0037   -5.8427   25.0709 O   0  0  0  0  0  0  0  0  0  0  0  0
    9.0042   -3.0806   24.0809 S   0  0  0  0  0  0  0  0  0  0  0  0
    6.7064   -0.3468   19.6943 Cl  0  0  0  0  0  0  0  0  0  0  0  0
    8.1448   -5.5203   28.3230 H   0  0  0  0  0  0  0  0  0  0  0  0
    6.0007   -6.3532   27.4423 H   0  0  0  0  0  0  0  0  0  0  0  0
    9.5953   -4.0511   26.9443 H   0  0  0  0  0  0  0  0  0  0  0  0
    4.0230   -7.3567   24.0691 H   0  0  0  0  0  0  0  0  0  0  0  0
    5.4363   -7.8603   25.0475 H   0  0  0  0  0  0  0  0  0  0  0  0
    5.6759   -6.9958   23.5063 H   0  0  0  0  0  0  0  0  0  0  0  0
    6.9250   -2.4221   18.5876 H   0  0  0  0  0  0  0  0  0  0  0  0
    8.3997   -1.9855   19.4808 H   0  0  0  0  0  0  0  0  0  0  0  0
    8.6410   -2.1639   21.6217 H   0  0  0  0  0  0  0  0  0  0  0  0
  1  2  2  0  0  0  0
  1  3  1  0  0  0  0
  2  5  1  0  0  0  0
  3  6  2  0  0  0  0
  4  5  2  0  0  0  0
  4  6  1  0  0  0  0
  4 11  1  0  0  0  0
  5 14  1  0  0  0  0
  6 15  1  0  0  0  0
  7 11  2  0  0  0  0
  7 12  1  0  0  0  0
  7 15  1  0  0  0  0
  8 10  1  0  0  0  0
  8 12  1  0  0  0  0
  8 13  2  0  0  0  0
  9 14  1  0  0  0  0
 10 16  1  0  0  0  0
  1 17  1  0  0  0  0
  2 18  1  0  0  0  0
  3 19  1  0  0  0  0
  9 20  1  0  0  0  0
  9 21  1  0  0  0  0
  9 22  1  0  0  0  0
 10 23  1  0  0  0  0
 10 24  1  0  0  0  0
 12 25  1  0  0  0  0
M  END
> <fragments>
x1348

> <Hybrid2>
-4.544401

$$$$
PCM-0102575
  -OEChem-03282016173D

 36 37  0     0  0  0  0  0  0999 V2000
    5.0341    0.2066   30.0472 C   0  0  0  0  0  0  0  0  0  0  0  0
    5.2841    0.8053   28.8125 C   0  0  0  0  0  0  0  0  0  0  0  0
    4.8958   -1.1786   30.1354 C   0  0  0  0  0  0  0  0  0  0  0  0
    5.3957    0.0189   27.6659 C   0  0  0  0  0  0  0  0  0  0  0  0
    5.0074   -1.9651   28.9888 C   0  0  0  0  0  0  0  0  0  0  0  0
    5.2574   -1.3663   27.7540 C   0  0  0  0  0  0  0  0  0  0  0  0
    5.3762   -2.2038   26.5327 C   0  0  0  0  0  0  0  0  0  0  0  0
    6.2454   -4.9775   21.5803 C   0  0  0  0  0  0  0  0  0  0  0  0
    4.1449   -3.7046   24.1902 C   0  0  0  0  0  0  0  0  0  0  0  0
    6.1549   -4.8332   25.2087 C   0  0  0  0  0  0  0  0  0  0  0  0
    4.2458   -4.6569   23.0016 C   0  0  0  0  0  0  0  0  0  0  0  0
    6.2159   -5.7636   23.9990 C   0  0  0  0  0  0  0  0  0  0  0  0
    4.7260   -4.3386   25.4580 C   0  0  0  0  0  0  0  0  0  0  0  0
    7.7424   -4.7974   21.5946 C   0  0  0  0  0  0  0  0  0  0  0  0
    5.6217   -5.1233   22.8191 N   0  0  0  0  0  0  0  0  0  0  0  0
    4.6889   -3.4059   26.5573 N   0  0  0  0  0  0  0  0  0  0  0  0
    6.0726   -1.8102   25.6007 O   0  0  0  0  0  0  0  0  0  0  0  0
    5.6498   -4.9858   20.4999 O   0  0  0  0  0  0  0  0  0  0  0  0
    8.0631   -3.3182   22.4928 Cl  0  0  0  0  0  0  0  0  0  0  0  0
    4.9471    0.8189   30.9400 H   0  0  0  0  0  0  0  0  0  0  0  0
    5.3915    1.8839   28.7440 H   0  0  0  0  0  0  0  0  0  0  0  0
    4.7014   -1.6449   31.0968 H   0  0  0  0  0  0  0  0  0  0  0  0
    5.5907    0.4959   26.7088 H   0  0  0  0  0  0  0  0  0  0  0  0
    4.8977   -3.0435   29.0694 H   0  0  0  0  0  0  0  0  0  0  0  0
    4.6538   -2.7654   23.9623 H   0  0  0  0  0  0  0  0  0  0  0  0
    3.0926   -3.4625   24.3635 H   0  0  0  0  0  0  0  0  0  0  0  0
    6.5005   -5.3776   26.0915 H   0  0  0  0  0  0  0  0  0  0  0  0
    6.8356   -3.9913   25.0685 H   0  0  0  0  0  0  0  0  0  0  0  0
    3.5477   -5.4862   23.1456 H   0  0  0  0  0  0  0  0  0  0  0  0
    3.9484   -4.1509   22.0735 H   0  0  0  0  0  0  0  0  0  0  0  0
    7.2532   -6.0093   23.7483 H   0  0  0  0  0  0  0  0  0  0  0  0
    5.7044   -6.7017   24.2302 H   0  0  0  0  0  0  0  0  0  0  0  0
    4.0977   -5.1831   25.7603 H   0  0  0  0  0  0  0  0  0  0  0  0
    8.0939   -4.6969   20.5741 H   0  0  0  0  0  0  0  0  0  0  0  0
    8.1932   -5.6444   22.0987 H   0  0  0  0  0  0  0  0  0  0  0  0
    4.1839   -3.6941   27.3881 H   0  0  0  0  0  0  0  0  0  0  0  0
  1  2  1  0  0  0  0
  1  3  2  0  0  0  0
  2  4  2  0  0  0  0
  3  5  1  0  0  0  0
  4  6  1  0  0  0  0
  5  6  2  0  0  0  0
  6  7  1  0  0  0  0
  7 16  1  0  0  0  0
  7 17  2  0  0  0  0
  8 14  1  0  0  0  0
  8 15  1  0  0  0  0
  8 18  2  0  0  0  0
  9 11  1  0  0  0  0
  9 13  1  0  0  0  0
 10 12  1  0  0  0  0
 10 13  1  0  0  0  0
 11 15  1  0  0  0  0
 12 15  1  0  0  0  0
 13 16  1  0  0  0  0
 14 19  1  0  0  0  0
  1 20  1  0  0  0  0
  2 21  1  0  0  0  0
  3 22  1  0  0  0  0
  4 23  1  0  0  0  0
  5 24  1  0  0  0  0
  9 25  1  0  0  0  0
  9 26  1  0  0  0  0
 10 27  1  0  0  0  0
 10 28  1  0  0  0  0
 11 29  1  0  0  0  0
 11 30  1  0  0  0  0
 12 31  1  0  0  0  0
 12 32  1  0  0  0  0
 13 33  1  0  0  0  0
 14 34  1  0  0  0  0
 14 35  1  0  0  0  0
 16 36  1  0  0  0  0
M  END
> <fragments>
x1351

> <Hybrid2>
-1.651460

$$$$
PCM-0102389
  -OEChem-03282016173D

 37 38  0     0  0  0  0  0  0999 V2000
    8.4527   -0.7957   28.7565 C   0  0  0  0  0  0  0  0  0  0  0  0
    7.1460   -0.5040   29.1477 C   0  0  0  0  0  0  0  0  0  0  0  0
    8.7092   -1.2443   27.4609 C   0  0  0  0  0  0  0  0  0  0  0  0
    6.0957   -0.6611   28.2433 C   0  0  0  0  0  0  0  0  0  0  0  0
    7.6589   -1.4014   26.5565 C   0  0  0  0  0  0  0  0  0  0  0  0
    6.3522   -1.1098   26.9477 C   0  0  0  0  0  0  0  0  0  0  0  0
    7.1041   -2.6011   24.4171 C   0  0  0  0  0  0  0  0  0  0  0  0
    5.9423   -1.6117   19.5457 C   0  0  0  0  0  0  0  0  0  0  0  0
    6.8611   -3.7606   22.2290 C   0  0  0  0  0  0  0  0  0  0  0  0
    8.1709   -1.5879   22.3935 C   0  0  0  0  0  0  0  0  0  0  0  0
    5.7141   -2.9720   21.5995 C   0  0  0  0  0  0  0  0  0  0  0  0
    6.9891   -0.8694   21.7409 C   0  0  0  0  0  0  0  0  0  0  0  0
    7.7672   -2.8856   23.1009 C   0  0  0  0  0  0  0  0  0  0  0  0
    6.5024   -0.3692   18.9004 C   0  0  0  0  0  0  0  0  0  0  0  0
    6.2192   -1.7912   20.9003 N   0  0  0  0  0  0  0  0  0  0  0  0
    7.9351   -1.8581   25.2459 N   0  0  0  0  0  0  0  0  0  0  0  0
    5.9698   -3.0065   24.6495 O   0  0  0  0  0  0  0  0  0  0  0  0
    5.2805   -2.3988   18.8640 O   0  0  0  0  0  0  0  0  0  0  0  0
    5.3115   -1.2567   26.0796 O   0  0  0  0  0  0  0  0  0  0  0  0
    5.2687    0.8769   19.0518 Cl  0  0  0  0  0  0  0  0  0  0  0  0
    9.2703   -0.6728   29.4608 H   0  0  0  0  0  0  0  0  0  0  0  0
    6.9464   -0.1540   30.1562 H   0  0  0  0  0  0  0  0  0  0  0  0
    9.7318   -1.4684   27.1677 H   0  0  0  0  0  0  0  0  0  0  0  0
    5.0801   -0.4319   28.5547 H   0  0  0  0  0  0  0  0  0  0  0  0
    6.4483   -4.5892   22.8170 H   0  0  0  0  0  0  0  0  0  0  0  0
    7.4629   -4.2086   21.4278 H   0  0  0  0  0  0  0  0  0  0  0  0
    8.9089   -1.8240   21.6161 H   0  0  0  0  0  0  0  0  0  0  0  0
    8.6607   -0.9062   23.0993 H   0  0  0  0  0  0  0  0  0  0  0  0
    5.1546   -3.6200   20.9174 H   0  0  0  0  0  0  0  0  0  0  0  0
    5.0117   -2.6260   22.3666 H   0  0  0  0  0  0  0  0  0  0  0  0
    6.3049   -0.4767   22.5017 H   0  0  0  0  0  0  0  0  0  0  0  0
    7.3585   -0.0115   21.1760 H   0  0  0  0  0  0  0  0  0  0  0  0
    8.6743   -3.4532   23.3436 H   0  0  0  0  0  0  0  0  0  0  0  0
    6.6979   -0.5743   17.8540 H   0  0  0  0  0  0  0  0  0  0  0  0
    7.3994   -0.0716   19.4311 H   0  0  0  0  0  0  0  0  0  0  0  0
    8.8509   -1.6058   24.8803 H   0  0  0  0  0  0  0  0  0  0  0  0
    4.4785   -1.0122   26.5119 H   0  0  0  0  0  0  0  0  0  0  0  0
  1  2  1  0  0  0  0
  1  3  2  0  0  0  0
  2  4  2  0  0  0  0
  3  5  1  0  0  0  0
  4  6  1  0  0  0  0
  5  6  2  0  0  0  0
  5 16  1  0  0  0  0
  6 19  1  0  0  0  0
  7 13  1  0  0  0  0
  7 16  1  0  0  0  0
  7 17  2  0  0  0  0
  8 14  1  0  0  0  0
  8 15  1  0  0  0  0
  8 18  2  0  0  0  0
  9 11  1  0  0  0  0
  9 13  1  0  0  0  0
 10 12  1  0  0  0  0
 10 13  1  0  0  0  0
 11 15  1  0  0  0  0
 12 15  1  0  0  0  0
 14 20  1  0  0  0  0
  1 21  1  0  0  0  0
  2 22  1  0  0  0  0
  3 23  1  0  0  0  0
  4 24  1  0  0  0  0
  9 25  1  0  0  0  0
  9 26  1  0  0  0  0
 10 27  1  0  0  0  0
 10 28  1  0  0  0  0
 11 29  1  0  0  0  0
 11 30  1  0  0  0  0
 12 31  1  0  0  0  0
 12 32  1  0  0  0  0
 13 33  1  0  0  0  0
 14 34  1  0  0  0  0
 14 35  1  0  0  0  0
 16 36  1  0  0  0  0
 19 37  1  0  0  0  0
M  END
> <fragments>
x1358

> <Hybrid2>
-3.659343

$$$$
PCM-0102539
  -OEChem-03282016173D

 33 34  0     1  0  0  0  0  0999 V2000
    9.2200   -5.4014   23.8829 C   0  0  0  0  0  0  0  0  0  0  0  0
    7.9700   -4.6264   25.7997 C   0  0  0  0  0  0  0  0  0  0  0  0
    8.1013   -5.2042   23.0736 C   0  0  0  0  0  0  0  0  0  0  0  0
    6.8512   -4.4292   24.9903 C   0  0  0  0  0  0  0  0  0  0  0  0
    9.1544   -5.1125   25.2460 C   0  0  0  0  0  0  0  0  0  0  0  0
    6.9169   -4.7181   23.6272 C   0  0  0  0  0  0  0  0  0  0  0  0
    3.6598   -4.5916   23.9601 C   0  0  0  0  0  0  0  0  0  0  0  0
    3.0994   -5.3488   24.9088 C   0  0  0  0  0  0  0  0  0  0  0  0
    5.9048   -3.5895   21.7049 C   0  0  0  0  0  0  0  0  0  0  0  0
    4.8542   -6.6726   23.5265 C   0  0  0  0  0  0  0  0  0  0  0  0
    4.5548   -5.2812   22.9727 C   0  0  2  0  0  0  0  0  0  0  0  0
   10.3506   -5.3235   26.1113 C   0  0  0  0  0  0  0  0  0  0  0  0
    6.7746   -2.3878   22.0292 C   0  0  0  0  0  0  0  0  0  0  0  0
    5.7561   -4.5131   22.7877 N   0  0  0  0  0  0  0  0  0  0  0  0
    5.3715   -3.6868   20.5968 O   0  0  0  0  0  0  0  0  0  0  0  0
    4.1964   -7.4699   25.9560 O   0  0  0  0  0  0  0  0  0  0  0  0
    2.5100   -7.7455   24.0872 O   0  0  0  0  0  0  0  0  0  0  0  0
    3.5720   -7.0022   24.7353 S   0  0  0  0  0  0  0  0  0  0  0  0
    6.2271   -0.9720   21.1066 Cl  0  0  0  0  0  0  0  0  0  0  0  0
   10.1381   -5.7826   23.4435 H   0  0  0  0  0  0  0  0  0  0  0  0
    7.9097   -4.3994   26.8608 H   0  0  0  0  0  0  0  0  0  0  0  0
    8.1639   -5.4323   22.0125 H   0  0  0  0  0  0  0  0  0  0  0  0
    5.9329   -4.0509   25.4324 H   0  0  0  0  0  0  0  0  0  0  0  0
    3.4822   -3.5247   23.9034 H   0  0  0  0  0  0  0  0  0  0  0  0
    2.4459   -4.9934   25.6943 H   0  0  0  0  0  0  0  0  0  0  0  0
    4.7573   -7.4274   22.7368 H   0  0  0  0  0  0  0  0  0  0  0  0
    5.8396   -6.7689   23.9930 H   0  0  0  0  0  0  0  0  0  0  0  0
    4.0727   -5.3675   21.9840 H   0  0  0  0  0  0  0  0  0  0  0  0
   10.9637   -4.4145   26.1436 H   0  0  0  0  0  0  0  0  0  0  0  0
   10.0594   -5.5834   27.1373 H   0  0  0  0  0  0  0  0  0  0  0  0
   10.9713   -6.1488   25.7387 H   0  0  0  0  0  0  0  0  0  0  0  0
    6.6995   -2.1511   23.0935 H   0  0  0  0  0  0  0  0  0  0  0  0
    7.8143   -2.5647   21.7440 H   0  0  0  0  0  0  0  0  0  0  0  0
  1  3  2  0  0  0  0
  1  5  1  0  0  0  0
  2  4  1  0  0  0  0
  2  5  2  0  0  0  0
  3  6  1  0  0  0  0
  4  6  2  0  0  0  0
  5 12  1  0  0  0  0
  6 14  1  0  0  0  0
  7  8  2  0  0  0  0
  7 11  1  0  0  0  0
  8 18  1  0  0  0  0
  9 13  1  0  0  0  0
  9 14  1  0  0  0  0
  9 15  2  0  0  0  0
 10 11  1  0  0  0  0
 10 18  1  0  0  0  0
 11 14  1  0  0  0  0
 13 19  1  0  0  0  0
 16 18  2  0  0  0  0
 17 18  2  0  0  0  0
  1 20  1  0  0  0  0
  2 21  1  0  0  0  0
  3 22  1  0  0  0  0
  4 23  1  0  0  0  0
  7 24  1  0  0  0  0
  8 25  1  0  0  0  0
 10 26  1  0  0  0  0
 10 27  1  0  0  0  0
 11 28  1  0  0  0  0
 12 29  1  0  0  0  0
 12 30  1  0  0  0  0
 12 31  1  0  0  0  0
 13 32  1  0  0  0  0
 13 33  1  0  0  0  0
M  END
> <fragments>
x1374

> <Hybrid2>
-4.032683

$$$$
PCM-0102868
  -OEChem-03282016173D

 30 31  0     1  0  0  0  0  0999 V2000
    7.1220   -4.0055   24.7841 C   0  0  0  0  0  0  0  0  0  0  0  0
    8.3018   -5.6720   23.4925 C   0  0  0  0  0  0  0  0  0  0  0  0
    8.1409   -4.0223   25.7365 C   0  0  0  0  0  0  0  0  0  0  0  0
    9.3207   -5.6887   24.4449 C   0  0  0  0  0  0  0  0  0  0  0  0
    7.2024   -4.8304   23.6621 C   0  0  0  0  0  0  0  0  0  0  0  0
    9.2403   -4.8638   25.5669 C   0  0  0  0  0  0  0  0  0  0  0  0
    3.7617   -5.0389   22.8824 C   0  0  0  0  0  0  0  0  0  0  0  0
    2.9022   -5.5270   23.7825 C   0  0  0  0  0  0  0  0  0  0  0  0
    6.2888   -3.8792   21.5997 C   0  0  0  0  0  0  0  0  0  0  0  0
    5.2050   -6.7213   23.8981 C   0  0  0  0  0  0  0  0  0  0  0  0
    5.0660   -5.7623   22.7177 C   0  0  2  0  0  0  0  0  0  0  0  0
    7.4641   -2.9303   21.7553 C   0  0  0  0  0  0  0  0  0  0  0  0
    6.1452   -4.8134   22.6740 N   0  0  0  0  0  0  0  0  0  0  0  0
    5.5378   -3.7802   20.6260 O   0  0  0  0  0  0  0  0  0  0  0  0
    3.5894   -6.7396   25.9863 O   0  0  0  0  0  0  0  0  0  0  0  0
    2.9696   -8.1216   23.9569 O   0  0  0  0  0  0  0  0  0  0  0  0
   10.2194   -4.8793   26.4809 F   0  0  0  0  0  0  0  0  0  0  0  0
    3.5489   -6.9335   24.5512 S   0  0  0  0  0  0  0  0  0  0  0  0
    8.0665   -2.4387   20.1581 Cl  0  0  0  0  0  0  0  0  0  0  0  0
    6.2698   -3.3459   24.9270 H   0  0  0  0  0  0  0  0  0  0  0  0
    8.3739   -6.3208   22.6234 H   0  0  0  0  0  0  0  0  0  0  0  0
    8.0782   -3.3809   26.6104 H   0  0  0  0  0  0  0  0  0  0  0  0
   10.1774   -6.3429   24.3126 H   0  0  0  0  0  0  0  0  0  0  0  0
    3.5340   -4.1569   22.2965 H   0  0  0  0  0  0  0  0  0  0  0  0
    1.9340   -5.1075   24.0211 H   0  0  0  0  0  0  0  0  0  0  0  0
    5.5462   -7.7050   23.5535 H   0  0  0  0  0  0  0  0  0  0  0  0
    5.8747   -6.3682   24.6884 H   0  0  0  0  0  0  0  0  0  0  0  0
    5.0961   -6.3276   21.7705 H   0  0  0  0  0  0  0  0  0  0  0  0
    7.1481   -2.0321   22.2917 H   0  0  0  0  0  0  0  0  0  0  0  0
    8.2975   -3.4153   22.2689 H   0  0  0  0  0  0  0  0  0  0  0  0
  1  3  2  0  0  0  0
  1  5  1  0  0  0  0
  2  4  1  0  0  0  0
  2  5  2  0  0  0  0
  3  6  1  0  0  0  0
  4  6  2  0  0  0  0
  5 13  1  0  0  0  0
  6 17  1  0  0  0  0
  7  8  2  0  0  0  0
  7 11  1  0  0  0  0
  8 18  1  0  0  0  0
  9 12  1  0  0  0  0
  9 13  1  0  0  0  0
  9 14  2  0  0  0  0
 10 11  1  0  0  0  0
 10 18  1  0  0  0  0
 11 13  1  0  0  0  0
 12 19  1  0  0  0  0
 15 18  2  0  0  0  0
 16 18  2  0  0  0  0
  1 20  1  0  0  0  0
  2 21  1  0  0  0  0
  3 22  1  0  0  0  0
  4 23  1  0  0  0  0
  7 24  1  0  0  0  0
  8 25  1  0  0  0  0
 10 26  1  0  0  0  0
 10 27  1  0  0  0  0
 11 28  1  0  0  0  0
 12 29  1  0  0  0  0
 12 30  1  0  0  0  0
M  END
> <fragments>
x1375

> <Hybrid2>
-4.463304

$$$$
PCM-0102972
  -OEChem-03282016173D

 39 40  0     0  0  0  0  0  0999 V2000
    6.7897   -3.3154   26.1955 C   0  0  0  0  0  0  0  0  0  0  0  0
    6.3077   -2.7981   20.9159 C   0  0  0  0  0  0  0  0  0  0  0  0
    7.0681   -5.3260   29.8835 C   0  0  0  0  0  0  0  0  0  0  0  0
    6.9355   -3.8105   29.7422 C   0  0  0  0  0  0  0  0  0  0  0  0
    7.5394   -5.9573   28.5742 C   0  0  0  0  0  0  0  0  0  0  0  0
    6.0803   -4.5443   24.1554 C   0  0  0  0  0  0  0  0  0  0  0  0
    8.2363   -3.1719   24.1654 C   0  0  0  0  0  0  0  0  0  0  0  0
    6.0516   -3.4420   28.5538 C   0  0  0  0  0  0  0  0  0  0  0  0
    6.6445   -5.5477   27.4065 C   0  0  0  0  0  0  0  0  0  0  0  0
    6.3758   -4.5462   22.6602 C   0  0  0  0  0  0  0  0  0  0  0  0
    7.5077   -2.3615   23.0960 C   0  0  0  0  0  0  0  0  0  0  0  0
    7.2772   -4.0503   24.9791 C   0  0  0  0  0  0  0  0  0  0  0  0
    6.7161   -1.4076   20.4947 C   0  0  0  0  0  0  0  0  0  0  0  0
    6.5275   -4.0861   27.3277 N   0  0  0  0  0  0  0  0  0  0  0  0
    6.7275   -3.2069   22.1832 N   0  0  0  0  0  0  0  0  0  0  0  0
    6.6475   -2.0911   26.1432 O   0  0  0  0  0  0  0  0  0  0  0  0
    5.6452   -3.4976   20.1461 O   0  0  0  0  0  0  0  0  0  0  0  0
    5.4775   -0.8337   19.3838 Cl  0  0  0  0  0  0  0  0  0  0  0  0
    7.7732   -5.5648   30.6874 H   0  0  0  0  0  0  0  0  0  0  0  0
    6.0987   -5.7532   30.1676 H   0  0  0  0  0  0  0  0  0  0  0  0
    6.5118   -3.3914   30.6618 H   0  0  0  0  0  0  0  0  0  0  0  0
    7.9290   -3.3638   29.6129 H   0  0  0  0  0  0  0  0  0  0  0  0
    8.5729   -5.6518   28.3682 H   0  0  0  0  0  0  0  0  0  0  0  0
    7.5407   -7.0486   28.6731 H   0  0  0  0  0  0  0  0  0  0  0  0
    5.2009   -3.9225   24.3506 H   0  0  0  0  0  0  0  0  0  0  0  0
    5.8307   -5.5637   24.4697 H   0  0  0  0  0  0  0  0  0  0  0  0
    8.9745   -3.8148   23.6772 H   0  0  0  0  0  0  0  0  0  0  0  0
    8.7812   -2.4926   24.8255 H   0  0  0  0  0  0  0  0  0  0  0  0
    5.0223   -3.7805   28.7222 H   0  0  0  0  0  0  0  0  0  0  0  0
    6.0230   -2.3540   28.4381 H   0  0  0  0  0  0  0  0  0  0  0  0
    7.0357   -5.9782   26.4831 H   0  0  0  0  0  0  0  0  0  0  0  0
    5.6318   -5.9449   27.5448 H   0  0  0  0  0  0  0  0  0  0  0  0
    7.1824   -5.2589   22.4449 H   0  0  0  0  0  0  0  0  0  0  0  0
    5.4983   -4.8778   22.0875 H   0  0  0  0  0  0  0  0  0  0  0  0
    6.8006   -1.6521   23.5585 H   0  0  0  0  0  0  0  0  0  0  0  0
    8.2378   -1.7442   22.5536 H   0  0  0  0  0  0  0  0  0  0  0  0
    7.8261   -4.9190   25.3582 H   0  0  0  0  0  0  0  0  0  0  0  0
    7.6737   -1.4605   19.9894 H   0  0  0  0  0  0  0  0  0  0  0  0
    6.7534   -0.7717   21.3717 H   0  0  0  0  0  0  0  0  0  0  0  0
  1 12  1  0  0  0  0
  1 14  1  0  0  0  0
  1 16  2  0  0  0  0
  2 13  1  0  0  0  0
  2 15  1  0  0  0  0
  2 17  2  0  0  0  0
  3  4  1  0  0  0  0
  3  5  1  0  0  0  0
  4  8  1  0  0  0  0
  5  9  1  0  0  0  0
  6 10  1  0  0  0  0
  6 12  1  0  0  0  0
  7 11  1  0  0  0  0
  7 12  1  0  0  0  0
  8 14  1  0  0  0  0
  9 14  1  0  0  0  0
 10 15  1  0  0  0  0
 11 15  1  0  0  0  0
 13 18  1  0  0  0  0
  3 19  1  0  0  0  0
  3 20  1  0  0  0  0
  4 21  1  0  0  0  0
  4 22  1  0  0  0  0
  5 23  1  0  0  0  0
  5 24  1  0  0  0  0
  6 25  1  0  0  0  0
  6 26  1  0  0  0  0
  7 27  1  0  0  0  0
  7 28  1  0  0  0  0
  8 29  1  0  0  0  0
  8 30  1  0  0  0  0
  9 31  1  0  0  0  0
  9 32  1  0  0  0  0
 10 33  1  0  0  0  0
 10 34  1  0  0  0  0
 11 35  1  0  0  0  0
 11 36  1  0  0  0  0
 12 37  1  0  0  0  0
 13 38  1  0  0  0  0
 13 39  1  0  0  0  0
M  END
> <fragments>
x1380

> <Hybrid2>
-3.441131

$$$$
PCM-0102190
  -OEChem-03282016173D

 25 25  0     1  0  0  0  0  0999 V2000
   13.7985   -1.8148   21.9847 C   0  0  0  0  0  0  0  0  0  0  0  0
   12.5315   -2.0243   22.5290 C   0  0  0  0  0  0  0  0  0  0  0  0
   14.3861   -0.5514   22.0514 C   0  0  0  0  0  0  0  0  0  0  0  0
   12.4394    0.2929   23.2067 C   0  0  0  0  0  0  0  0  0  0  0  0
   11.8519   -0.9705   23.1399 C   0  0  0  0  0  0  0  0  0  0  0  0
   13.7065    0.5024   22.6624 C   0  0  0  0  0  0  0  0  0  0  0  0
    9.3052   -1.5026   21.5694 C   0  0  0  0  0  0  0  0  0  0  0  0
   10.2905   -2.6240   24.2445 C   0  0  0  0  0  0  0  0  0  0  0  0
    8.1257   -1.0049   20.7736 C   0  0  0  0  0  0  0  0  0  0  0  0
   10.4966   -1.1950   23.7206 C   0  0  2  0  0  0  0  0  0  0  0  0
    9.4381   -0.8599   22.7832 N   0  0  0  0  0  0  0  0  0  0  0  0
   10.0368   -2.3991   21.1531 O   0  0  0  0  0  0  0  0  0  0  0  0
   14.4314    2.0612   22.7434 Cl  0  0  0  0  0  0  0  0  0  0  0  0
    8.7356   -0.3599   19.2417 Cl  0  0  0  0  0  0  0  0  0  0  0  0
   14.3273   -2.6356   21.5089 H   0  0  0  0  0  0  0  0  0  0  0  0
   12.0813   -3.0119   22.4723 H   0  0  0  0  0  0  0  0  0  0  0  0
   15.3741   -0.4026   21.6227 H   0  0  0  0  0  0  0  0  0  0  0  0
   11.9057    1.1112   23.6845 H   0  0  0  0  0  0  0  0  0  0  0  0
   10.4405   -3.3553   23.4428 H   0  0  0  0  0  0  0  0  0  0  0  0
   10.9938   -2.8566   25.0520 H   0  0  0  0  0  0  0  0  0  0  0  0
    9.2809   -2.7655   24.6465 H   0  0  0  0  0  0  0  0  0  0  0  0
    7.4016   -1.7944   20.5576 H   0  0  0  0  0  0  0  0  0  0  0  0
    7.6266   -0.2041   21.3260 H   0  0  0  0  0  0  0  0  0  0  0  0
   10.3308   -0.5164   24.5760 H   0  0  0  0  0  0  0  0  0  0  0  0
    8.7785   -0.1333   23.0279 H   0  0  0  0  0  0  0  0  0  0  0  0
  1  2  2  0  0  0  0
  1  3  1  0  0  0  0
  2  5  1  0  0  0  0
  3  6  2  0  0  0  0
  4  5  2  0  0  0  0
  4  6  1  0  0  0  0
  5 10  1  0  0  0  0
  6 13  1  0  0  0  0
  7  9  1  0  0  0  0
  7 11  1  0  0  0  0
  7 12  2  0  0  0  0
  8 10  1  0  0  0  0
  9 14  1  0  0  0  0
 10 11  1  0  0  0  0
  1 15  1  0  0  0  0
  2 16  1  0  0  0  0
  3 17  1  0  0  0  0
  4 18  1  0  0  0  0
  8 19  1  0  0  0  0
  8 20  1  0  0  0  0
  8 21  1  0  0  0  0
  9 22  1  0  0  0  0
  9 23  1  0  0  0  0
 10 24  1  0  0  0  0
 11 25  1  0  0  0  0
M  END
> <fragments>
x1382

> <Hybrid2>
-5.739811

$$$$
PCM-0102179
  -OEChem-03282016173D

 30 31  0     0  0  0  0  0  0999 V2000
    2.9620   -5.4508   23.3421 C   0  0  0  0  0  0  0  0  0  0  0  0
    4.1906   -5.1240   22.7683 C   0  0  0  0  0  0  0  0  0  0  0  0
    2.5704   -4.8525   24.5398 C   0  0  0  0  0  0  0  0  0  0  0  0
    4.6362   -3.6007   24.5899 C   0  0  0  0  0  0  0  0  0  0  0  0
    5.0277   -4.1990   23.3921 C   0  0  0  0  0  0  0  0  0  0  0  0
    3.4075   -3.9275   25.1637 C   0  0  0  0  0  0  0  0  0  0  0  0
    6.5960   -3.8670   21.4309 C   0  0  0  0  0  0  0  0  0  0  0  0
    3.7460   -2.3960   27.0879 C   0  0  0  0  0  0  0  0  0  0  0  0
    8.0680   -3.5458   21.3058 C   0  0  0  0  0  0  0  0  0  0  0  0
    8.3947   -2.8786   22.6268 C   0  0  0  0  0  0  0  0  0  0  0  0
    7.4532   -3.5526   23.6029 C   0  0  0  0  0  0  0  0  0  0  0  0
    3.0159   -1.9612   28.3374 C   0  0  0  0  0  0  0  0  0  0  0  0
    6.2837   -3.8649   22.8045 N   0  0  0  0  0  0  0  0  0  0  0  0
    3.0153   -3.3293   26.3616 N   0  0  0  0  0  0  0  0  0  0  0  0
    5.8953   -4.1279   20.4638 O   0  0  0  0  0  0  0  0  0  0  0  0
    4.8586   -1.9425   26.8336 O   0  0  0  0  0  0  0  0  0  0  0  0
    4.0334   -0.7773   29.1732 Cl  0  0  0  0  0  0  0  0  0  0  0  0
    2.3097   -6.1702   22.8559 H   0  0  0  0  0  0  0  0  0  0  0  0
    4.4853   -5.5974   21.8351 H   0  0  0  0  0  0  0  0  0  0  0  0
    1.6109   -5.1159   24.9778 H   0  0  0  0  0  0  0  0  0  0  0  0
    5.2894   -2.8793   25.0767 H   0  0  0  0  0  0  0  0  0  0  0  0
    8.6217   -4.4813   21.1778 H   0  0  0  0  0  0  0  0  0  0  0  0
    8.2526   -2.8826   20.4572 H   0  0  0  0  0  0  0  0  0  0  0  0
    9.4459   -2.9961   22.9048 H   0  0  0  0  0  0  0  0  0  0  0  0
    8.1734   -1.8058   22.5708 H   0  0  0  0  0  0  0  0  0  0  0  0
    7.8719   -4.4918   23.9813 H   0  0  0  0  0  0  0  0  0  0  0  0
    7.1889   -2.9006   24.4410 H   0  0  0  0  0  0  0  0  0  0  0  0
    2.8092   -2.7914   29.0175 H   0  0  0  0  0  0  0  0  0  0  0  0
    2.0700   -1.4874   28.0602 H   0  0  0  0  0  0  0  0  0  0  0  0
    2.1095   -3.6017   26.7389 H   0  0  0  0  0  0  0  0  0  0  0  0
  1  2  1  0  0  0  0
  1  3  2  0  0  0  0
  2  5  2  0  0  0  0
  3  6  1  0  0  0  0
  4  5  1  0  0  0  0
  4  6  2  0  0  0  0
  5 13  1  0  0  0  0
  6 14  1  0  0  0  0
  7  9  1  0  0  0  0
  7 13  1  0  0  0  0
  7 15  2  0  0  0  0
  8 12  1  0  0  0  0
  8 14  1  0  0  0  0
  8 16  2  0  0  0  0
  9 10  1  0  0  0  0
 10 11  1  0  0  0  0
 11 13  1  0  0  0  0
 12 17  1  0  0  0  0
  1 18  1  0  0  0  0
  2 19  1  0  0  0  0
  3 20  1  0  0  0  0
  4 21  1  0  0  0  0
  9 22  1  0  0  0  0
  9 23  1  0  0  0  0
 10 24  1  0  0  0  0
 10 25  1  0  0  0  0
 11 26  1  0  0  0  0
 11 27  1  0  0  0  0
 12 28  1  0  0  0  0
 12 29  1  0  0  0  0
 14 30  1  0  0  0  0
M  END
> <fragments>
x1384

> <Hybrid2>
-2.839446

$$$$
PCM-0102169
  -OEChem-03282016173D

 32 33  0     0  0  0  0  0  0999 V2000
    9.7669   -4.9188   24.7147 C   0  0  0  0  0  0  0  0  0  0  0  0
    9.3169   -5.6840   25.8292 C   0  0  0  0  0  0  0  0  0  0  0  0
    9.4846   -3.5783   24.8596 C   0  0  0  0  0  0  0  0  0  0  0  0
    8.7080   -4.8991   26.7837 C   0  0  0  0  0  0  0  0  0  0  0  0
    6.1692   -1.9093   19.7597 C   0  0  0  0  0  0  0  0  0  0  0  0
    6.4044   -2.5199   22.1457 C   0  0  0  0  0  0  0  0  0  0  0  0
    7.6965   -0.5946   21.3111 C   0  0  0  0  0  0  0  0  0  0  0  0
    7.6488   -3.0951   22.8060 C   0  0  0  0  0  0  0  0  0  0  0  0
    8.9609   -1.1402   21.9608 C   0  0  0  0  0  0  0  0  0  0  0  0
    9.7909   -2.4522   23.9167 C   0  0  0  0  0  0  0  0  0  0  0  0
    6.5901   -0.9990   18.6337 C   0  0  0  0  0  0  0  0  0  0  0  0
    6.7572   -1.6781   21.0024 N   0  0  0  0  0  0  0  0  0  0  0  0
    8.5809   -1.9618   23.1724 N   0  3  0  0  0  0  0  0  0  0  0  0
    5.3447   -2.8000   19.5388 O   0  0  0  0  0  0  0  0  0  0  0  0
    8.6804   -3.2468   26.3346 S   0  0  0  0  0  0  0  0  0  0  0  0
    5.4600    0.3503   18.6276 Cl  0  0  0  0  0  0  0  0  0  0  0  0
    7.9799   -5.5555   28.4104 Br  0  0  0  0  0  0  0  0  0  0  0  0
   10.2717   -5.3347   23.8520 H   0  0  0  0  0  0  0  0  0  0  0  0
    9.4388   -6.7565   25.9167 H   0  0  0  0  0  0  0  0  0  0  0  0
    5.7437   -3.3363   21.8375 H   0  0  0  0  0  0  0  0  0  0  0  0
    5.8427   -1.8969   22.8524 H   0  0  0  0  0  0  0  0  0  0  0  0
    7.1827    0.0979   21.9888 H   0  0  0  0  0  0  0  0  0  0  0  0
    7.9693   -0.0260   20.4204 H   0  0  0  0  0  0  0  0  0  0  0  0
    7.3888   -3.6164   23.7329 H   0  0  0  0  0  0  0  0  0  0  0  0
    8.1911   -3.7750   22.1392 H   0  0  0  0  0  0  0  0  0  0  0  0
    9.5263   -1.7861   21.2798 H   0  0  0  0  0  0  0  0  0  0  0  0
    9.5997   -0.3221   22.3090 H   0  0  0  0  0  0  0  0  0  0  0  0
   10.2025   -1.5892   24.4510 H   0  0  0  0  0  0  0  0  0  0  0  0
   10.5229   -2.7570   23.1610 H   0  0  0  0  0  0  0  0  0  0  0  0
    6.5248   -1.5434   17.6985 H   0  0  0  0  0  0  0  0  0  0  0  0
    7.5952   -0.6422   18.8273 H   0  0  0  0  0  0  0  0  0  0  0  0
    8.0724   -1.3410   23.8171 H   0  0  0  0  0  0  0  0  0  0  0  0
  1  2  1  0  0  0  0
  1  3  2  0  0  0  0
  2  4  2  0  0  0  0
  3 10  1  0  0  0  0
  3 15  1  0  0  0  0
  4 15  1  0  0  0  0
  4 17  1  0  0  0  0
  5 11  1  0  0  0  0
  5 12  1  0  0  0  0
  5 14  2  0  0  0  0
  6  8  1  0  0  0  0
  6 12  1  0  0  0  0
  7  9  1  0  0  0  0
  7 12  1  0  0  0  0
  8 13  1  0  0  0  0
  9 13  1  0  0  0  0
 10 13  1  0  0  0  0
 11 16  1  0  0  0  0
  1 18  1  0  0  0  0
  2 19  1  0  0  0  0
  6 20  1  0  0  0  0
  6 21  1  0  0  0  0
  7 22  1  0  0  0  0
  7 23  1  0  0  0  0
  8 24  1  0  0  0  0
  8 25  1  0  0  0  0
  9 26  1  0  0  0  0
  9 27  1  0  0  0  0
 10 28  1  0  0  0  0
 10 29  1  0  0  0  0
 11 30  1  0  0  0  0
 11 31  1  0  0  0  0
 13 32  1  0  0  0  0
M  CHG  1  13   1
M  END
> <fragments>
x1385

> <Hybrid2>
-6.422934

$$$$
PCM-0102739
  -OEChem-03282016173D

 32 33  0     0  0  0  0  0  0999 V2000
   12.2940   -0.8806   22.7686 C   0  0  0  0  0  0  0  0  0  0  0  0
   12.9416    0.2654   23.1745 C   0  0  0  0  0  0  0  0  0  0  0  0
   10.7387    0.0221   24.2413 C   0  0  0  0  0  0  0  0  0  0  0  0
   11.0178   -1.0216   23.3864 C   0  0  0  0  0  0  0  0  0  0  0  0
    6.1411   -1.2974   19.3482 C   0  0  0  0  0  0  0  0  0  0  0  0
    6.6483   -2.4272   21.4900 C   0  0  0  0  0  0  0  0  0  0  0  0
    7.5234   -0.1490   21.1478 C   0  0  0  0  0  0  0  0  0  0  0  0
    8.0176   -2.9065   21.9491 C   0  0  0  0  0  0  0  0  0  0  0  0
    8.9065   -0.5939   21.6039 C   0  0  0  0  0  0  0  0  0  0  0  0
   10.0891   -2.1727   23.1349 C   0  0  0  0  0  0  0  0  0  0  0  0
    6.3160   -0.0737   18.4846 C   0  0  0  0  0  0  0  0  0  0  0  0
    6.7671   -1.2771   20.5938 N   0  0  0  0  0  0  0  0  0  0  0  0
    8.7624   -1.7468   22.5719 N   0  3  0  0  0  0  0  0  0  0  0  0
    5.4702   -2.2426   18.9258 O   0  0  0  0  0  0  0  0  0  0  0  0
   12.0121    1.1657   24.2962 S   0  0  0  0  0  0  0  0  0  0  0  0
    7.7777   -0.3299   17.5382 Cl  0  0  0  0  0  0  0  0  0  0  0  0
   12.7194   -1.5820   22.0621 H   0  0  0  0  0  0  0  0  0  0  0  0
   13.9163    0.6168   22.8667 H   0  0  0  0  0  0  0  0  0  0  0  0
    9.8500    0.1710   24.8388 H   0  0  0  0  0  0  0  0  0  0  0  0
    6.1192   -3.2496   20.9984 H   0  0  0  0  0  0  0  0  0  0  0  0
    6.0387   -2.1154   22.3469 H   0  0  0  0  0  0  0  0  0  0  0  0
    6.9468    0.2450   21.9935 H   0  0  0  0  0  0  0  0  0  0  0  0
    7.6291    0.6637   20.4272 H   0  0  0  0  0  0  0  0  0  0  0  0
    7.9189   -3.6809   22.7166 H   0  0  0  0  0  0  0  0  0  0  0  0
    8.6208   -3.2860   21.1166 H   0  0  0  0  0  0  0  0  0  0  0  0
    9.5255   -0.9332   20.7658 H   0  0  0  0  0  0  0  0  0  0  0  0
    9.4166    0.2161   22.1352 H   0  0  0  0  0  0  0  0  0  0  0  0
   10.5212   -2.8812   22.4200 H   0  0  0  0  0  0  0  0  0  0  0  0
    9.8773   -2.7195   24.0601 H   0  0  0  0  0  0  0  0  0  0  0  0
    6.4339    0.7938   19.1239 H   0  0  0  0  0  0  0  0  0  0  0  0
    5.4586    0.0184   17.8279 H   0  0  0  0  0  0  0  0  0  0  0  0
    8.2010   -1.4117   23.3671 H   0  0  0  0  0  0  0  0  0  0  0  0
  1  2  2  0  0  0  0
  1  4  1  0  0  0  0
  2 15  1  0  0  0  0
  3  4  2  0  0  0  0
  3 15  1  0  0  0  0
  4 10  1  0  0  0  0
  5 11  1  0  0  0  0
  5 12  1  0  0  0  0
  5 14  2  0  0  0  0
  6  8  1  0  0  0  0
  6 12  1  0  0  0  0
  7  9  1  0  0  0  0
  7 12  1  0  0  0  0
  8 13  1  0  0  0  0
  9 13  1  0  0  0  0
 10 13  1  0  0  0  0
 11 16  1  0  0  0  0
  1 17  1  0  0  0  0
  2 18  1  0  0  0  0
  3 19  1  0  0  0  0
  6 20  1  0  0  0  0
  6 21  1  0  0  0  0
  7 22  1  0  0  0  0
  7 23  1  0  0  0  0
  8 24  1  0  0  0  0
  8 25  1  0  0  0  0
  9 26  1  0  0  0  0
  9 27  1  0  0  0  0
 10 28  1  0  0  0  0
 10 29  1  0  0  0  0
 11 30  1  0  0  0  0
 11 31  1  0  0  0  0
 13 32  1  0  0  0  0
M  CHG  1  13   1
M  END
> <fragments>
x1386

> <Hybrid2>
-6.591770

$$$$
PCM-0102432
  -OEChem-03282016173D

 36 38  0     1  0  0  0  0  0999 V2000
    7.9098   -5.1570   26.3541 C   0  0  0  0  0  0  0  0  0  0  0  0
    8.2747   -3.8112   26.3182 C   0  0  0  0  0  0  0  0  0  0  0  0
    7.6936   -5.8530   25.1648 C   0  0  0  0  0  0  0  0  0  0  0  0
   11.5933   -0.2517   22.3736 C   0  0  0  0  0  0  0  0  0  0  0  0
   11.7601   -1.4311   23.0908 C   0  0  0  0  0  0  0  0  0  0  0  0
    8.4232   -3.1613   25.0929 C   0  0  0  0  0  0  0  0  0  0  0  0
    7.8420   -5.2031   23.9395 C   0  0  0  0  0  0  0  0  0  0  0  0
   10.3951   -0.0110   21.7049 C   0  0  0  0  0  0  0  0  0  0  0  0
   10.7232   -2.3625   23.1543 C   0  0  0  0  0  0  0  0  0  0  0  0
    8.2068   -3.8573   23.9036 C   0  0  0  0  0  0  0  0  0  0  0  0
    9.3470   -0.9446   21.7520 C   0  0  0  0  0  0  0  0  0  0  0  0
    9.4939   -2.1207   22.5154 C   0  0  0  0  0  0  0  0  0  0  0  0
    6.3498   -2.0878   19.8183 C   0  0  0  0  0  0  0  0  0  0  0  0
    8.0846   -0.6449   20.9791 C   0  0  0  0  0  0  0  0  0  0  0  0
    7.0194   -2.5326   22.1550 C   0  0  0  0  0  0  0  0  0  0  0  0
    8.3685   -3.1486   22.5660 C   0  0  2  0  0  0  0  0  0  0  0  0
    6.4628   -1.1782   18.6203 C   0  0  0  0  0  0  0  0  0  0  0  0
    7.1560   -1.7770   20.9137 N   0  0  0  0  0  0  0  0  0  0  0  0
    5.5727   -3.0450   19.7786 O   0  0  0  0  0  0  0  0  0  0  0  0
    5.9803    0.4259   19.1596 Cl  0  0  0  0  0  0  0  0  0  0  0  0
    7.7956   -5.6632   27.3082 H   0  0  0  0  0  0  0  0  0  0  0  0
    8.4442   -3.2694   27.2441 H   0  0  0  0  0  0  0  0  0  0  0  0
    7.4106   -6.9011   25.1924 H   0  0  0  0  0  0  0  0  0  0  0  0
   12.3941    0.4799   22.3350 H   0  0  0  0  0  0  0  0  0  0  0  0
   12.6983   -1.6297   23.6016 H   0  0  0  0  0  0  0  0  0  0  0  0
    8.7075   -2.1125   25.0746 H   0  0  0  0  0  0  0  0  0  0  0  0
    7.6713   -5.7533   23.0180 H   0  0  0  0  0  0  0  0  0  0  0  0
   10.2760    0.9138   21.1445 H   0  0  0  0  0  0  0  0  0  0  0  0
   10.8784   -3.2882   23.7073 H   0  0  0  0  0  0  0  0  0  0  0  0
    7.5919    0.2133   21.4366 H   0  0  0  0  0  0  0  0  0  0  0  0
    8.3468   -0.3926   19.9481 H   0  0  0  0  0  0  0  0  0  0  0  0
    6.2896   -3.3243   21.9606 H   0  0  0  0  0  0  0  0  0  0  0  0
    6.6191   -1.9077   22.9554 H   0  0  0  0  0  0  0  0  0  0  0  0
    8.5875   -3.9476   21.8157 H   0  0  0  0  0  0  0  0  0  0  0  0
    5.7887   -1.5303   17.8482 H   0  0  0  0  0  0  0  0  0  0  0  0
    7.4936   -1.1651   18.2863 H   0  0  0  0  0  0  0  0  0  0  0  0
  1  2  1  0  0  0  0
  1  3  2  0  0  0  0
  2  6  2  0  0  0  0
  3  7  1  0  0  0  0
  4  5  1  0  0  0  0
  4  8  2  0  0  0  0
  5  9  2  0  0  0  0
  6 10  1  0  0  0  0
  7 10  2  0  0  0  0
  8 11  1  0  0  0  0
  9 12  1  0  0  0  0
 10 16  1  0  0  0  0
 11 12  2  0  0  0  0
 11 14  1  0  0  0  0
 12 16  1  0  0  0  0
 13 17  1  0  0  0  0
 13 18  1  0  0  0  0
 13 19  2  0  0  0  0
 14 18  1  0  0  0  0
 15 16  1  0  0  0  0
 15 18  1  0  0  0  0
 17 20  1  0  0  0  0
  1 21  1  0  0  0  0
  2 22  1  0  0  0  0
  3 23  1  0  0  0  0
  4 24  1  0  0  0  0
  5 25  1  0  0  0  0
  6 26  1  0  0  0  0
  7 27  1  0  0  0  0
  8 28  1  0  0  0  0
  9 29  1  0  0  0  0
 14 30  1  0  0  0  0
 14 31  1  0  0  0  0
 15 32  1  0  0  0  0
 15 33  1  0  0  0  0
 16 34  1  0  0  0  0
 17 35  1  0  0  0  0
 17 36  1  0  0  0  0
M  END
> <fragments>
x1392

> <Hybrid2>
-8.119668

$$$$
PCM-0102121
  -OEChem-03282016173D

 31 32  0     0  0  0  0  0  0999 V2000
    4.4737   -3.9915   27.2843 C   0  0  0  0  0  0  0  0  0  0  0  0
    3.9813   -2.6624   27.4296 C   0  0  0  0  0  0  0  0  0  0  0  0
    5.8445   -4.0240   27.1522 C   0  0  0  0  0  0  0  0  0  0  0  0
    4.9947   -1.7295   27.4033 C   0  0  0  0  0  0  0  0  0  0  0  0
    6.0849   -3.5522   21.4729 C   0  0  0  0  0  0  0  0  0  0  0  0
    7.3765   -3.5395   23.6481 C   0  0  0  0  0  0  0  0  0  0  0  0
    5.8977   -5.4469   23.0451 C   0  0  0  0  0  0  0  0  0  0  0  0
    8.0489   -4.5837   24.5297 C   0  0  0  0  0  0  0  0  0  0  0  0
    5.7324   -5.5723   24.5531 C   0  0  0  0  0  0  0  0  0  0  0  0
    6.6919   -2.2028   21.1778 C   0  0  0  0  0  0  0  0  0  0  0  0
    6.4566   -4.1453   22.6795 N   0  0  0  0  0  0  0  0  0  0  0  0
    7.0461   -5.4274   25.2392 N   0  0  0  0  0  0  0  0  0  0  0  0
    5.3112   -4.0637   20.6601 O   0  0  0  0  0  0  0  0  0  0  0  0
    8.2922   -4.8674   27.4175 O   0  0  0  0  0  0  0  0  0  0  0  0
    6.4142   -6.5463   27.4643 O   0  0  0  0  0  0  0  0  0  0  0  0
    6.5322   -2.4566   27.2037 S   0  0  0  0  0  0  0  0  0  0  0  0
    7.0080   -5.3346   26.9418 S   0  0  0  0  0  0  0  0  0  0  0  0
    4.8597   -0.0269   27.5441 Cl  0  0  0  0  0  0  0  0  0  0  0  0
    8.2107   -2.5056   20.3414 Cl  0  0  0  0  0  0  0  0  0  0  0  0
    3.8517   -4.8772   27.2764 H   0  0  0  0  0  0  0  0  0  0  0  0
    2.9348   -2.4105   27.5458 H   0  0  0  0  0  0  0  0  0  0  0  0
    6.7764   -2.8484   24.2632 H   0  0  0  0  0  0  0  0  0  0  0  0
    8.1456   -2.9303   23.1557 H   0  0  0  0  0  0  0  0  0  0  0  0
    6.5278   -6.2622   22.6702 H   0  0  0  0  0  0  0  0  0  0  0  0
    4.9240   -5.5301   22.5431 H   0  0  0  0  0  0  0  0  0  0  0  0
    8.7165   -5.2275   23.9276 H   0  0  0  0  0  0  0  0  0  0  0  0
    8.6791   -4.0673   25.2753 H   0  0  0  0  0  0  0  0  0  0  0  0
    5.0503   -4.7816   24.9035 H   0  0  0  0  0  0  0  0  0  0  0  0
    5.2803   -6.5432   24.8152 H   0  0  0  0  0  0  0  0  0  0  0  0
    6.8787   -1.6890   22.1140 H   0  0  0  0  0  0  0  0  0  0  0  0
    6.0179   -1.6470   20.5362 H   0  0  0  0  0  0  0  0  0  0  0  0
  1  2  1  0  0  0  0
  1  3  2  0  0  0  0
  2  4  2  0  0  0  0
  3 16  1  0  0  0  0
  3 17  1  0  0  0  0
  4 16  1  0  0  0  0
  4 18  1  0  0  0  0
  5 10  1  0  0  0  0
  5 11  1  0  0  0  0
  5 13  2  0  0  0  0
  6  8  1  0  0  0  0
  6 11  1  0  0  0  0
  7  9  1  0  0  0  0
  7 11  1  0  0  0  0
  8 12  1  0  0  0  0
  9 12  1  0  0  0  0
 10 19  1  0  0  0  0
 12 17  1  0  0  0  0
 14 17  2  0  0  0  0
 15 17  2  0  0  0  0
  1 20  1  0  0  0  0
  2 21  1  0  0  0  0
  6 22  1  0  0  0  0
  6 23  1  0  0  0  0
  7 24  1  0  0  0  0
  7 25  1  0  0  0  0
  8 26  1  0  0  0  0
  8 27  1  0  0  0  0
  9 28  1  0  0  0  0
  9 29  1  0  0  0  0
 10 30  1  0  0  0  0
 10 31  1  0  0  0  0
M  END
> <fragments>
x1402

> <Hybrid2>
-2.153136

$$$$
PCM-0102306
  -OEChem-03282016173D

 30 31  0     0  0  0  0  0  0999 V2000
    8.6440   -5.6474   26.9451 C   0  0  0  0  0  0  0  0  0  0  0  0
    9.3514   -4.9099   25.9522 C   0  0  0  0  0  0  0  0  0  0  0  0
    7.5497   -4.9583   27.4198 C   0  0  0  0  0  0  0  0  0  0  0  0
    8.7706   -3.6853   25.7056 C   0  0  0  0  0  0  0  0  0  0  0  0
    9.1903   -2.6399   24.7629 C   0  0  0  0  0  0  0  0  0  0  0  0
    6.4215   -2.0153   20.0245 C   0  0  0  0  0  0  0  0  0  0  0  0
    7.7537   -3.6895   22.9348 C   0  0  0  0  0  0  0  0  0  0  0  0
    9.1262   -1.6949   22.4777 C   0  0  0  0  0  0  0  0  0  0  0  0
    6.5491   -3.0155   22.2856 C   0  0  0  0  0  0  0  0  0  0  0  0
    7.9288   -1.0170   21.8152 C   0  0  0  0  0  0  0  0  0  0  0  0
    6.9177   -0.9567   19.0724 C   0  0  0  0  0  0  0  0  0  0  0  0
    8.6789   -2.6786   23.4645 N   0  0  0  0  0  0  0  0  0  0  0  0
    6.9782   -2.0150   21.3028 N   0  0  0  0  0  0  0  0  0  0  0  0
    9.9650   -1.7908   25.2014 O   0  0  0  0  0  0  0  0  0  0  0  0
    5.5670   -2.8185   19.6417 O   0  0  0  0  0  0  0  0  0  0  0  0
    7.3785   -3.4287   26.6692 S   0  0  0  0  0  0  0  0  0  0  0  0
    5.8474    0.4283   19.2568 Cl  0  0  0  0  0  0  0  0  0  0  0  0
    8.9243   -6.6326   27.2943 H   0  0  0  0  0  0  0  0  0  0  0  0
   10.2410   -5.2650   25.4472 H   0  0  0  0  0  0  0  0  0  0  0  0
    6.8432   -5.2799   28.1721 H   0  0  0  0  0  0  0  0  0  0  0  0
    7.4368   -4.3157   23.7767 H   0  0  0  0  0  0  0  0  0  0  0  0
    8.2414   -4.3423   22.2076 H   0  0  0  0  0  0  0  0  0  0  0  0
    9.7536   -2.1658   21.7140 H   0  0  0  0  0  0  0  0  0  0  0  0
    9.7445   -0.9566   23.0025 H   0  0  0  0  0  0  0  0  0  0  0  0
    5.9382   -3.7550   21.7517 H   0  0  0  0  0  0  0  0  0  0  0  0
    5.9187   -2.5785   23.0637 H   0  0  0  0  0  0  0  0  0  0  0  0
    7.4399   -0.3494   22.5298 H   0  0  0  0  0  0  0  0  0  0  0  0
    8.2530   -0.4090   20.9634 H   0  0  0  0  0  0  0  0  0  0  0  0
    6.8598   -1.3396   18.0599 H   0  0  0  0  0  0  0  0  0  0  0  0
    7.9302   -0.6840   19.3468 H   0  0  0  0  0  0  0  0  0  0  0  0
  1  2  1  0  0  0  0
  1  3  2  0  0  0  0
  2  4  2  0  0  0  0
  3 16  1  0  0  0  0
  4  5  1  0  0  0  0
  4 16  1  0  0  0  0
  5 12  1  0  0  0  0
  5 14  2  0  0  0  0
  6 11  1  0  0  0  0
  6 13  1  0  0  0  0
  6 15  2  0  0  0  0
  7  9  1  0  0  0  0
  7 12  1  0  0  0  0
  8 10  1  0  0  0  0
  8 12  1  0  0  0  0
  9 13  1  0  0  0  0
 10 13  1  0  0  0  0
 11 17  1  0  0  0  0
  1 18  1  0  0  0  0
  2 19  1  0  0  0  0
  3 20  1  0  0  0  0
  7 21  1  0  0  0  0
  7 22  1  0  0  0  0
  8 23  1  0  0  0  0
  8 24  1  0  0  0  0
  9 25  1  0  0  0  0
  9 26  1  0  0  0  0
 10 27  1  0  0  0  0
 10 28  1  0  0  0  0
 11 29  1  0  0  0  0
 11 30  1  0  0  0  0
M  END
> <fragments>
x1412

> <Hybrid2>
-4.936234

$$$$
PCM-0102243
  -OEChem-03282016173D

 32 33  0     0  0  0  0  0  0999 V2000
   11.8051    1.3547   24.4191 C   0  0  0  0  0  0  0  0  0  0  0  0
   10.9277    0.2346   24.4940 C   0  0  0  0  0  0  0  0  0  0  0  0
   12.8290    1.1508   23.5204 C   0  0  0  0  0  0  0  0  0  0  0  0
   11.3144   -0.7828   23.6494 C   0  0  0  0  0  0  0  0  0  0  0  0
    6.4387   -2.1786   19.8488 C   0  0  0  0  0  0  0  0  0  0  0  0
    7.2936   -3.1551   21.9551 C   0  0  0  0  0  0  0  0  0  0  0  0
    7.6085   -0.7387   21.5883 C   0  0  0  0  0  0  0  0  0  0  0  0
    8.7568   -3.3077   22.3441 C   0  0  0  0  0  0  0  0  0  0  0  0
    9.0771   -0.8546   21.9739 C   0  0  0  0  0  0  0  0  0  0  0  0
   10.6615   -2.1164   23.4342 C   0  0  0  0  0  0  0  0  0  0  0  0
    6.8513   -1.2657   18.7219 C   0  0  0  0  0  0  0  0  0  0  0  0
    7.1033   -2.0115   21.0629 N   0  0  0  0  0  0  0  0  0  0  0  0
    9.2469   -2.0064   22.9391 N   0  3  0  0  0  0  0  0  0  0  0  0
    5.5541   -3.0161   19.6532 O   0  0  0  0  0  0  0  0  0  0  0  0
   12.7300   -0.3859   22.7714 S   0  0  0  0  0  0  0  0  0  0  0  0
    5.8015    0.1445   18.8060 Cl  0  0  0  0  0  0  0  0  0  0  0  0
   11.6913    2.2644   24.9941 H   0  0  0  0  0  0  0  0  0  0  0  0
   10.0572    0.1832   25.1356 H   0  0  0  0  0  0  0  0  0  0  0  0
   13.6306    1.8306   23.2680 H   0  0  0  0  0  0  0  0  0  0  0  0
    6.9428   -4.0783   21.4834 H   0  0  0  0  0  0  0  0  0  0  0  0
    6.6714   -2.9874   22.8427 H   0  0  0  0  0  0  0  0  0  0  0  0
    6.9991   -0.4834   22.4637 H   0  0  0  0  0  0  0  0  0  0  0  0
    7.4910    0.0741   20.8695 H   0  0  0  0  0  0  0  0  0  0  0  0
    8.8747   -4.0814   23.1097 H   0  0  0  0  0  0  0  0  0  0  0  0
    9.3894   -3.5427   21.4807 H   0  0  0  0  0  0  0  0  0  0  0  0
    9.7157   -1.0469   21.1044 H   0  0  0  0  0  0  0  0  0  0  0  0
    9.4143    0.0524   22.4860 H   0  0  0  0  0  0  0  0  0  0  0  0
   11.2085   -2.7102   22.6941 H   0  0  0  0  0  0  0  0  0  0  0  0
   10.6252   -2.6937   24.3644 H   0  0  0  0  0  0  0  0  0  0  0  0
    6.7060   -1.7822   17.7799 H   0  0  0  0  0  0  0  0  0  0  0  0
    7.8839   -0.9705   18.8689 H   0  0  0  0  0  0  0  0  0  0  0  0
    8.6632   -1.8053   23.7628 H   0  0  0  0  0  0  0  0  0  0  0  0
  1  2  1  0  0  0  0
  1  3  2  0  0  0  0
  2  4  2  0  0  0  0
  3 15  1  0  0  0  0
  4 10  1  0  0  0  0
  4 15  1  0  0  0  0
  5 11  1  0  0  0  0
  5 12  1  0  0  0  0
  5 14  2  0  0  0  0
  6  8  1  0  0  0  0
  6 12  1  0  0  0  0
  7  9  1  0  0  0  0
  7 12  1  0  0  0  0
  8 13  1  0  0  0  0
  9 13  1  0  0  0  0
 10 13  1  0  0  0  0
 11 16  1  0  0  0  0
  1 17  1  0  0  0  0
  2 18  1  0  0  0  0
  3 19  1  0  0  0  0
  6 20  1  0  0  0  0
  6 21  1  0  0  0  0
  7 22  1  0  0  0  0
  7 23  1  0  0  0  0
  8 24  1  0  0  0  0
  8 25  1  0  0  0  0
  9 26  1  0  0  0  0
  9 27  1  0  0  0  0
 10 28  1  0  0  0  0
 10 29  1  0  0  0  0
 11 30  1  0  0  0  0
 11 31  1  0  0  0  0
 13 32  1  0  0  0  0
M  CHG  1  13   1
M  END
> <fragments>
x1418

> <Hybrid2>
-6.103490

$$$$
PCM-0102254
  -OEChem-03282016173D

 35 36  0     0  0  0  0  0  0999 V2000
    3.2355   -3.1082   26.1512 C   0  0  0  0  0  0  0  0  0  0  0  0
    5.4400   -3.3792   27.1018 C   0  0  0  0  0  0  0  0  0  0  0  0
    2.6981   -2.9855   27.4325 C   0  0  0  0  0  0  0  0  0  0  0  0
    4.9026   -3.2564   28.3831 C   0  0  0  0  0  0  0  0  0  0  0  0
    4.6065   -3.3051   25.9858 C   0  0  0  0  0  0  0  0  0  0  0  0
    3.5316   -3.0595   28.5484 C   0  0  0  0  0  0  0  0  0  0  0  0
    6.1445   -3.2283   20.7062 C   0  0  0  0  0  0  0  0  0  0  0  0
    4.2889   -4.0070   23.6524 C   0  0  0  0  0  0  0  0  0  0  0  0
    6.1619   -2.4695   24.2446 C   0  0  0  0  0  0  0  0  0  0  0  0
    5.1436   -4.5783   22.5233 C   0  0  0  0  0  0  0  0  0  0  0  0
    6.9834   -3.0650   23.1013 C   0  0  0  0  0  0  0  0  0  0  0  0
    1.5977   -2.7401   29.8953 C   0  0  0  0  0  0  0  0  0  0  0  0
    7.1692   -2.1945   20.3132 C   0  0  0  0  0  0  0  0  0  0  0  0
    5.1457   -3.4284   24.7001 N   0  0  0  0  0  0  0  0  0  0  0  0
    6.1061   -3.5861   22.0515 N   0  0  0  0  0  0  0  0  0  0  0  0
    5.4006   -3.7004   19.8427 O   0  0  0  0  0  0  0  0  0  0  0  0
    3.0072   -2.9397   29.7987 O   0  0  0  0  0  0  0  0  0  0  0  0
    6.3774   -0.6282   20.4410 Cl  0  0  0  0  0  0  0  0  0  0  0  0
    2.5768   -3.0489   25.2885 H   0  0  0  0  0  0  0  0  0  0  0  0
    6.5098   -3.5324   26.9844 H   0  0  0  0  0  0  0  0  0  0  0  0
    1.6293   -2.8322   27.5549 H   0  0  0  0  0  0  0  0  0  0  0  0
    5.5570   -3.3150   29.2486 H   0  0  0  0  0  0  0  0  0  0  0  0
    3.6151   -3.2381   23.2602 H   0  0  0  0  0  0  0  0  0  0  0  0
    3.6748   -4.8065   24.0779 H   0  0  0  0  0  0  0  0  0  0  0  0
    6.8128   -2.2132   25.0869 H   0  0  0  0  0  0  0  0  0  0  0  0
    5.6946   -1.5407   23.8993 H   0  0  0  0  0  0  0  0  0  0  0  0
    5.7079   -5.4415   22.8721 H   0  0  0  0  0  0  0  0  0  0  0  0
    4.5012   -4.8924   21.7060 H   0  0  0  0  0  0  0  0  0  0  0  0
    7.6227   -2.3063   22.6474 H   0  0  0  0  0  0  0  0  0  0  0  0
    7.6242   -3.8609   23.4791 H   0  0  0  0  0  0  0  0  0  0  0  0
    1.3114   -2.6609   30.9468 H   0  0  0  0  0  0  0  0  0  0  0  0
    1.0771   -3.5793   29.4270 H   0  0  0  0  0  0  0  0  0  0  0  0
    1.3334   -1.8151   29.3773 H   0  0  0  0  0  0  0  0  0  0  0  0
    7.4745   -2.3755   19.2893 H   0  0  0  0  0  0  0  0  0  0  0  0
    8.0032   -2.2483   21.0028 H   0  0  0  0  0  0  0  0  0  0  0  0
  1  3  2  0  0  0  0
  1  5  1  0  0  0  0
  2  4  1  0  0  0  0
  2  5  2  0  0  0  0
  3  6  1  0  0  0  0
  4  6  2  0  0  0  0
  5 14  1  0  0  0  0
  6 17  1  0  0  0  0
  7 13  1  0  0  0  0
  7 15  1  0  0  0  0
  7 16  2  0  0  0  0
  8 10  1  0  0  0  0
  8 14  1  0  0  0  0
  9 11  1  0  0  0  0
  9 14  1  0  0  0  0
 10 15  1  0  0  0  0
 11 15  1  0  0  0  0
 12 17  1  0  0  0  0
 13 18  1  0  0  0  0
  1 19  1  0  0  0  0
  2 20  1  0  0  0  0
  3 21  1  0  0  0  0
  4 22  1  0  0  0  0
  8 23  1  0  0  0  0
  8 24  1  0  0  0  0
  9 25  1  0  0  0  0
  9 26  1  0  0  0  0
 10 27  1  0  0  0  0
 10 28  1  0  0  0  0
 11 29  1  0  0  0  0
 11 30  1  0  0  0  0
 12 31  1  0  0  0  0
 12 32  1  0  0  0  0
 12 33  1  0  0  0  0
 13 34  1  0  0  0  0
 13 35  1  0  0  0  0
M  END
> <fragments>
x1425

> <Hybrid2>
-1.256195

$$$$
PCM-0102974
  -OEChem-03282016173D

 38 38  0     0  0  0  0  0  0999 V2000
    8.2872   -4.5616   24.9277 C   0  0  0  0  0  0  0  0  0  0  0  0
    6.2519   -3.3172   20.1642 C   0  0  0  0  0  0  0  0  0  0  0  0
    6.9598   -2.7561   23.8524 C   0  0  0  0  0  0  0  0  0  0  0  0
    6.5323   -5.2189   23.3153 C   0  0  0  0  0  0  0  0  0  0  0  0
    7.3142   -2.6876   22.3684 C   0  0  0  0  0  0  0  0  0  0  0  0
    5.6965   -4.5865   22.2090 C   0  0  0  0  0  0  0  0  0  0  0  0
    6.9397   -4.1949   24.3809 C   0  0  0  0  0  0  0  0  0  0  0  0
    8.2146   -2.7626   28.1592 C   0  0  0  0  0  0  0  0  0  0  0  0
    6.6509   -4.6955   27.7530 C   0  0  0  0  0  0  0  0  0  0  0  0
    9.7863   -4.5616   26.9274 C   0  0  0  0  0  0  0  0  0  0  0  0
    7.0406   -2.1903   19.5431 C   0  0  0  0  0  0  0  0  0  0  0  0
    7.5156   -3.6191   27.1133 C   0  0  0  0  0  0  0  0  0  0  0  0
    6.4239   -3.5076   21.5368 N   0  0  0  0  0  0  0  0  0  0  0  0
    8.5213   -4.2597   26.2697 N   0  0  0  0  0  0  0  0  0  0  0  0
    9.1115   -5.1016   24.1851 O   0  0  0  0  0  0  0  0  0  0  0  0
    5.5068   -4.0005   19.4578 O   0  0  0  0  0  0  0  0  0  0  0  0
    6.0154   -0.7613   19.6101 Cl  0  0  0  0  0  0  0  0  0  0  0  0
    7.6727   -2.1495   24.4218 H   0  0  0  0  0  0  0  0  0  0  0  0
    5.9694   -2.3092   24.0003 H   0  0  0  0  0  0  0  0  0  0  0  0
    5.9464   -6.0092   23.7921 H   0  0  0  0  0  0  0  0  0  0  0  0
    7.4181   -5.6857   22.8793 H   0  0  0  0  0  0  0  0  0  0  0  0
    7.2950   -1.6375   22.0343 H   0  0  0  0  0  0  0  0  0  0  0  0
    8.3431   -3.0463   22.1948 H   0  0  0  0  0  0  0  0  0  0  0  0
    5.4393   -5.3297   21.4404 H   0  0  0  0  0  0  0  0  0  0  0  0
    4.7467   -4.2384   22.6292 H   0  0  0  0  0  0  0  0  0  0  0  0
    6.2511   -4.2624   25.2221 H   0  0  0  0  0  0  0  0  0  0  0  0
    8.8434   -3.3783   28.8105 H   0  0  0  0  0  0  0  0  0  0  0  0
    8.8492   -2.0006   27.6930 H   0  0  0  0  0  0  0  0  0  0  0  0
    7.4832   -2.2423   28.7872 H   0  0  0  0  0  0  0  0  0  0  0  0
    7.2531   -5.3448   28.3979 H   0  0  0  0  0  0  0  0  0  0  0  0
    6.1781   -5.3211   26.9888 H   0  0  0  0  0  0  0  0  0  0  0  0
    5.8603   -4.2581   28.3730 H   0  0  0  0  0  0  0  0  0  0  0  0
   10.4693   -3.7060   26.8200 H   0  0  0  0  0  0  0  0  0  0  0  0
    9.6071   -4.7557   27.9952 H   0  0  0  0  0  0  0  0  0  0  0  0
   10.2374   -5.4512   26.4636 H   0  0  0  0  0  0  0  0  0  0  0  0
    7.2611   -2.4422   18.5121 H   0  0  0  0  0  0  0  0  0  0  0  0
    7.9414   -2.0300   20.1243 H   0  0  0  0  0  0  0  0  0  0  0  0
    6.8932   -2.9832   26.4743 H   0  0  0  0  0  0  0  0  0  0  0  0
  1  7  1  0  0  0  0
  1 14  1  0  0  0  0
  1 15  2  0  0  0  0
  2 11  1  0  0  0  0
  2 13  1  0  0  0  0
  2 16  2  0  0  0  0
  3  5  1  0  0  0  0
  3  7  1  0  0  0  0
  4  6  1  0  0  0  0
  4  7  1  0  0  0  0
  5 13  1  0  0  0  0
  6 13  1  0  0  0  0
  8 12  1  0  0  0  0
  9 12  1  0  0  0  0
 10 14  1  0  0  0  0
 11 17  1  0  0  0  0
 12 14  1  0  0  0  0
  3 18  1  0  0  0  0
  3 19  1  0  0  0  0
  4 20  1  0  0  0  0
  4 21  1  0  0  0  0
  5 22  1  0  0  0  0
  5 23  1  0  0  0  0
  6 24  1  0  0  0  0
  6 25  1  0  0  0  0
  7 26  1  0  0  0  0
  8 27  1  0  0  0  0
  8 28  1  0  0  0  0
  8 29  1  0  0  0  0
  9 30  1  0  0  0  0
  9 31  1  0  0  0  0
  9 32  1  0  0  0  0
 10 33  1  0  0  0  0
 10 34  1  0  0  0  0
 10 35  1  0  0  0  0
 11 36  1  0  0  0  0
 11 37  1  0  0  0  0
 12 38  1  0  0  0  0
M  END
> <fragments>
x1458

> <Hybrid2>
-3.005788

$$$$
PCM-0102274
  -OEChem-03282016173D

 18 18  0     0  0  0  0  0  0999 V2000
    4.6814   -4.3738   23.5600 C   0  0  0  0  0  0  0  0  0  0  0  0
    5.2598   -3.4586   22.6875 C   0  0  0  0  0  0  0  0  0  0  0  0
    5.4746   -4.9013   24.5662 C   0  0  0  0  0  0  0  0  0  0  0  0
    6.5949   -3.1039   22.8457 C   0  0  0  0  0  0  0  0  0  0  0  0
    7.3024   -3.6880   23.8840 C   0  0  0  0  0  0  0  0  0  0  0  0
    6.8221   -1.9866   20.6405 C   0  0  0  0  0  0  0  0  0  0  0  0
    7.6606   -0.9094   19.9925 C   0  0  0  0  0  0  0  0  0  0  0  0
    6.7749   -4.5808   24.7513 N   0  0  0  0  0  0  0  0  0  0  0  0
    7.1750   -2.1849   21.9703 N   0  0  0  0  0  0  0  0  0  0  0  0
    5.9667   -2.5791   19.9884 O   0  0  0  0  0  0  0  0  0  0  0  0
    8.9596   -3.3338   24.1871 Cl  0  0  0  0  0  0  0  0  0  0  0  0
    9.2486   -0.9166   20.7760 Cl  0  0  0  0  0  0  0  0  0  0  0  0
    3.6427   -4.6657   23.4553 H   0  0  0  0  0  0  0  0  0  0  0  0
    4.6606   -3.0293   21.8888 H   0  0  0  0  0  0  0  0  0  0  0  0
    5.0713   -5.6197   25.2722 H   0  0  0  0  0  0  0  0  0  0  0  0
    7.2220    0.0865   20.0932 H   0  0  0  0  0  0  0  0  0  0  0  0
    7.7852   -1.1350   18.9296 H   0  0  0  0  0  0  0  0  0  0  0  0
    7.9266   -1.6060   22.3399 H   0  0  0  0  0  0  0  0  0  0  0  0
  1  2  2  0  0  0  0
  1  3  1  0  0  0  0
  2  4  1  0  0  0  0
  3  8  2  0  0  0  0
  4  5  2  0  0  0  0
  4  9  1  0  0  0  0
  5  8  1  0  0  0  0
  5 11  1  0  0  0  0
  6  7  1  0  0  0  0
  6  9  1  0  0  0  0
  6 10  2  0  0  0  0
  7 12  1  0  0  0  0
  1 13  1  0  0  0  0
  2 14  1  0  0  0  0
  3 15  1  0  0  0  0
  7 16  1  0  0  0  0
  7 17  1  0  0  0  0
  9 18  1  0  0  0  0
M  END
> <fragments>
x1478

> <Hybrid2>
-3.614936

$$$$
PCM-0102535
  -OEChem-03282016173D

 26 26  0     0  0  0  0  0  0999 V2000
    6.8760   -5.2852   20.9663 C   0  0  0  0  0  0  0  0  0  0  0  0
    6.2971   -6.0094   26.5567 C   0  0  0  0  0  0  0  0  0  0  0  0
    5.3855   -5.2821   22.9380 C   0  0  0  0  0  0  0  0  0  0  0  0
    7.8536   -5.2494   23.2948 C   0  0  0  0  0  0  0  0  0  0  0  0
    5.3366   -6.1018   24.2226 C   0  0  0  0  0  0  0  0  0  0  0  0
    7.4316   -4.8362   24.7006 C   0  0  0  0  0  0  0  0  0  0  0  0
    8.2940   -5.2687   20.4496 C   0  0  0  0  0  0  0  0  0  0  0  0
    5.1315   -6.8637   26.9919 C   0  0  0  0  0  0  0  0  0  0  0  0
    6.7274   -5.2738   22.3539 N   0  0  0  0  0  0  0  0  0  0  0  0
    6.3397   -5.6707   25.2035 N   0  0  0  0  0  0  0  0  0  0  0  0
    5.9360   -5.3022   20.1683 O   0  0  0  0  0  0  0  0  0  0  0  0
    7.1351   -5.6518   27.3876 O   0  0  0  0  0  0  0  0  0  0  0  0
    5.3435   -7.1664   28.7127 Cl  0  0  0  0  0  0  0  0  0  0  0  0
    4.7052   -5.7106   22.1852 H   0  0  0  0  0  0  0  0  0  0  0  0
    5.0234   -4.2679   23.1451 H   0  0  0  0  0  0  0  0  0  0  0  0
    8.6433   -4.5727   22.9323 H   0  0  0  0  0  0  0  0  0  0  0  0
    8.2899   -6.2624   23.3056 H   0  0  0  0  0  0  0  0  0  0  0  0
    4.3487   -6.0048   24.7040 H   0  0  0  0  0  0  0  0  0  0  0  0
    5.4650   -7.1696   23.9848 H   0  0  0  0  0  0  0  0  0  0  0  0
    8.3063   -4.8654   25.3614 H   0  0  0  0  0  0  0  0  0  0  0  0
    7.0725   -3.7951   24.7010 H   0  0  0  0  0  0  0  0  0  0  0  0
    8.6431   -6.2900   20.3381 H   0  0  0  0  0  0  0  0  0  0  0  0
    8.9235   -4.7366   21.1556 H   0  0  0  0  0  0  0  0  0  0  0  0
    8.3165   -4.7622   19.4900 H   0  0  0  0  0  0  0  0  0  0  0  0
    5.1569   -7.7986   26.4437 H   0  0  0  0  0  0  0  0  0  0  0  0
    4.2115   -6.3167   26.8205 H   0  0  0  0  0  0  0  0  0  0  0  0
  1  7  1  0  0  0  0
  1  9  1  0  0  0  0
  1 11  2  0  0  0  0
  2  8  1  0  0  0  0
  2 10  1  0  0  0  0
  2 12  2  0  0  0  0
  3  5  1  0  0  0  0
  3  9  1  0  0  0  0
  4  6  1  0  0  0  0
  4  9  1  0  0  0  0
  5 10  1  0  0  0  0
  6 10  1  0  0  0  0
  8 13  1  0  0  0  0
  3 14  1  0  0  0  0
  3 15  1  0  0  0  0
  4 16  1  0  0  0  0
  4 17  1  0  0  0  0
  5 18  1  0  0  0  0
  5 19  1  0  0  0  0
  6 20  1  0  0  0  0
  6 21  1  0  0  0  0
  7 22  1  0  0  0  0
  7 23  1  0  0  0  0
  7 24  1  0  0  0  0
  8 25  1  0  0  0  0
  8 26  1  0  0  0  0
M  END
> <fragments>
x1493

> <Hybrid2>
-3.740527

$$$$
