JOR-UNI-2fc-12
 OpenBabel03242009303D

 49 51  0  0  0  0  0  0  0  0999 V2000
   12.7463   -0.8246   22.3692 C   0  0  0  0  0  0  0  0  0  0  0  0
    4.4984   -5.6323   24.2899 C   0  0  0  0  0  0  0  0  0  0  0  0
   11.9317   -1.8922   22.7464 C   0  0  0  0  0  0  0  0  0  0  0  0
    5.6737   -4.9585   24.6028 C   0  0  0  0  0  0  0  0  0  0  0  0
   12.2041    0.4539   22.2378 C   0  0  0  0  0  0  0  0  0  0  0  0
   10.0327   -0.4029   22.8606 C   0  0  0  0  0  0  0  0  0  0  0  0
    4.0366   -5.5594   22.9856 C   0  0  0  0  0  0  0  0  0  0  0  0
    5.7977   -4.2321   22.3415 C   0  0  0  0  0  0  0  0  0  0  0  0
   10.5750   -1.6814   22.9921 C   0  0  0  0  0  0  0  0  0  0  0  0
    6.3419   -4.2426   23.6157 C   0  0  0  0  0  0  0  0  0  0  0  0
   10.8474    0.6647   22.4834 C   0  0  0  0  0  0  0  0  0  0  0  0
    8.3213   -2.7875   23.0229 C   0  0  0  0  0  0  0  0  0  0  0  0
    8.6943   -2.7746   29.0912 C   0  0  0  0  0  0  0  0  0  0  0  0
    8.0482   -3.6659   28.0352 C   0  0  0  0  0  0  0  0  0  0  0  0
    9.4710   -1.6253   28.4564 C   0  0  0  0  0  0  0  0  0  0  0  0
    9.0727   -4.1741   27.0233 C   0  0  0  0  0  0  0  0  0  0  0  0
   10.4979   -2.1300   27.4451 C   0  0  0  0  0  0  0  0  0  0  0  0
    9.8501   -3.0200   26.3759 C   0  0  0  0  0  0  0  0  0  0  0  0
   10.9042   -3.5554   25.4086 C   0  0  0  0  0  0  0  0  0  0  0  0
   10.3179   -3.9281   24.0546 C   0  0  0  0  0  0  0  0  0  0  0  0
    4.6582   -4.8742   21.9998 N   0  0  0  0  0  0  0  0  0  0  0  0
    7.5407   -3.5462   23.9040 N   0  0  0  0  0  0  0  0  0  0  0  0
    9.7192   -2.8052   23.3877 N   0  0  0  0  0  0  0  0  0  0  0  0
    7.8654   -2.1794   22.0533 O   0  0  0  0  0  0  0  0  0  0  0  0
   10.1783    2.2421   22.3213 Cl  0  0  0  0  0  0  0  0  0  0  0  0
   13.8029   -0.9889   22.1779 H   0  0  0  0  0  0  0  0  0  0  0  0
    3.9609   -6.1966   25.0433 H   0  0  0  0  0  0  0  0  0  0  0  0
   12.3655   -2.8843   22.8456 H   0  0  0  0  0  0  0  0  0  0  0  0
    6.0598   -4.9979   25.6179 H   0  0  0  0  0  0  0  0  0  0  0  0
   12.8513    1.2759   21.9434 H   0  0  0  0  0  0  0  0  0  0  0  0
    8.9743   -0.2421   23.0533 H   0  0  0  0  0  0  0  0  0  0  0  0
    3.1239   -6.0668   22.6909 H   0  0  0  0  0  0  0  0  0  0  0  0
    6.2735   -3.6912   21.5289 H   0  0  0  0  0  0  0  0  0  0  0  0
    7.9224   -2.3740   29.7580 H   0  0  0  0  0  0  0  0  0  0  0  0
    9.3726   -3.3753   29.7097 H   0  0  0  0  0  0  0  0  0  0  0  0
    7.5573   -4.5164   28.5219 H   0  0  0  0  0  0  0  0  0  0  0  0
    7.2660   -3.1031   27.5109 H   0  0  0  0  0  0  0  0  0  0  0  0
    8.7717   -0.9437   27.9567 H   0  0  0  0  0  0  0  0  0  0  0  0
    9.9766   -1.0470   29.2381 H   0  0  0  0  0  0  0  0  0  0  0  0
    9.7689   -4.8566   27.5278 H   0  0  0  0  0  0  0  0  0  0  0  0
    8.5591   -4.7592   26.2511 H   0  0  0  0  0  0  0  0  0  0  0  0
   10.9899   -1.2725   26.9706 H   0  0  0  0  0  0  0  0  0  0  0  0
   11.2790   -2.6907   27.9746 H   0  0  0  0  0  0  0  0  0  0  0  0
    9.1433   -2.4081   25.7996 H   0  0  0  0  0  0  0  0  0  0  0  0
   11.3639   -4.4422   25.8559 H   0  0  0  0  0  0  0  0  0  0  0  0
   11.6902   -2.8030   25.2886 H   0  0  0  0  0  0  0  0  0  0  0  0
   11.1090   -4.3051   23.3987 H   0  0  0  0  0  0  0  0  0  0  0  0
    9.5549   -4.7070   24.1504 H   0  0  0  0  0  0  0  0  0  0  0  0
    7.8735   -3.6037   24.8624 H   0  0  0  0  0  0  0  0  0  0  0  0
  1  3  2  0  0  0  0
  1  5  1  0  0  0  0
  1 26  1  0  0  0  0
  2  4  2  0  0  0  0
  2  7  1  0  0  0  0
  2 27  1  0  0  0  0
  3  9  1  0  0  0  0
  3 28  1  0  0  0  0
  4 10  1  0  0  0  0
  4 29  1  0  0  0  0
  5 11  2  0  0  0  0
  5 30  1  0  0  0  0
  6  9  2  0  0  0  0
  6 11  1  0  0  0  0
  6 31  1  0  0  0  0
  7 21  2  0  0  0  0
  7 32  1  0  0  0  0
  8 10  2  0  0  0  0
  8 21  1  0  0  0  0
  8 33  1  0  0  0  0
  9 23  1  0  0  0  0
 10 22  1  0  0  0  0
 11 25  1  0  0  0  0
 12 22  1  0  0  0  0
 12 23  1  0  0  0  0
 12 24  2  0  0  0  0
 13 14  1  0  0  0  0
 13 15  1  0  0  0  0
 13 34  1  0  0  0  0
 13 35  1  0  0  0  0
 14 16  1  0  0  0  0
 14 36  1  0  0  0  0
 14 37  1  0  0  0  0
 15 17  1  0  0  0  0
 15 38  1  0  0  0  0
 15 39  1  0  0  0  0
 16 18  1  0  0  0  0
 16 40  1  0  0  0  0
 16 41  1  0  0  0  0
 17 18  1  0  0  0  0
 17 42  1  0  0  0  0
 17 43  1  0  0  0  0
 18 19  1  0  0  0  0
 18 44  1  0  0  0  0
 19 20  1  0  0  0  0
 19 45  1  0  0  0  0
 19 46  1  0  0  0  0
 20 23  1  0  0  0  0
 20 47  1  0  0  0  0
 20 48  1  0  0  0  0
 22 49  1  0  0  0  0
M  END
>  <Chemgauss4 Score>
-5.32146263122559

>  <Number of Confs>
200

$$$$
