NIM-UNI-36e-4
 OpenBabel03242009303D

 43 46  0  0  0  0  0  0  0  0999 V2000
    8.0197   -4.7540   29.3570 C   0  0  0  0  0  0  0  0  0  0  0  0
   11.2121   -2.8487   23.8868 C   0  0  0  0  0  0  0  0  0  0  0  0
   11.0883   -1.5468   23.3699 C   0  0  0  0  0  0  0  0  0  0  0  0
    8.9237   -0.3088   21.1901 C   0  0  0  0  0  0  0  0  0  0  0  0
    8.2163    1.8915   21.8938 C   0  0  0  0  0  0  0  0  0  0  0  0
    8.2257   -3.6243   28.5730 C   0  0  0  0  0  0  0  0  0  0  0  0
    8.0585   -0.2378   20.0982 C   0  0  0  0  0  0  0  0  0  0  0  0
    7.3511    1.9625   20.8019 C   0  0  0  0  0  0  0  0  0  0  0  0
    7.7672   -5.9539   28.7118 C   0  0  0  0  0  0  0  0  0  0  0  0
    7.9146   -4.9735   26.6393 C   0  0  0  0  0  0  0  0  0  0  0  0
   10.3574   -3.3135   24.8961 C   0  0  0  0  0  0  0  0  0  0  0  0
    9.0025    0.7558   22.0879 C   0  0  0  0  0  0  0  0  0  0  0  0
   10.0963   -0.6886   23.8406 C   0  0  0  0  0  0  0  0  0  0  0  0
    8.1737   -3.7276   27.1874 C   0  0  0  0  0  0  0  0  0  0  0  0
    9.3986   -2.4474   25.3899 C   0  0  0  0  0  0  0  0  0  0  0  0
    9.2699   -1.1716   24.8350 C   0  0  0  0  0  0  0  0  0  0  0  0
    7.2723    0.8978   19.9041 C   0  0  0  0  0  0  0  0  0  0  0  0
    7.5896   -1.3928   26.3773 C   0  0  0  0  0  0  0  0  0  0  0  0
   10.5254   -4.6706   25.3912 C   0  0  0  0  0  0  0  0  0  0  0  0
   11.4560   -4.8755   26.5511 C   0  0  0  0  0  0  0  0  0  0  0  0
    9.9436    0.6785   23.2755 C   0  0  0  0  0  0  0  0  0  0  0  0
    7.7091   -6.0933   27.3684 N   0  0  0  0  0  0  0  0  0  0  0  0
    8.1843   -0.5281   25.4212 N   0  0  0  0  0  0  0  0  0  0  0  0
    8.3792   -2.5947   26.3625 N   0  0  0  0  0  0  0  0  0  0  0  0
    6.6249   -1.1122   27.0757 O   0  0  0  0  0  0  0  0  0  0  0  0
    9.9651   -5.6661   24.9275 O   0  0  0  0  0  0  0  0  0  0  0  0
    6.1000    0.9931   18.4249 Br  0  0  0  0  0  0  0  0  0  0  0  0
    8.0556   -4.6968   30.4389 H   0  0  0  0  0  0  0  0  0  0  0  0
   11.9884   -3.4977   23.4860 H   0  0  0  0  0  0  0  0  0  0  0  0
   11.7684   -1.2225   22.5861 H   0  0  0  0  0  0  0  0  0  0  0  0
    9.5326   -1.1976   21.3333 H   0  0  0  0  0  0  0  0  0  0  0  0
    8.2704    2.7254   22.5886 H   0  0  0  0  0  0  0  0  0  0  0  0
    8.4258   -2.6693   29.0517 H   0  0  0  0  0  0  0  0  0  0  0  0
    8.0085   -1.0767   19.4086 H   0  0  0  0  0  0  0  0  0  0  0  0
    6.7456    2.8545   20.6648 H   0  0  0  0  0  0  0  0  0  0  0  0
    7.5989   -6.8638   29.2784 H   0  0  0  0  0  0  0  0  0  0  0  0
    7.8618   -5.1174   25.5642 H   0  0  0  0  0  0  0  0  0  0  0  0
   10.9671   -4.7982   27.5351 H   0  0  0  0  0  0  0  0  0  0  0  0
   12.3087   -4.1790   26.5504 H   0  0  0  0  0  0  0  0  0  0  0  0
   11.9190   -5.8782   26.5662 H   0  0  0  0  0  0  0  0  0  0  0  0
   10.9252    1.0899   22.9760 H   0  0  0  0  0  0  0  0  0  0  0  0
    9.5936    1.3851   24.0508 H   0  0  0  0  0  0  0  0  0  0  0  0
    7.8686    0.4085   25.2008 H   0  0  0  0  0  0  0  0  0  0  0  0
  1  6  2  0  0  0  0
  1  9  1  0  0  0  0
  1 28  1  0  0  0  0
  2  3  2  0  0  0  0
  2 11  1  0  0  0  0
  2 29  1  0  0  0  0
  3 13  1  0  0  0  0
  3 30  1  0  0  0  0
  4  7  2  0  0  0  0
  4 12  1  0  0  0  0
  4 31  1  0  0  0  0
  5  8  1  0  0  0  0
  5 12  2  0  0  0  0
  5 32  1  0  0  0  0
  6 14  1  0  0  0  0
  6 33  1  0  0  0  0
  7 17  1  0  0  0  0
  7 34  1  0  0  0  0
  8 17  2  0  0  0  0
  8 35  1  0  0  0  0
  9 22  2  0  0  0  0
  9 36  1  0  0  0  0
 10 14  2  0  0  0  0
 10 22  1  0  0  0  0
 10 37  1  0  0  0  0
 11 15  2  0  0  0  0
 11 19  1  0  0  0  0
 12 21  1  0  0  0  0
 13 16  2  0  0  0  0
 13 21  1  0  0  0  0
 14 24  1  0  0  0  0
 15 16  1  0  0  0  0
 15 24  1  0  0  0  0
 16 23  1  0  0  0  0
 17 27  1  0  0  0  0
 18 23  1  0  0  0  0
 18 24  1  0  0  0  0
 18 25  2  0  0  0  0
 19 20  1  0  0  0  0
 19 26  2  0  0  0  0
 20 38  1  0  0  0  0
 20 39  1  0  0  0  0
 20 40  1  0  0  0  0
 21 41  1  0  0  0  0
 21 42  1  0  0  0  0
 23 43  1  0  0  0  0
M  END
>  <Chemgauss4 Score>
-5.83095788955688

>  <Number of Confs>
76

$$$$
