KIM-UNI-7d1-2
 OpenBabel03242009303D

 43 44  0  0  0  0  0  0  0  0999 V2000
   13.0285   -1.2737   22.1471 C   0  0  0  0  0  0  0  0  0  0  0  0
   11.6998   -0.0395   23.7878 C   0  0  0  0  0  0  0  0  0  0  0  0
   10.8390   -0.0219   24.8852 C   0  0  0  0  0  0  0  0  0  0  0  0
   11.7355   -2.4543   23.8544 C   0  0  0  0  0  0  0  0  0  0  0  0
   12.1481   -1.2557   23.2724 C   0  0  0  0  0  0  0  0  0  0  0  0
   10.8747   -2.4368   24.9518 C   0  0  0  0  0  0  0  0  0  0  0  0
   10.4265   -1.2206   25.4672 C   0  0  0  0  0  0  0  0  0  0  0  0
    5.5911   -6.1353   24.3797 C   0  0  0  0  0  0  0  0  0  0  0  0
    6.9833   -4.0295   24.0905 C   0  0  0  0  0  0  0  0  0  0  0  0
    7.0866   -5.3327   26.1774 C   0  0  0  0  0  0  0  0  0  0  0  0
    8.5054   -3.8839   24.1374 C   0  0  0  0  0  0  0  0  0  0  0  0
    8.6059   -5.1676   26.1811 C   0  0  0  0  0  0  0  0  0  0  0  0
    4.9766   -5.8663   23.0292 C   0  0  0  0  0  0  0  0  0  0  0  0
    7.5166   -0.0138   26.0392 C   0  0  0  0  0  0  0  0  0  0  0  0
   10.4468   -3.7416   25.5589 C   0  0  0  0  0  0  0  0  0  0  0  0
    8.7426   -0.0480   26.8868 C   0  0  0  0  0  0  0  0  0  0  0  0
   13.7435   -1.2884   21.2332 N   0  0  0  0  0  0  0  0  0  0  0  0
    6.5437   -5.2197   24.8246 N   0  0  0  0  0  0  0  0  0  0  0  0
    8.9949   -3.9116   25.5235 N   0  0  0  0  0  0  0  0  0  0  0  0
    9.5528   -1.1836   26.5760 N   0  0  0  0  0  0  0  0  0  0  0  0
    5.2374   -7.1308   25.0167 O   0  0  0  0  0  0  0  0  0  0  0  0
   12.0103    0.9032   23.3431 H   0  0  0  0  0  0  0  0  0  0  0  0
   10.4948    0.9316   25.2772 H   0  0  0  0  0  0  0  0  0  0  0  0
   12.0833   -3.4056   23.4566 H   0  0  0  0  0  0  0  0  0  0  0  0
    6.5009   -3.1655   24.5643 H   0  0  0  0  0  0  0  0  0  0  0  0
    6.6565   -4.0513   23.0491 H   0  0  0  0  0  0  0  0  0  0  0  0
    6.8184   -6.2960   26.6234 H   0  0  0  0  0  0  0  0  0  0  0  0
    6.6125   -4.5500   26.7825 H   0  0  0  0  0  0  0  0  0  0  0  0
    8.9694   -4.6802   23.5402 H   0  0  0  0  0  0  0  0  0  0  0  0
    8.7723   -2.9281   23.6705 H   0  0  0  0  0  0  0  0  0  0  0  0
    8.9470   -5.1603   27.2234 H   0  0  0  0  0  0  0  0  0  0  0  0
    9.0730   -6.0317   25.6899 H   0  0  0  0  0  0  0  0  0  0  0  0
    5.5714   -6.3554   22.2649 H   0  0  0  0  0  0  0  0  0  0  0  0
    4.9566   -4.7953   22.8548 H   0  0  0  0  0  0  0  0  0  0  0  0
    3.9635   -6.2552   23.0163 H   0  0  0  0  0  0  0  0  0  0  0  0
    6.9273   -0.9270   26.2088 H   0  0  0  0  0  0  0  0  0  0  0  0
    6.9125    0.8666   26.3038 H   0  0  0  0  0  0  0  0  0  0  0  0
    7.8052    0.0447   24.9794 H   0  0  0  0  0  0  0  0  0  0  0  0
   10.8982   -4.5834   25.0226 H   0  0  0  0  0  0  0  0  0  0  0  0
   10.7668   -3.8125   26.6038 H   0  0  0  0  0  0  0  0  0  0  0  0
    9.3259    0.8680   26.7115 H   0  0  0  0  0  0  0  0  0  0  0  0
    8.4462   -0.0971   27.9450 H   0  0  0  0  0  0  0  0  0  0  0  0
    9.5198   -2.0013   27.1538 H   0  0  0  0  0  0  0  0  0  0  0  0
  1  5  1  0  0  0  0
  1 17  3  0  0  0  0
  2  3  2  0  0  0  0
  2  5  1  0  0  0  0
  2 22  1  0  0  0  0
  3  7  1  0  0  0  0
  3 23  1  0  0  0  0
  4  5  2  0  0  0  0
  4  6  1  0  0  0  0
  4 24  1  0  0  0  0
  6  7  2  0  0  0  0
  6 15  1  0  0  0  0
  7 20  1  0  0  0  0
  8 13  1  0  0  0  0
  8 18  1  0  0  0  0
  8 21  2  0  0  0  0
  9 11  1  0  0  0  0
  9 18  1  0  0  0  0
  9 25  1  0  0  0  0
  9 26  1  0  0  0  0
 10 12  1  0  0  0  0
 10 18  1  0  0  0  0
 10 27  1  0  0  0  0
 10 28  1  0  0  0  0
 11 19  1  0  0  0  0
 11 29  1  0  0  0  0
 11 30  1  0  0  0  0
 12 19  1  0  0  0  0
 12 31  1  0  0  0  0
 12 32  1  0  0  0  0
 13 33  1  0  0  0  0
 13 34  1  0  0  0  0
 13 35  1  0  0  0  0
 14 16  1  0  0  0  0
 14 36  1  0  0  0  0
 14 37  1  0  0  0  0
 14 38  1  0  0  0  0
 15 19  1  0  0  0  0
 15 39  1  0  0  0  0
 15 40  1  0  0  0  0
 16 20  1  0  0  0  0
 16 41  1  0  0  0  0
 16 42  1  0  0  0  0
 20 43  1  0  0  0  0
M  END
>  <Chemgauss4 Score>
-4.83825445175171

>  <Number of Confs>
41

$$$$
