@<TRIPOS>MOLECULE
LIG(B-403)
   43    46     0     0     0
SMALL
USER_CHARGES

@<TRIPOS>ATOM
      1 Cl1        15.6260   -9.0650   -1.1620 Cl        1 LIG403     -0.1056
      2 C1         16.5400  -10.0530   -0.0500 C.ar      1 LIG403     -0.0342
      3 C2         15.8600  -10.8710    0.8270 C.ar      1 LIG403     -0.0664
      4 C3         17.9170  -10.0000   -0.0690 C.ar      1 LIG403     -0.0714
      5 C4         18.6350  -10.8040    0.7990 C.ar      1 LIG403     -0.1968
      6 C5         17.9700  -11.6350    1.7010 C.ar      1 LIG403      0.2293
      7 N1         18.6610  -12.5260    2.5240 N.pl3     1 LIG403     -0.7020
      8 C6         20.0910  -12.7410    2.3460 C.3       1 LIG403      0.2194
      9 C7         16.5670  -11.6640    1.7260 C.ar      1 LIG403     -0.1441
     10 C8         15.8160  -12.5230    2.7240 C.3       1 LIG403     -0.0738
     11 C9         16.6640  -13.7150    3.2090 C.3       1 LIG403     -0.0932
     12 C10        18.0560  -13.2570    3.6330 C.3       1 LIG403      0.2284
     13 C11        15.3880  -11.6410    3.8970 C.2       1 LIG403      0.6603
     14 O1         15.9390  -10.5700    4.1470 O.2       1 LIG403     -0.5560
     15 N2         14.3710  -12.1430    4.6310 N.am      1 LIG403     -0.5069
     16 C12        13.7970  -11.5910    5.7930 C.ar      1 LIG403     -0.0592
     17 C13        14.3180  -11.9880    7.0640 C.ar      1 LIG403     -0.0105
     18 C14        15.3470  -12.9540    7.2280 C.ar      1 LIG403     -0.1244
     19 C15        15.8250  -13.2650    8.4700 C.ar      1 LIG403     -0.1090
     20 C16        15.3120  -12.6450    9.6030 C.ar      1 LIG403     -0.1319
     21 C17        14.3190  -11.7110    9.4980 C.ar      1 LIG403     -0.0979
     22 C18        13.7980  -11.3550    8.2280 C.ar      1 LIG403     -0.1576
     23 C19        12.7970  -10.3650    8.0470 C.ar      1 LIG403      0.4269
     24 N3         12.3200   -9.9950    6.8640 N.ar      1 LIG403     -0.6598
     25 C20        12.8070  -10.6100    5.7790 C.ar      1 LIG403      0.4027
     26 H1         14.7803  -10.8964    0.8164 H         1 LIG403      0.1416
     27 H2         18.4294   -9.3393   -0.7527 H         1 LIG403      0.1437
     28 H3         19.7147  -10.7881    0.7780 H         1 LIG403      0.1378
     29 H4         20.4471  -13.4733    3.0856 H         1 LIG403      0.0374
     30 H5         20.2809  -13.1223    1.3318 H         1 LIG403      0.0374
     31 H6         20.6249  -11.7895    2.4859 H         1 LIG403      0.0374
     32 H7         14.9120  -12.9177    2.2372 H         1 LIG403      0.0717
     33 H8         16.1635  -14.1874    4.0671 H         1 LIG403      0.0562
     34 H9         16.7587  -14.4455    2.3921 H         1 LIG403      0.0562
     35 H10        17.9788  -12.6003    4.5121 H         1 LIG403      0.0504
     36 H11        18.6746  -14.1318    3.8821 H         1 LIG403      0.0504
     37 H12        13.9803  -13.0067    4.3125 H         1 LIG403      0.3155
     38 H13        15.7567  -13.4489    6.3599 H         1 LIG403      0.1313
     39 H14        16.6095  -14.0002    8.5720 H         1 LIG403      0.1341
     40 H15        15.7017  -12.9036   10.5765 H         1 LIG403      0.1373
     41 H16        13.9286  -11.2410   10.3886 H         1 LIG403      0.1376
     42 H17        12.3981   -9.8821    8.9268 H         1 LIG403      0.0249
     43 H18        12.4017  -10.3241    4.8196 H         1 LIG403      0.0329
@<TRIPOS>BOND
     1    1    2 1
     2    2    3 ar
     3    2    4 ar
     4    3    9 ar
     5    4    5 ar
     6    5    6 ar
     7    6    7 1
     8    6    9 ar
     9    7    8 1
    10    7   12 1
    11    9   10 1
    12   10   11 1
    13   10   13 1
    14   11   12 1
    15   13   14 2
    16   13   15 am
    17   15   16 1
    18   16   17 ar
    19   16   25 ar
    20   17   18 ar
    21   17   22 ar
    22   18   19 ar
    23   19   20 ar
    24   20   21 ar
    25   21   22 ar
    26   22   23 ar
    27   23   24 ar
    28   24   25 ar
    29    3   26 1
    30    4   27 1
    31    5   28 1
    32    8   29 1
    33    8   30 1
    34    8   31 1
    35   10   32 1
    36   11   33 1
    37   11   34 1
    38   12   35 1
    39   12   36 1
    40   15   37 1
    41   18   38 1
    42   19   39 1
    43   20   40 1
    44   21   41 1
    45   23   42 1
    46   25   43 1
