LIG(B-403)
  -OEChem-05122102333D

 43 46  0     1  0  0  0  0  0999 V2000
   15.6260   -9.0650   -1.1620 Cl  0  0  0  0  0  0  0  0  0  0  0  0
   16.5400  -10.0530   -0.0500 C   0  0  0  0  0  0  0  0  0  0  0  0
   15.8600  -10.8710    0.8270 C   0  0  0  0  0  0  0  0  0  0  0  0
   17.9170  -10.0000   -0.0690 C   0  0  0  0  0  0  0  0  0  0  0  0
   18.6350  -10.8040    0.7990 C   0  0  0  0  0  0  0  0  0  0  0  0
   17.9700  -11.6350    1.7010 C   0  0  0  0  0  0  0  0  0  0  0  0
   18.6610  -12.5260    2.5240 N   0  0  3  0  0  0  0  0  0  0  0  0
   20.0910  -12.7410    2.3460 C   0  0  0  0  0  0  0  0  0  0  0  0
   16.5670  -11.6640    1.7260 C   0  0  0  0  0  0  0  0  0  0  0  0
   15.8160  -12.5230    2.7240 C   0  0  1  0  0  0  0  0  0  0  0  0
   16.6640  -13.7150    3.2090 C   0  0  0  0  0  0  0  0  0  0  0  0
   18.0560  -13.2570    3.6330 C   0  0  0  0  0  0  0  0  0  0  0  0
   15.3880  -11.6410    3.8970 C   0  0  0  0  0  0  0  0  0  0  0  0
   15.9390  -10.5700    4.1470 O   0  0  0  0  0  0  0  0  0  0  0  0
   14.3710  -12.1430    4.6310 N   0  0  0  0  0  0  0  0  0  0  0  0
   13.7970  -11.5910    5.7930 C   0  0  0  0  0  0  0  0  0  0  0  0
   14.3180  -11.9880    7.0640 C   0  0  0  0  0  0  0  0  0  0  0  0
   15.3470  -12.9540    7.2280 C   0  0  0  0  0  0  0  0  0  0  0  0
   15.8250  -13.2650    8.4700 C   0  0  0  0  0  0  0  0  0  0  0  0
   15.3120  -12.6450    9.6030 C   0  0  0  0  0  0  0  0  0  0  0  0
   14.3190  -11.7110    9.4980 C   0  0  0  0  0  0  0  0  0  0  0  0
   13.7980  -11.3550    8.2280 C   0  0  0  0  0  0  0  0  0  0  0  0
   12.7970  -10.3650    8.0470 C   0  0  0  0  0  0  0  0  0  0  0  0
   12.3200   -9.9950    6.8640 N   0  0  0  0  0  0  0  0  0  0  0  0
   12.8070  -10.6100    5.7790 C   0  0  0  0  0  0  0  0  0  0  0  0
   14.7803  -10.8964    0.8164 H   0  0  0  0  0  0  0  0  0  0  0  0
   18.4294   -9.3393   -0.7527 H   0  0  0  0  0  0  0  0  0  0  0  0
   19.7147  -10.7881    0.7780 H   0  0  0  0  0  0  0  0  0  0  0  0
   20.4471  -13.4733    3.0856 H   0  0  0  0  0  0  0  0  0  0  0  0
   20.2809  -13.1223    1.3318 H   0  0  0  0  0  0  0  0  0  0  0  0
   20.6249  -11.7895    2.4859 H   0  0  0  0  0  0  0  0  0  0  0  0
   14.9120  -12.9177    2.2372 H   0  0  0  0  0  0  0  0  0  0  0  0
   16.1635  -14.1874    4.0671 H   0  0  0  0  0  0  0  0  0  0  0  0
   16.7587  -14.4455    2.3921 H   0  0  0  0  0  0  0  0  0  0  0  0
   17.9788  -12.6003    4.5121 H   0  0  0  0  0  0  0  0  0  0  0  0
   18.6746  -14.1318    3.8821 H   0  0  0  0  0  0  0  0  0  0  0  0
   13.9803  -13.0067    4.3125 H   0  0  0  0  0  0  0  0  0  0  0  0
   15.7567  -13.4489    6.3599 H   0  0  0  0  0  0  0  0  0  0  0  0
   16.6095  -14.0002    8.5720 H   0  0  0  0  0  0  0  0  0  0  0  0
   15.7017  -12.9036   10.5765 H   0  0  0  0  0  0  0  0  0  0  0  0
   13.9286  -11.2410   10.3886 H   0  0  0  0  0  0  0  0  0  0  0  0
   12.3981   -9.8821    8.9268 H   0  0  0  0  0  0  0  0  0  0  0  0
   12.4017  -10.3241    4.8196 H   0  0  0  0  0  0  0  0  0  0  0  0
  1  2  1  0  0  0  0
  2  3  2  0  0  0  0
  2  4  1  0  0  0  0
  3  9  1  0  0  0  0
  4  5  2  0  0  0  0
  5  6  1  0  0  0  0
  6  7  1  0  0  0  0
  6  9  2  0  0  0  0
  7  8  1  0  0  0  0
  7 12  1  0  0  0  0
  9 10  1  0  0  0  0
 10 11  1  0  0  0  0
 10 13  1  0  0  0  0
 11 12  1  0  0  0  0
 13 14  2  0  0  0  0
 13 15  1  0  0  0  0
 15 16  1  0  0  0  0
 16 17  2  0  0  0  0
 16 25  1  0  0  0  0
 17 18  1  0  0  0  0
 17 22  1  0  0  0  0
 18 19  2  0  0  0  0
 19 20  1  0  0  0  0
 20 21  2  0  0  0  0
 21 22  1  0  0  0  0
 22 23  2  0  0  0  0
 23 24  1  0  0  0  0
 24 25  2  0  0  0  0
  3 26  1  0  0  0  0
  4 27  1  0  0  0  0
  5 28  1  0  0  0  0
  8 29  1  0  0  0  0
  8 30  1  0  0  0  0
  8 31  1  0  0  0  0
 10 32  1  0  0  0  0
 11 33  1  0  0  0  0
 11 34  1  0  0  0  0
 12 35  1  0  0  0  0
 12 36  1  0  0  0  0
 15 37  1  0  0  0  0
 18 38  1  0  0  0  0
 19 39  1  0  0  0  0
 20 40  1  0  0  0  0
 21 41  1  0  0  0  0
 23 42  1  0  0  0  0
 25 43  1  0  0  0  0
M  END
$$$$
