TRY-UNI-1fd-8
 OpenBabel03242009303D

 36 38  0  0  0  0  0  0  0  0999 V2000
   11.7685   -0.1900   25.0149 C   0  0  0  0  0  0  0  0  0  0  0  0
    9.7653   -3.6567   27.1729 C   0  0  0  0  0  0  0  0  0  0  0  0
    9.3821   -0.6856   24.8150 C   0  0  0  0  0  0  0  0  0  0  0  0
   10.9773   -1.9525   23.5160 C   0  0  0  0  0  0  0  0  0  0  0  0
    9.0299   -4.4402   26.2854 C   0  0  0  0  0  0  0  0  0  0  0  0
    8.3399   -1.4258   24.2572 C   0  0  0  0  0  0  0  0  0  0  0  0
    9.9350   -2.6929   22.9582 C   0  0  0  0  0  0  0  0  0  0  0  0
    9.2404   -3.4034   28.4330 C   0  0  0  0  0  0  0  0  0  0  0  0
    5.7718   -5.8705   27.1100 C   0  0  0  0  0  0  0  0  0  0  0  0
   10.7009   -0.9489   24.4444 C   0  0  0  0  0  0  0  0  0  0  0  0
    7.7888   -4.9335   26.7196 C   0  0  0  0  0  0  0  0  0  0  0  0
    8.6163   -2.4295   23.3288 C   0  0  0  0  0  0  0  0  0  0  0  0
    6.7607   -5.7368   26.1593 C   0  0  0  0  0  0  0  0  0  0  0  0
    7.3836   -4.6019   28.0092 C   0  0  0  0  0  0  0  0  0  0  0  0
    7.4653   -5.4934   23.7465 C   0  0  0  0  0  0  0  0  0  0  0  0
    6.7436   -6.3262   24.8055 C   0  0  0  0  0  0  0  0  0  0  0  0
    7.4945   -3.2274   22.7295 C   0  0  0  0  0  0  0  0  0  0  0  0
   12.6357    0.4265   25.4783 N   0  0  0  0  0  0  0  0  0  0  0  0
    8.0533   -3.8511   28.9041 N   0  0  0  0  0  0  0  0  0  0  0  0
    6.1599   -5.1779   28.2276 N   0  0  0  0  0  0  0  0  0  0  0  0
    6.9681   -4.2010   23.6572 N   0  0  0  0  0  0  0  0  0  0  0  0
    8.3836   -5.9434   23.0660 O   0  0  0  0  0  0  0  0  0  0  0  0
   10.7295   -3.2528   26.8832 H   0  0  0  0  0  0  0  0  0  0  0  0
    9.1506    0.0949   25.5360 H   0  0  0  0  0  0  0  0  0  0  0  0
   12.0001   -2.1711   23.2180 H   0  0  0  0  0  0  0  0  0  0  0  0
    9.4118   -4.6577   25.2933 H   0  0  0  0  0  0  0  0  0  0  0  0
    7.3154   -1.2132   24.5511 H   0  0  0  0  0  0  0  0  0  0  0  0
   10.1599   -3.4742   22.2370 H   0  0  0  0  0  0  0  0  0  0  0  0
    9.8004   -2.7951   29.1385 H   0  0  0  0  0  0  0  0  0  0  0  0
    4.8271   -6.3961   27.0929 H   0  0  0  0  0  0  0  0  0  0  0  0
    7.2036   -7.3338   24.8056 H   0  0  0  0  0  0  0  0  0  0  0  0
    5.7062   -6.4820   24.4504 H   0  0  0  0  0  0  0  0  0  0  0  0
    6.6718   -2.5702   22.4273 H   0  0  0  0  0  0  0  0  0  0  0  0
    7.8279   -3.7636   21.8348 H   0  0  0  0  0  0  0  0  0  0  0  0
    5.6250   -5.1022   29.0816 H   0  0  0  0  0  0  0  0  0  0  0  0
    6.2037   -3.9290   24.2684 H   0  0  0  0  0  0  0  0  0  0  0  0
  1 10  1  0  0  0  0
  1 18  3  0  0  0  0
  2  5  2  0  0  0  0
  2  8  1  0  0  0  0
  2 23  1  0  0  0  0
  3  6  2  0  0  0  0
  3 10  1  0  0  0  0
  3 24  1  0  0  0  0
  4  7  1  0  0  0  0
  4 10  2  0  0  0  0
  4 25  1  0  0  0  0
  5 11  1  0  0  0  0
  5 26  1  0  0  0  0
  6 12  1  0  0  0  0
  6 27  1  0  0  0  0
  7 12  2  0  0  0  0
  7 28  1  0  0  0  0
  8 19  2  0  0  0  0
  8 29  1  0  0  0  0
  9 13  2  0  0  0  0
  9 20  1  0  0  0  0
  9 30  1  0  0  0  0
 11 13  1  0  0  0  0
 11 14  2  0  0  0  0
 12 17  1  0  0  0  0
 13 16  1  0  0  0  0
 14 19  1  0  0  0  0
 14 20  1  0  0  0  0
 15 16  1  0  0  0  0
 15 21  1  0  0  0  0
 15 22  2  0  0  0  0
 16 31  1  0  0  0  0
 16 32  1  0  0  0  0
 17 21  1  0  0  0  0
 17 33  1  0  0  0  0
 17 34  1  0  0  0  0
 20 35  1  0  0  0  0
 21 36  1  0  0  0  0
M  END
>  <Chemgauss4 Score>
-5.51298046112061

>  <Number of Confs>
200

$$$$
