CHR-SOS-6c4-3
 OpenBabel03242009303D

 46 48  0  0  0  0  0  0  0  0999 V2000
    8.8780   -1.0033   21.3394 C   0  0  0  0  0  0  0  0  0  0  0  0
    9.6280   -1.5071   22.1309 C   0  0  0  0  0  0  0  0  0  0  0  0
    5.8755   -7.0468   25.9762 C   0  0  0  0  0  0  0  0  0  0  0  0
    4.9417   -6.0918   26.3448 C   0  0  0  0  0  0  0  0  0  0  0  0
    6.8107    0.2107   20.7855 C   0  0  0  0  0  0  0  0  0  0  0  0
    8.2360   -0.4061   19.0407 C   0  0  0  0  0  0  0  0  0  0  0  0
    6.2314   -4.3812   25.5151 C   0  0  0  0  0  0  0  0  0  0  0  0
    6.3034    0.7174   18.6285 C   0  0  0  0  0  0  0  0  0  0  0  0
    7.9832   -0.4048   20.3973 C   0  0  0  0  0  0  0  0  0  0  0  0
    7.0366   -6.6126   25.3465 C   0  0  0  0  0  0  0  0  0  0  0  0
    7.2257   -5.2560   25.1078 C   0  0  0  0  0  0  0  0  0  0  0  0
    8.7075   -3.4377   24.1703 C   0  0  0  0  0  0  0  0  0  0  0  0
   12.8954   -0.2944   23.3779 C   0  0  0  0  0  0  0  0  0  0  0  0
   12.7212   -1.1634   22.1375 C   0  0  0  0  0  0  0  0  0  0  0  0
   11.5540    0.0505   24.0148 C   0  0  0  0  0  0  0  0  0  0  0  0
   11.9088   -2.4238   22.4404 C   0  0  0  0  0  0  0  0  0  0  0  0
   10.7369   -1.2049   24.3256 C   0  0  0  0  0  0  0  0  0  0  0  0
   10.5497   -2.1275   23.1049 C   0  0  0  0  0  0  0  0  0  0  0  0
    8.0605   -7.6207   24.9388 C   0  0  0  0  0  0  0  0  0  0  0  0
    5.0903   -4.7654   26.1297 N   0  0  0  0  0  0  0  0  0  0  0  0
    5.9444    0.7841   19.9247 N   0  0  0  0  0  0  0  0  0  0  0  0
    7.4147    0.1477   18.1246 N   0  0  0  0  0  0  0  0  0  0  0  0
    8.3891   -4.7651   24.4705 N   0  0  0  0  0  0  0  0  0  0  0  0
    9.9492   -3.3758   23.5387 N   0  0  0  0  0  0  0  0  0  0  0  0
    8.0215   -2.4473   24.4116 O   0  0  0  0  0  0  0  0  0  0  0  0
    5.6976   -8.0978   26.1771 H   0  0  0  0  0  0  0  0  0  0  0  0
    4.0194   -6.3787   26.8391 H   0  0  0  0  0  0  0  0  0  0  0  0
    6.5165    0.2700   21.8294 H   0  0  0  0  0  0  0  0  0  0  0  0
    9.1302   -0.8641   18.6280 H   0  0  0  0  0  0  0  0  0  0  0  0
    6.3209   -3.3105   25.3564 H   0  0  0  0  0  0  0  0  0  0  0  0
    5.6262    1.1706   17.9149 H   0  0  0  0  0  0  0  0  0  0  0  0
   13.5266   -0.8147   24.1069 H   0  0  0  0  0  0  0  0  0  0  0  0
   13.4186    0.6303   23.1049 H   0  0  0  0  0  0  0  0  0  0  0  0
   12.2180   -0.5853   21.3536 H   0  0  0  0  0  0  0  0  0  0  0  0
   13.7055   -1.4413   21.7410 H   0  0  0  0  0  0  0  0  0  0  0  0
   11.7216    0.6187   24.9370 H   0  0  0  0  0  0  0  0  0  0  0  0
   10.9847    0.7002   23.3414 H   0  0  0  0  0  0  0  0  0  0  0  0
   11.7443   -2.9649   21.4956 H   0  0  0  0  0  0  0  0  0  0  0  0
   12.5065   -3.1029   23.0661 H   0  0  0  0  0  0  0  0  0  0  0  0
   11.2043   -1.7495   25.1572 H   0  0  0  0  0  0  0  0  0  0  0  0
    9.7516   -0.8881   24.6972 H   0  0  0  0  0  0  0  0  0  0  0  0
    7.8612   -7.9741   23.9206 H   0  0  0  0  0  0  0  0  0  0  0  0
    9.0707   -7.1941   24.9694 H   0  0  0  0  0  0  0  0  0  0  0  0
    8.0579   -8.4841   25.6156 H   0  0  0  0  0  0  0  0  0  0  0  0
    9.0740   -5.4667   24.2005 H   0  0  0  0  0  0  0  0  0  0  0  0
   10.4531   -4.2377   23.3760 H   0  0  0  0  0  0  0  0  0  0  0  0
  1  2  3  0  0  0  0
  1  9  1  0  0  0  0
  2 18  1  0  0  0  0
  3  4  2  0  0  0  0
  3 10  1  0  0  0  0
  3 26  1  0  0  0  0
  4 20  1  0  0  0  0
  4 27  1  0  0  0  0
  5  9  1  0  0  0  0
  5 21  2  0  0  0  0
  5 28  1  0  0  0  0
  6  9  2  0  0  0  0
  6 22  1  0  0  0  0
  6 29  1  0  0  0  0
  7 11  1  0  0  0  0
  7 20  2  0  0  0  0
  7 30  1  0  0  0  0
  8 21  1  0  0  0  0
  8 22  2  0  0  0  0
  8 31  1  0  0  0  0
 10 11  2  0  0  0  0
 10 19  1  0  0  0  0
 11 23  1  0  0  0  0
 12 23  1  0  0  0  0
 12 24  1  0  0  0  0
 12 25  2  0  0  0  0
 13 14  1  0  0  0  0
 13 15  1  0  0  0  0
 13 32  1  0  0  0  0
 13 33  1  0  0  0  0
 14 16  1  0  0  0  0
 14 34  1  0  0  0  0
 14 35  1  0  0  0  0
 15 17  1  0  0  0  0
 15 36  1  0  0  0  0
 15 37  1  0  0  0  0
 16 18  1  0  0  0  0
 16 38  1  0  0  0  0
 16 39  1  0  0  0  0
 17 18  1  0  0  0  0
 17 40  1  0  0  0  0
 17 41  1  0  0  0  0
 18 24  1  0  0  0  0
 19 42  1  0  0  0  0
 19 43  1  0  0  0  0
 19 44  1  0  0  0  0
 23 45  1  0  0  0  0
 24 46  1  0  0  0  0
M  END
>  <Chemgauss4 Score>
-6.33896160125732

>  <Number of Confs>
5

$$$$
