CHR-SOS-70e-7
 OpenBabel03242009303D

 41 43  0  0  0  0  0  0  0  0999 V2000
    6.8698   -2.2536   24.7037 C   0  0  0  0  0  0  0  0  0  0  0  0
    7.9414   -6.2634   27.6354 C   0  0  0  0  0  0  0  0  0  0  0  0
    8.6880   -5.8104   26.5534 C   0  0  0  0  0  0  0  0  0  0  0  0
    7.9594   -1.7260   24.0109 C   0  0  0  0  0  0  0  0  0  0  0  0
    6.4373   -3.5529   24.4381 C   0  0  0  0  0  0  0  0  0  0  0  0
    8.1840   -3.7969   22.7870 C   0  0  0  0  0  0  0  0  0  0  0  0
    7.7763   -5.4082   28.7130 C   0  0  0  0  0  0  0  0  0  0  0  0
    9.0156   -3.7562   27.7064 C   0  0  0  0  0  0  0  0  0  0  0  0
    9.2389   -4.5341   26.5817 C   0  0  0  0  0  0  0  0  0  0  0  0
    8.6165   -2.4976   23.0525 C   0  0  0  0  0  0  0  0  0  0  0  0
    7.0943   -4.3245   23.4798 C   0  0  0  0  0  0  0  0  0  0  0  0
   10.6140   -2.7996   25.3806 C   0  0  0  0  0  0  0  0  0  0  0  0
   10.7954   -0.1529   23.6544 C   0  0  0  0  0  0  0  0  0  0  0  0
   11.7316   -0.5660   22.5527 C   0  0  0  0  0  0  0  0  0  0  0  0
   10.8065   -1.5783   23.1722 C   0  0  0  0  0  0  0  0  0  0  0  0
   11.3510   -2.6577   24.0449 C   0  0  0  0  0  0  0  0  0  0  0  0
    8.2960   -4.1619   28.7766 N   0  0  0  0  0  0  0  0  0  0  0  0
    5.4162   -5.6710   21.9063 N   0  0  0  0  0  0  0  0  0  0  0  0
   10.0036   -4.0453   25.4959 N   0  0  0  0  0  0  0  0  0  0  0  0
   10.6057   -1.8865   26.1996 O   0  0  0  0  0  0  0  0  0  0  0  0
    7.6734   -6.7047   22.6007 O   0  0  0  0  0  0  0  0  0  0  0  0
    5.8511   -6.4527   24.3223 O   0  0  0  0  0  0  0  0  0  0  0  0
    9.6810   -1.9816   22.3746 O   0  0  0  0  0  0  0  0  0  0  0  0
    6.5542   -5.9520   23.1494 S   0  0  0  0  0  0  0  0  0  0  0  0
    6.3580   -1.6527   25.4495 H   0  0  0  0  0  0  0  0  0  0  0  0
    7.5026   -7.2547   27.6351 H   0  0  0  0  0  0  0  0  0  0  0  0
    8.8341   -6.4595   25.6941 H   0  0  0  0  0  0  0  0  0  0  0  0
    8.2913   -0.7132   24.2221 H   0  0  0  0  0  0  0  0  0  0  0  0
    5.5881   -3.9546   24.9843 H   0  0  0  0  0  0  0  0  0  0  0  0
    8.6994   -4.3942   22.0387 H   0  0  0  0  0  0  0  0  0  0  0  0
    7.2032   -5.7147   29.5819 H   0  0  0  0  0  0  0  0  0  0  0  0
    9.4196   -2.7514   27.7872 H   0  0  0  0  0  0  0  0  0  0  0  0
   11.2271    0.0699   24.6227 H   0  0  0  0  0  0  0  0  0  0  0  0
    9.9507    0.4714   23.3892 H   0  0  0  0  0  0  0  0  0  0  0  0
   11.5139   -0.2179   21.5500 H   0  0  0  0  0  0  0  0  0  0  0  0
   12.7882   -0.6195   22.7857 H   0  0  0  0  0  0  0  0  0  0  0  0
   12.4165   -2.4753   24.2763 H   0  0  0  0  0  0  0  0  0  0  0  0
   11.2992   -3.6377   23.5361 H   0  0  0  0  0  0  0  0  0  0  0  0
    5.6638   -5.9599   20.9521 H   0  0  0  0  0  0  0  0  0  0  0  0
    4.4201   -5.7862   22.1297 H   0  0  0  0  0  0  0  0  0  0  0  0
   10.1123   -4.6897   24.7155 H   0  0  0  0  0  0  0  0  0  0  0  0
  1  4  1  0  0  0  0
  1  5  2  0  0  0  0
  1 25  1  0  0  0  0
  2  3  2  0  0  0  0
  2  7  1  0  0  0  0
  2 26  1  0  0  0  0
  3  9  1  0  0  0  0
  3 27  1  0  0  0  0
  4 10  2  0  0  0  0
  4 28  1  0  0  0  0
  5 11  1  0  0  0  0
  5 29  1  0  0  0  0
  6 10  1  0  0  0  0
  6 11  2  0  0  0  0
  6 30  1  0  0  0  0
  7 17  2  0  0  0  0
  7 31  1  0  0  0  0
  8  9  2  0  0  0  0
  8 17  1  0  0  0  0
  8 32  1  0  0  0  0
  9 19  1  0  0  0  0
 10 23  1  0  0  0  0
 11 24  1  0  0  0  0
 12 16  1  0  0  0  0
 12 19  1  0  0  0  0
 12 20  2  0  0  0  0
 13 14  1  0  0  0  0
 13 15  1  0  0  0  0
 13 33  1  0  0  0  0
 13 34  1  0  0  0  0
 14 15  1  0  0  0  0
 14 35  1  0  0  0  0
 14 36  1  0  0  0  0
 15 16  1  0  0  0  0
 15 23  1  0  0  0  0
 16 37  1  0  0  0  0
 16 38  1  0  0  0  0
 18 24  1  0  0  0  0
 18 39  1  0  0  0  0
 18 40  1  0  0  0  0
 19 41  1  0  0  0  0
 21 24  2  0  0  0  0
 22 24  2  0  0  0  0
M  END
>  <Chemgauss4 Score>
-5.14413690567017

>  <Number of Confs>
200

$$$$
