ROB-UNI-b2e-12
 OpenBabel03242009303D

 48 50  0  0  0  0  0  0  0  0999 V2000
    4.4772   -5.6617   23.4121 C   0  0  0  0  0  0  0  0  0  0  0  0
    6.4754   -4.5787   22.5220 C   0  0  0  0  0  0  0  0  0  0  0  0
    7.7839   -4.1068   22.6605 C   0  0  0  0  0  0  0  0  0  0  0  0
    6.4488   -5.3513   24.8240 C   0  0  0  0  0  0  0  0  0  0  0  0
    9.8471   -4.2749   25.6323 C   0  0  0  0  0  0  0  0  0  0  0  0
    5.8163   -5.1916   23.5858 C   0  0  0  0  0  0  0  0  0  0  0  0
    7.7679   -4.8836   24.9874 C   0  0  0  0  0  0  0  0  0  0  0  0
    8.6905   -4.8773   26.0708 C   0  0  0  0  0  0  0  0  0  0  0  0
    8.4037   -4.2734   23.9041 C   0  0  0  0  0  0  0  0  0  0  0  0
   10.7849   -1.8017   23.9116 C   0  0  0  0  0  0  0  0  0  0  0  0
    9.1481   -2.0508   28.3963 C   0  0  0  0  0  0  0  0  0  0  0  0
   11.8968    0.3763   23.5365 C   0  0  0  0  0  0  0  0  0  0  0  0
   12.4787   -1.4891   22.0417 C   0  0  0  0  0  0  0  0  0  0  0  0
   13.3784    0.7175   23.6072 C   0  0  0  0  0  0  0  0  0  0  0  0
   13.9367   -1.0665   22.1706 C   0  0  0  0  0  0  0  0  0  0  0  0
   10.4103   -1.2755   28.5807 C   0  0  0  0  0  0  0  0  0  0  0  0
    8.4595   -5.4183   27.4255 C   0  0  0  0  0  0  0  0  0  0  0  0
   10.6659   -3.2507   23.5120 C   0  0  0  0  0  0  0  0  0  0  0  0
    8.1886   -4.3427   28.4931 C   0  0  0  0  0  0  0  0  0  0  0  0
    3.3903   -6.0432   23.2711 N   0  0  0  0  0  0  0  0  0  0  0  0
    9.6644   -3.9139   24.3243 N   0  0  0  0  0  0  0  0  0  0  0  0
   11.7143   -1.0377   23.2092 N   0  0  0  0  0  0  0  0  0  0  0  0
    9.2793   -3.4128   28.6147 N   0  0  0  0  0  0  0  0  0  0  0  0
   10.0766   -1.3648   24.8222 O   0  0  0  0  0  0  0  0  0  0  0  0
    8.1197   -1.4645   28.0792 O   0  0  0  0  0  0  0  0  0  0  0  0
   14.0299    0.3435   22.3904 O   0  0  0  0  0  0  0  0  0  0  0  0
    5.9779   -4.4563   21.5617 H   0  0  0  0  0  0  0  0  0  0  0  0
    8.2928   -3.6308   21.8289 H   0  0  0  0  0  0  0  0  0  0  0  0
    5.9342   -5.8293   25.6541 H   0  0  0  0  0  0  0  0  0  0  0  0
   10.7817   -4.0755   26.1399 H   0  0  0  0  0  0  0  0  0  0  0  0
   11.4003    0.6322   24.4771 H   0  0  0  0  0  0  0  0  0  0  0  0
   11.4155    0.9455   22.7325 H   0  0  0  0  0  0  0  0  0  0  0  0
   12.0221   -1.0059   21.1699 H   0  0  0  0  0  0  0  0  0  0  0  0
   12.4162   -2.5691   21.8989 H   0  0  0  0  0  0  0  0  0  0  0  0
   13.5066    1.7971   23.7336 H   0  0  0  0  0  0  0  0  0  0  0  0
   13.8665    0.2225   24.4553 H   0  0  0  0  0  0  0  0  0  0  0  0
   14.4400   -1.6012   22.9849 H   0  0  0  0  0  0  0  0  0  0  0  0
   14.4727   -1.2928   21.2434 H   0  0  0  0  0  0  0  0  0  0  0  0
   10.9930   -1.1930   27.6492 H   0  0  0  0  0  0  0  0  0  0  0  0
   10.2233   -0.2377   28.9001 H   0  0  0  0  0  0  0  0  0  0  0  0
   11.1109   -1.6859   29.3254 H   0  0  0  0  0  0  0  0  0  0  0  0
    9.3377   -6.0086   27.7539 H   0  0  0  0  0  0  0  0  0  0  0  0
    7.6202   -6.1429   27.4325 H   0  0  0  0  0  0  0  0  0  0  0  0
   11.6291   -3.7346   23.6566 H   0  0  0  0  0  0  0  0  0  0  0  0
   10.3767   -3.3034   22.4648 H   0  0  0  0  0  0  0  0  0  0  0  0
    7.2997   -3.7554   28.2418 H   0  0  0  0  0  0  0  0  0  0  0  0
    8.0307   -4.7971   29.4767 H   0  0  0  0  0  0  0  0  0  0  0  0
   10.1955   -3.7743   28.8749 H   0  0  0  0  0  0  0  0  0  0  0  0
  1  6  1  0  0  0  0
  1 20  3  0  0  0  0
  2  3  2  0  0  0  0
  2  6  1  0  0  0  0
  2 27  1  0  0  0  0
  3  9  1  0  0  0  0
  3 28  1  0  0  0  0
  4  6  2  0  0  0  0
  4  7  1  0  0  0  0
  4 29  1  0  0  0  0
  5  8  2  0  0  0  0
  5 21  1  0  0  0  0
  5 30  1  0  0  0  0
  7  8  1  0  0  0  0
  7  9  2  0  0  0  0
  8 17  1  0  0  0  0
  9 21  1  0  0  0  0
 10 18  1  0  0  0  0
 10 22  1  0  0  0  0
 10 24  2  0  0  0  0
 11 16  1  0  0  0  0
 11 23  1  0  0  0  0
 11 25  2  0  0  0  0
 12 14  1  0  0  0  0
 12 22  1  0  0  0  0
 12 31  1  0  0  0  0
 12 32  1  0  0  0  0
 13 15  1  0  0  0  0
 13 22  1  0  0  0  0
 13 33  1  0  0  0  0
 13 34  1  0  0  0  0
 14 26  1  0  0  0  0
 14 35  1  0  0  0  0
 14 36  1  0  0  0  0
 15 26  1  0  0  0  0
 15 37  1  0  0  0  0
 15 38  1  0  0  0  0
 16 39  1  0  0  0  0
 16 40  1  0  0  0  0
 16 41  1  0  0  0  0
 17 19  1  0  0  0  0
 17 42  1  0  0  0  0
 17 43  1  0  0  0  0
 18 21  1  0  0  0  0
 18 44  1  0  0  0  0
 18 45  1  0  0  0  0
 19 23  1  0  0  0  0
 19 46  1  0  0  0  0
 19 47  1  0  0  0  0
 23 48  1  0  0  0  0
M  END
>  <Chemgauss4 Score>
-5.4958667755127

>  <Number of Confs>
200

$$$$
