ANT-DIA-045-2
 OpenBabel03242009303D

 36 37  0  0  1  0  0  0  0  0999 V2000
    7.7503   -2.4557   24.4940 C   0  0  0  0  0  0  0  0  0  0  0  0
    6.9737   -1.9803   23.4603 C   0  0  0  0  0  0  0  0  0  0  0  0
    7.9570   -4.1748   22.9434 C   0  0  0  0  0  0  0  0  0  0  0  0
    8.3200   -3.7269   24.1946 C   0  0  0  0  0  0  0  0  0  0  0  0
   10.9244   -2.5863   24.7932 C   0  0  0  0  0  0  0  0  0  0  0  0
    9.5136   -4.6482   27.5665 C   0  0  0  0  0  0  0  0  0  0  0  0
    8.5008   -4.8887   26.4550 C   0  0  0  0  0  0  0  0  0  0  0  0
   10.3260   -3.4683   27.0636 C   0  0  0  0  0  0  0  0  0  0  0  0
    9.2189   -4.4948   25.1431 C   0  0  2  0  0  0  0  0  0  0  0  0
   10.5261   -3.7921   25.5868 C   0  0  1  0  0  0  0  0  0  0  0  0
    9.9767    0.6328   23.3504 C   0  0  0  0  0  0  0  0  0  0  0  0
   11.5307   -1.8205   22.5066 C   0  0  0  0  0  0  0  0  0  0  0  0
   10.2913   -1.1889   21.8995 C   0  0  0  0  0  0  0  0  0  0  0  0
   11.1408   -2.8414   23.4525 N   0  0  0  0  0  0  0  0  0  0  0  0
   11.0273   -1.5012   25.3534 O   0  0  0  0  0  0  0  0  0  0  0  0
    9.4885   -0.6350   22.9341 O   0  0  0  0  0  0  0  0  0  0  0  0
    6.9336   -3.0647   22.1355 S   0  0  0  0  0  0  0  0  0  0  0  0
    7.8995   -1.9141   25.4195 H   0  0  0  0  0  0  0  0  0  0  0  0
    6.4274   -1.0486   23.4198 H   0  0  0  0  0  0  0  0  0  0  0  0
    8.2405   -5.1004   22.4618 H   0  0  0  0  0  0  0  0  0  0  0  0
    9.0296   -4.4459   28.5181 H   0  0  0  0  0  0  0  0  0  0  0  0
   10.1545   -5.5216   27.6815 H   0  0  0  0  0  0  0  0  0  0  0  0
    8.1571   -5.9362   26.4331 H   0  0  0  0  0  0  0  0  0  0  0  0
    7.6016   -4.2677   26.6144 H   0  0  0  0  0  0  0  0  0  0  0  0
    9.8043   -2.5323   27.2244 H   0  0  0  0  0  0  0  0  0  0  0  0
   11.2793   -3.4311   27.5803 H   0  0  0  0  0  0  0  0  0  0  0  0
    9.4883   -5.4386   24.6081 H   0  0  0  0  0  0  0  0  0  0  0  0
   11.3874   -4.5218   25.4773 H   0  0  0  0  0  0  0  0  0  0  0  0
    9.3376    1.0276   24.1440 H   0  0  0  0  0  0  0  0  0  0  0  0
    9.9848    1.3185   22.4994 H   0  0  0  0  0  0  0  0  0  0  0  0
   10.9943    0.5146   23.7302 H   0  0  0  0  0  0  0  0  0  0  0  0
   12.1560   -2.2858   21.7381 H   0  0  0  0  0  0  0  0  0  0  0  0
   12.1192   -1.0680   23.0401 H   0  0  0  0  0  0  0  0  0  0  0  0
    9.6982   -1.9495   21.3822 H   0  0  0  0  0  0  0  0  0  0  0  0
   10.5499   -0.3950   21.1912 H   0  0  0  0  0  0  0  0  0  0  0  0
   11.0200   -3.7919   23.1156 H   0  0  0  0  0  0  0  0  0  0  0  0
  1  2  2  0  0  0  0
  1  4  1  0  0  0  0
  1 18  1  0  0  0  0
  2 17  1  0  0  0  0
  2 19  1  0  0  0  0
  3  4  2  0  0  0  0
  3 17  1  0  0  0  0
  3 20  1  0  0  0  0
  4  9  1  0  0  0  0
  5 10  1  0  0  0  0
  5 14  1  0  0  0  0
  5 15  2  0  0  0  0
  6  7  1  0  0  0  0
  6  8  1  0  0  0  0
  6 21  1  0  0  0  0
  6 22  1  0  0  0  0
  7  9  1  0  0  0  0
  7 23  1  0  0  0  0
  7 24  1  0  0  0  0
  8 10  1  0  0  0  0
  8 25  1  0  0  0  0
  8 26  1  0  0  0  0
  9 10  1  0  0  0  0
  9 27  1  6  0  0  0
 10 28  1  6  0  0  0
 11 16  1  0  0  0  0
 11 29  1  0  0  0  0
 11 30  1  0  0  0  0
 11 31  1  0  0  0  0
 12 13  1  0  0  0  0
 12 14  1  0  0  0  0
 12 32  1  0  0  0  0
 12 33  1  0  0  0  0
 13 16  1  0  0  0  0
 13 34  1  0  0  0  0
 13 35  1  0  0  0  0
 14 36  1  0  0  0  0
M  END
>  <Chemgauss4 Score>
-4.86748886108398

>  <Number of Confs>
200

$$$$
