DAR-DIA-23a-3
 OpenBabel03242009303D

 31 32  0  0  0  0  0  0  0  0999 V2000
   12.5824   -1.3917   22.5059 C   0  0  0  0  0  0  0  0  0  0  0  0
    8.8821   -1.2412   22.1305 C   0  0  0  0  0  0  0  0  0  0  0  0
   10.2383   -0.9663   21.9555 C   0  0  0  0  0  0  0  0  0  0  0  0
    8.4807   -2.2232   23.0362 C   0  0  0  0  0  0  0  0  0  0  0  0
   10.7918   -2.6555   23.5918 C   0  0  0  0  0  0  0  0  0  0  0  0
    6.7475   -4.6257   26.8306 C   0  0  0  0  0  0  0  0  0  0  0  0
    8.4049   -4.5926   28.5360 C   0  0  0  0  0  0  0  0  0  0  0  0
    6.3525   -3.6535   28.9649 C   0  0  0  0  0  0  0  0  0  0  0  0
   11.1932   -1.6735   22.6861 C   0  0  0  0  0  0  0  0  0  0  0  0
    8.0333   -4.9488   27.2496 C   0  0  0  0  0  0  0  0  0  0  0  0
    9.4355   -2.9304   23.7668 C   0  0  0  0  0  0  0  0  0  0  0  0
    5.8848   -3.9656   27.6985 C   0  0  0  0  0  0  0  0  0  0  0  0
    9.8392   -4.7210   25.4918 C   0  0  0  0  0  0  0  0  0  0  0  0
    8.9923   -5.6627   26.3333 C   0  0  0  0  0  0  0  0  0  0  0  0
   13.7107   -1.1627   22.3596 N   0  0  0  0  0  0  0  0  0  0  0  0
    7.5948   -3.9510   29.4076 N   0  0  0  0  0  0  0  0  0  0  0  0
    4.5804   -3.6272   27.3030 N   0  0  0  0  0  0  0  0  0  0  0  0
    9.0336   -3.9116   24.6734 N   0  0  0  0  0  0  0  0  0  0  0  0
   11.0644   -4.7089   25.5539 O   0  0  0  0  0  0  0  0  0  0  0  0
    8.1385   -0.6899   21.5622 H   0  0  0  0  0  0  0  0  0  0  0  0
   10.5353   -0.1984   21.2453 H   0  0  0  0  0  0  0  0  0  0  0  0
    7.4209   -2.4289   23.1643 H   0  0  0  0  0  0  0  0  0  0  0  0
   11.5342   -3.2096   24.1631 H   0  0  0  0  0  0  0  0  0  0  0  0
    6.4195   -4.8896   25.8277 H   0  0  0  0  0  0  0  0  0  0  0  0
    9.3954   -4.8188   28.9186 H   0  0  0  0  0  0  0  0  0  0  0  0
    5.7252   -3.1392   29.6869 H   0  0  0  0  0  0  0  0  0  0  0  0
    9.6598   -6.3022   26.9248 H   0  0  0  0  0  0  0  0  0  0  0  0
    8.4331   -6.3283   25.6635 H   0  0  0  0  0  0  0  0  0  0  0  0
    4.2822   -3.8228   26.3657 H   0  0  0  0  0  0  0  0  0  0  0  0
    3.9931   -3.1097   27.9299 H   0  0  0  0  0  0  0  0  0  0  0  0
    8.0210   -4.0611   24.7526 H   0  0  0  0  0  0  0  0  0  0  0  0
  1  9  1  0  0  0  0
  1 15  3  0  0  0  0
  2  3  2  0  0  0  0
  2  4  1  0  0  0  0
  2 20  1  0  0  0  0
  3  9  1  0  0  0  0
  3 21  1  0  0  0  0
  4 11  2  0  0  0  0
  4 22  1  0  0  0  0
  5  9  2  0  0  0  0
  5 11  1  0  0  0  0
  5 23  1  0  0  0  0
  6 10  2  0  0  0  0
  6 12  1  0  0  0  0
  6 24  1  0  0  0  0
  7 10  1  0  0  0  0
  7 16  2  0  0  0  0
  7 25  1  0  0  0  0
  8 12  2  0  0  0  0
  8 16  1  0  0  0  0
  8 26  1  0  0  0  0
 10 14  1  0  0  0  0
 11 18  1  0  0  0  0
 12 17  1  0  0  0  0
 13 14  1  0  0  0  0
 13 18  1  0  0  0  0
 13 19  2  0  0  0  0
 14 27  1  0  0  0  0
 14 28  1  0  0  0  0
 17 29  1  0  0  0  0
 17 30  1  0  0  0  0
 18 31  1  0  0  0  0
M  END
>  <Chemgauss4 Score>
-6.12448024749756

>  <Number of Confs>
40

$$$$
