top_hits_only_mpro-130_1
  -OEChem-03302021283D

 44 48  0     0  0  0  0  0  0999 V2000
   12.6151    1.8490   24.1892 C   0  0  0  0  0  0  0  0  0  0  0  0
   12.7399    2.6226   23.0407 C   0  0  0  0  0  0  0  0  0  0  0  0
    5.4514    1.0481   19.5484 C   0  0  0  0  0  0  0  0  0  0  0  0
   11.5177    1.0059   24.3331 C   0  0  0  0  0  0  0  0  0  0  0  0
    6.3817    1.1075   20.5801 C   0  0  0  0  0  0  0  0  0  0  0  0
   11.7678    2.5515   22.0386 C   0  0  0  0  0  0  0  0  0  0  0  0
    8.7769   -3.7184   26.2485 C   0  0  0  0  0  0  0  0  0  0  0  0
    9.1819   -3.0157   23.5226 C   0  0  0  0  0  0  0  0  0  0  0  0
    5.8951    0.6517   18.2971 C   0  0  0  0  0  0  0  0  0  0  0  0
    8.0510    0.3889   19.0461 C   0  0  0  0  0  0  0  0  0  0  0  0
    9.0860   -0.2438   25.8018 C   0  0  0  0  0  0  0  0  0  0  0  0
   10.5444    0.9400   23.3209 C   0  0  0  0  0  0  0  0  0  0  0  0
    7.7085    0.7733   20.3324 C   0  0  0  0  0  0  0  0  0  0  0  0
    8.8359   -4.6986   25.2499 C   0  0  0  0  0  0  0  0  0  0  0  0
    9.0349   -4.3512   23.9117 C   0  0  0  0  0  0  0  0  0  0  0  0
   10.6595    1.7163   22.1561 C   0  0  0  0  0  0  0  0  0  0  0  0
    8.9228   -2.3716   25.8756 C   0  0  0  0  0  0  0  0  0  0  0  0
    9.1198   -2.0566   24.5340 C   0  0  0  0  0  0  0  0  0  0  0  0
    9.4240    0.1180   23.4022 C   0  0  0  0  0  0  0  0  0  0  0  0
    8.6950    0.8253   21.3796 C   0  0  0  0  0  0  0  0  0  0  0  0
    8.6821   -6.1314   25.6494 C   0  0  0  0  0  0  0  0  0  0  0  0
    9.0961   -5.4086   22.8554 C   0  0  0  0  0  0  0  0  0  0  0  0
    7.1755    0.3193   18.0183 N   0  0  0  0  0  0  0  0  0  0  0  0
    8.9045   -1.2329   26.6479 N   0  0  0  0  0  0  0  0  0  0  0  0
    9.7347    1.6610   21.1818 N   0  0  0  0  0  0  0  0  0  0  0  0
    8.4795    0.0384   22.4461 N   0  0  0  0  0  0  0  0  0  0  0  0
    9.2208   -0.6891   24.5163 N   0  0  0  0  0  0  0  0  0  0  0  0
   13.3690    1.9031   24.9686 H   0  0  0  0  0  0  0  0  0  0  0  0
   13.5937    3.2835   22.9202 H   0  0  0  0  0  0  0  0  0  0  0  0
    4.4117    1.3032   19.7178 H   0  0  0  0  0  0  0  0  0  0  0  0
   11.4433    0.4114   25.2400 H   0  0  0  0  0  0  0  0  0  0  0  0
    6.0587    1.4159   21.5713 H   0  0  0  0  0  0  0  0  0  0  0  0
   11.8890    3.1689   21.1502 H   0  0  0  0  0  0  0  0  0  0  0  0
    8.6224   -3.9875   27.2891 H   0  0  0  0  0  0  0  0  0  0  0  0
    9.3371   -2.7402   22.4848 H   0  0  0  0  0  0  0  0  0  0  0  0
    5.2087    0.5895   17.4587 H   0  0  0  0  0  0  0  0  0  0  0  0
    9.0698    0.1144   18.7876 H   0  0  0  0  0  0  0  0  0  0  0  0
    9.1263    0.8054   26.0646 H   0  0  0  0  0  0  0  0  0  0  0  0
    7.6260   -6.4210   25.6191 H   0  0  0  0  0  0  0  0  0  0  0  0
    9.2464   -6.7905   24.9793 H   0  0  0  0  0  0  0  0  0  0  0  0
    9.0641   -6.3013   26.6630 H   0  0  0  0  0  0  0  0  0  0  0  0
   10.1286   -5.7488   22.7211 H   0  0  0  0  0  0  0  0  0  0  0  0
    8.4741   -6.2703   23.1239 H   0  0  0  0  0  0  0  0  0  0  0  0
    8.7233   -5.0297   21.8966 H   0  0  0  0  0  0  0  0  0  0  0  0
  1  2  1  0  0  0  0
  1  4  2  0  0  0  0
  2  6  2  0  0  0  0
  3  5  2  0  0  0  0
  3  9  1  0  0  0  0
  4 12  1  0  0  0  0
  5 13  1  0  0  0  0
  6 16  1  0  0  0  0
  7 14  1  0  0  0  0
  7 17  2  0  0  0  0
  8 15  1  0  0  0  0
  8 18  2  0  0  0  0
  9 23  2  0  0  0  0
 10 13  2  0  0  0  0
 10 23  1  0  0  0  0
 11 24  2  0  0  0  0
 11 27  1  0  0  0  0
 12 16  1  0  0  0  0
 12 19  2  0  0  0  0
 13 20  1  0  0  0  0
 14 15  2  0  0  0  0
 14 21  1  0  0  0  0
 15 22  1  0  0  0  0
 16 25  2  0  0  0  0
 17 18  1  0  0  0  0
 17 24  1  0  0  0  0
 18 27  1  0  0  0  0
 19 26  1  0  0  0  0
 19 27  1  0  0  0  0
 20 25  1  0  0  0  0
 20 26  2  0  0  0  0
  1 28  1  0  0  0  0
  2 29  1  0  0  0  0
  3 30  1  0  0  0  0
  4 31  1  0  0  0  0
  5 32  1  0  0  0  0
  6 33  1  0  0  0  0
  7 34  1  0  0  0  0
  8 35  1  0  0  0  0
  9 36  1  0  0  0  0
 10 37  1  0  0  0  0
 11 38  1  0  0  0  0
 21 39  1  0  0  0  0
 21 40  1  0  0  0  0
 21 41  1  0  0  0  0
 22 42  1  0  0  0  0
 22 43  1  0  0  0  0
 22 44  1  0  0  0  0
M  END
> <Hybrid2>
-13.190726

> <fragments>
x1077

> <site>
active-noncovalent

$$$$
top_hits_only_mpro-76_1
  -OEChem-03302021283D

 51 53  0     1  0  0  0  0  0999 V2000
    5.1869    0.9206   19.1375 C   0  0  0  0  0  0  0  0  0  0  0  0
    5.9799    0.4902   20.1954 C   0  0  0  0  0  0  0  0  0  0  0  0
    8.8236    1.3609   25.1098 C   0  0  0  0  0  0  0  0  0  0  0  0
    8.6460    0.3219   26.0233 C   0  0  0  0  0  0  0  0  0  0  0  0
    9.5331   -1.2455   24.4129 C   0  0  0  0  0  0  0  0  0  0  0  0
    5.6217    0.6517   17.8497 C   0  0  0  0  0  0  0  0  0  0  0  0
    7.5128   -0.4060   18.6133 C   0  0  0  0  0  0  0  0  0  0  0  0
    7.1668   -0.1865   19.9368 C   0  0  0  0  0  0  0  0  0  0  0  0
    9.7106   -0.2065   23.4994 C   0  0  0  0  0  0  0  0  0  0  0  0
    9.3559    1.0967   23.8478 C   0  0  0  0  0  0  0  0  0  0  0  0
    9.0008   -0.9813   25.6749 C   0  0  0  0  0  0  0  0  0  0  0  0
    8.4032    2.9615   22.4807 C   0  0  0  0  0  0  0  0  0  0  0  0
   10.8380    2.7733   22.7720 C   0  0  0  0  0  0  0  0  0  0  0  0
    8.3768    4.2799   23.2449 C   0  0  0  0  0  0  0  0  0  0  0  0
   10.8671    4.0922   23.5417 C   0  0  0  0  0  0  0  0  0  0  0  0
   10.5800   -2.0090   21.9540 C   0  0  0  0  0  0  0  0  0  0  0  0
    9.7409    6.3137   23.7444 C   0  0  0  0  0  0  0  0  0  0  0  0
    8.0439   -0.6642   21.0564 C   0  0  0  0  0  0  0  0  0  0  0  0
   10.2824   -0.5183   22.1547 C   0  0  1  0  0  0  0  0  0  0  0  0
    6.7683   -0.0029   17.5593 N   0  0  0  0  0  0  0  0  0  0  0  0
    9.5250    2.1448   22.9492 N   0  0  0  0  0  0  0  0  0  0  0  0
    9.7187    4.9663   23.0791 N   0  3  0  0  0  0  0  0  0  0  0  0
    9.4034   -0.0787   21.0187 N   0  3  0  0  0  0  0  0  0  0  0  0
    8.8305   -1.9791   26.5522 F   0  0  0  0  0  0  0  0  0  0  0  0
    4.2577    1.4497   19.3154 H   0  0  0  0  0  0  0  0  0  0  0  0
    5.6655    0.6861   21.2169 H   0  0  0  0  0  0  0  0  0  0  0  0
    8.5429    2.3725   25.3923 H   0  0  0  0  0  0  0  0  0  0  0  0
    8.2322    0.5276   27.0061 H   0  0  0  0  0  0  0  0  0  0  0  0
    9.8061   -2.2644   24.1516 H   0  0  0  0  0  0  0  0  0  0  0  0
    5.0391    0.9669   16.9903 H   0  0  0  0  0  0  0  0  0  0  0  0
    8.4273   -0.9286   18.3500 H   0  0  0  0  0  0  0  0  0  0  0  0
    7.4571    2.4414   22.6521 H   0  0  0  0  0  0  0  0  0  0  0  0
    8.4963    3.1508   21.4075 H   0  0  0  0  0  0  0  0  0  0  0  0
   11.0303    2.9531   21.7137 H   0  0  0  0  0  0  0  0  0  0  0  0
   11.6239    2.1263   23.1614 H   0  0  0  0  0  0  0  0  0  0  0  0
    7.6171    4.9480   22.8337 H   0  0  0  0  0  0  0  0  0  0  0  0
    8.2045    4.1343   24.3142 H   0  0  0  0  0  0  0  0  0  0  0  0
   10.7600    3.9409   24.6200 H   0  0  0  0  0  0  0  0  0  0  0  0
   11.7932    4.6357   23.3363 H   0  0  0  0  0  0  0  0  0  0  0  0
    9.6861   -2.6257   22.1004 H   0  0  0  0  0  0  0  0  0  0  0  0
   10.9599   -2.2091   20.9459 H   0  0  0  0  0  0  0  0  0  0  0  0
   11.3378   -2.3480   22.6692 H   0  0  0  0  0  0  0  0  0  0  0  0
    9.6013    6.1594   24.8159 H   0  0  0  0  0  0  0  0  0  0  0  0
   10.7092    6.7731   23.5367 H   0  0  0  0  0  0  0  0  0  0  0  0
    8.9267    6.9072   23.3241 H   0  0  0  0  0  0  0  0  0  0  0  0
    7.6171   -0.4058   22.0315 H   0  0  0  0  0  0  0  0  0  0  0  0
    8.1688   -1.7519   21.0245 H   0  0  0  0  0  0  0  0  0  0  0  0
   11.2205    0.0374   21.9929 H   0  0  0  0  0  0  0  0  0  0  0  0
    9.8527    5.1424   22.0686 H   0  0  0  0  0  0  0  0  0  0  0  0
    9.8655   -0.3281   20.1391 H   0  0  0  0  0  0  0  0  0  0  0  0
    9.3426    0.9438   21.0356 H   0  0  0  0  0  0  0  0  0  0  0  0
  1  2  2  0  0  0  0
  1  6  1  0  0  0  0
  2  8  1  0  0  0  0
  3  4  2  0  0  0  0
  3 10  1  0  0  0  0
  4 11  1  0  0  0  0
  5  9  1  0  0  0  0
  5 11  2  0  0  0  0
  6 20  2  0  0  0  0
  7  8  2  0  0  0  0
  7 20  1  0  0  0  0
  8 18  1  0  0  0  0
  9 10  2  0  0  0  0
  9 19  1  0  0  0  0
 10 21  1  0  0  0  0
 11 24  1  0  0  0  0
 12 14  1  0  0  0  0
 12 21  1  0  0  0  0
 13 15  1  0  0  0  0
 13 21  1  0  0  0  0
 14 22  1  0  0  0  0
 15 22  1  0  0  0  0
 16 19  1  0  0  0  0
 17 22  1  0  0  0  0
 18 23  1  0  0  0  0
 19 23  1  0  0  0  0
  1 25  1  0  0  0  0
  2 26  1  0  0  0  0
  3 27  1  0  0  0  0
  4 28  1  0  0  0  0
  5 29  1  0  0  0  0
  6 30  1  0  0  0  0
  7 31  1  0  0  0  0
 12 32  1  0  0  0  0
 12 33  1  0  0  0  0
 13 34  1  0  0  0  0
 13 35  1  0  0  0  0
 14 36  1  0  0  0  0
 14 37  1  0  0  0  0
 15 38  1  0  0  0  0
 15 39  1  0  0  0  0
 16 40  1  0  0  0  0
 16 41  1  0  0  0  0
 16 42  1  0  0  0  0
 17 43  1  0  0  0  0
 17 44  1  0  0  0  0
 17 45  1  0  0  0  0
 18 46  1  0  0  0  0
 18 47  1  0  0  0  0
 19 48  1  0  0  0  0
 22 49  1  0  0  0  0
 23 50  1  0  0  0  0
 23 51  1  0  0  0  0
M  CHG  2  22   1  23   1
M  END
> <Hybrid2>
-13.060610

> <fragments>
x0107

> <site>
active-noncovalent

$$$$
-11.76956558227539_2
  -OEChem-03302021283D

 46 50  0     0  0  0  0  0  0999 V2000
    8.7364   -5.7471   26.6159 C   0  0  0  0  0  0  0  0  0  0  0  0
    9.4788   -5.7381   25.4351 C   0  0  0  0  0  0  0  0  0  0  0  0
    7.4947   -5.1135   26.6640 C   0  0  0  0  0  0  0  0  0  0  0  0
    7.4327    0.5782   19.5500 C   0  0  0  0  0  0  0  0  0  0  0  0
   13.0958   -0.2705   22.9689 C   0  0  0  0  0  0  0  0  0  0  0  0
   12.4372    0.6506   23.7867 C   0  0  0  0  0  0  0  0  0  0  0  0
    6.8338    0.3084   18.3195 C   0  0  0  0  0  0  0  0  0  0  0  0
    8.9795   -5.0954   24.3023 C   0  0  0  0  0  0  0  0  0  0  0  0
    6.9954   -4.4708   25.5312 C   0  0  0  0  0  0  0  0  0  0  0  0
    7.3994   -0.3767   20.5662 C   0  0  0  0  0  0  0  0  0  0  0  0
   12.4008   -1.3274   22.3674 C   0  0  0  0  0  0  0  0  0  0  0  0
   11.0639    0.5505   24.0332 C   0  0  0  0  0  0  0  0  0  0  0  0
    6.2016   -0.9163   18.1052 C   0  0  0  0  0  0  0  0  0  0  0  0
    7.7377   -4.4617   24.3503 C   0  0  0  0  0  0  0  0  0  0  0  0
    6.7672   -1.6015   20.3519 C   0  0  0  0  0  0  0  0  0  0  0  0
    7.7063   -2.7563   22.4263 C   0  0  0  0  0  0  0  0  0  0  0  0
   11.0207   -1.4433   22.6043 C   0  0  0  0  0  0  0  0  0  0  0  0
   10.3923   -0.5098   23.4238 C   0  0  0  0  0  0  0  0  0  0  0  0
    6.1683   -1.8713   19.1214 C   0  0  0  0  0  0  0  0  0  0  0  0
    6.7440   -2.5744   21.4149 C   0  0  0  0  0  0  0  0  0  0  0  0
    7.2211   -3.7979   23.1786 C   0  0  0  0  0  0  0  0  0  0  0  0
    8.9659   -2.0209   22.6643 C   0  0  0  0  0  0  0  0  0  0  0  0
    8.0096   -0.2478   24.1633 C   0  0  0  0  0  0  0  0  0  0  0  0
   10.1188   -2.3739   22.1417 N   0  0  0  0  0  0  0  0  0  0  0  0
    5.7247   -3.4320   21.5129 N   0  0  0  0  0  0  0  0  0  0  0  0
    6.0438   -4.1628   22.5947 N   0  0  0  0  0  0  0  0  0  0  0  0
    9.0789   -0.9038   23.4443 N   0  0  0  0  0  0  0  0  0  0  0  0
    5.5433   -3.0600   18.8838 O   0  0  0  0  0  0  0  0  0  0  0  0
    9.1250   -6.2481   27.4978 H   0  0  0  0  0  0  0  0  0  0  0  0
   10.4457   -6.2314   25.3980 H   0  0  0  0  0  0  0  0  0  0  0  0
    6.9161   -5.1215   27.5832 H   0  0  0  0  0  0  0  0  0  0  0  0
    7.9246    1.5321   19.7168 H   0  0  0  0  0  0  0  0  0  0  0  0
   14.1642   -0.1669   22.7978 H   0  0  0  0  0  0  0  0  0  0  0  0
   13.0015    1.4622   24.2392 H   0  0  0  0  0  0  0  0  0  0  0  0
    6.8594    1.0522   17.5285 H   0  0  0  0  0  0  0  0  0  0  0  0
    9.5690   -5.0995   23.3886 H   0  0  0  0  0  0  0  0  0  0  0  0
    6.0262   -3.9805   25.5851 H   0  0  0  0  0  0  0  0  0  0  0  0
    7.8713   -0.1499   21.5196 H   0  0  0  0  0  0  0  0  0  0  0  0
   12.9213   -2.0381   21.7335 H   0  0  0  0  0  0  0  0  0  0  0  0
   10.5534    1.2666   24.6671 H   0  0  0  0  0  0  0  0  0  0  0  0
    5.7369   -1.1195   17.1442 H   0  0  0  0  0  0  0  0  0  0  0  0
    7.5683    0.5019   23.5013 H   0  0  0  0  0  0  0  0  0  0  0  0
    7.2599   -0.9882   24.4560 H   0  0  0  0  0  0  0  0  0  0  0  0
    8.4154    0.2254   25.0618 H   0  0  0  0  0  0  0  0  0  0  0  0
    5.4067   -4.8969   22.8786 H   0  0  0  0  0  0  0  0  0  0  0  0
    5.1865   -3.0751   17.9825 H   0  0  0  0  0  0  0  0  0  0  0  0
  1  2  1  0  0  0  0
  1  3  2  0  0  0  0
  2  8  2  0  0  0  0
  3  9  1  0  0  0  0
  4  7  1  0  0  0  0
  4 10  2  0  0  0  0
  5  6  2  0  0  0  0
  5 11  1  0  0  0  0
  6 12  1  0  0  0  0
  7 13  2  0  0  0  0
  8 14  1  0  0  0  0
  9 14  2  0  0  0  0
 10 15  1  0  0  0  0
 11 17  2  0  0  0  0
 12 18  2  0  0  0  0
 13 19  1  0  0  0  0
 14 21  1  0  0  0  0
 15 19  2  0  0  0  0
 15 20  1  0  0  0  0
 16 20  1  0  0  0  0
 16 21  2  0  0  0  0
 16 22  1  0  0  0  0
 17 18  1  0  0  0  0
 17 24  1  0  0  0  0
 18 27  1  0  0  0  0
 19 28  1  0  0  0  0
 20 25  2  0  0  0  0
 21 26  1  0  0  0  0
 22 24  2  0  0  0  0
 22 27  1  0  0  0  0
 23 27  1  0  0  0  0
 25 26  1  0  0  0  0
  1 29  1  0  0  0  0
  2 30  1  0  0  0  0
  3 31  1  0  0  0  0
  4 32  1  0  0  0  0
  5 33  1  0  0  0  0
  6 34  1  0  0  0  0
  7 35  1  0  0  0  0
  8 36  1  0  0  0  0
  9 37  1  0  0  0  0
 10 38  1  0  0  0  0
 11 39  1  0  0  0  0
 12 40  1  0  0  0  0
 13 41  1  0  0  0  0
 23 42  1  0  0  0  0
 23 43  1  0  0  0  0
 23 44  1  0  0  0  0
 26 45  1  0  0  0  0
 28 46  1  0  0  0  0
M  END
> <Hybrid2>
-12.924612

> <fragments>
x0831

> <site>
active-covalent

$$$$
top_hits_only_mpro-135_1
  -OEChem-03302021283D

 42 45  0     0  0  0  0  0  0999 V2000
   12.2453    0.9485   24.1295 C   0  0  0  0  0  0  0  0  0  0  0  0
   12.5387    1.7075   23.0021 C   0  0  0  0  0  0  0  0  0  0  0  0
    5.2475    1.3468   19.1904 C   0  0  0  0  0  0  0  0  0  0  0  0
   11.0234    0.2882   24.2136 C   0  0  0  0  0  0  0  0  0  0  0  0
    6.1304    1.2480   20.2600 C   0  0  0  0  0  0  0  0  0  0  0  0
    9.4911   -5.0575   24.1109 C   0  0  0  0  0  0  0  0  0  0  0  0
    8.8122   -4.5526   25.2198 C   0  0  0  0  0  0  0  0  0  0  0  0
   11.6104    1.8045   21.9613 C   0  0  0  0  0  0  0  0  0  0  0  0
    9.4933   -2.8582   23.1108 C   0  0  0  0  0  0  0  0  0  0  0  0
    5.6766    0.8981   17.9518 C   0  0  0  0  0  0  0  0  0  0  0  0
    7.7302    0.2906   18.7835 C   0  0  0  0  0  0  0  0  0  0  0  0
   10.0953    0.3907   23.1628 C   0  0  0  0  0  0  0  0  0  0  0  0
    7.3974    0.7110   20.0611 C   0  0  0  0  0  0  0  0  0  0  0  0
    9.8317   -4.2103   23.0564 C   0  0  0  0  0  0  0  0  0  0  0  0
    8.4738   -3.2005   25.2742 C   0  0  0  0  0  0  0  0  0  0  0  0
   10.3802    1.1541   22.0189 C   0  0  0  0  0  0  0  0  0  0  0  0
    8.8144   -2.3533   24.2197 C   0  0  0  0  0  0  0  0  0  0  0  0
    8.8567   -0.2443   23.1839 C   0  0  0  0  0  0  0  0  0  0  0  0
    8.3340    0.5959   21.1484 C   0  0  0  0  0  0  0  0  0  0  0  0
   10.5583   -4.7506   21.8712 C   0  0  0  0  0  0  0  0  0  0  0  0
    7.7459   -2.6779   26.4683 C   0  0  0  0  0  0  0  0  0  0  0  0
    6.8995    0.3706   17.7199 N   0  0  0  0  0  0  0  0  0  0  0  0
    9.4999    1.2588   21.0080 N   0  0  0  0  0  0  0  0  0  0  0  0
    7.9524   -0.1606   22.1900 N   0  0  0  0  0  0  0  0  0  0  0  0
    8.4883   -1.0126   24.2578 O   0  0  0  0  0  0  0  0  0  0  0  0
   12.9651    0.8721   24.9387 H   0  0  0  0  0  0  0  0  0  0  0  0
   13.4903    2.2264   22.9289 H   0  0  0  0  0  0  0  0  0  0  0  0
    4.2545    1.7610   19.3215 H   0  0  0  0  0  0  0  0  0  0  0  0
   10.8088   -0.3018   25.1009 H   0  0  0  0  0  0  0  0  0  0  0  0
    5.8176    1.5933   21.2423 H   0  0  0  0  0  0  0  0  0  0  0  0
    9.7517   -6.1120   24.0763 H   0  0  0  0  0  0  0  0  0  0  0  0
    8.5525   -5.2205   26.0368 H   0  0  0  0  0  0  0  0  0  0  0  0
   11.8649    2.4059   21.0904 H   0  0  0  0  0  0  0  0  0  0  0  0
    9.7583   -2.1960   22.2902 H   0  0  0  0  0  0  0  0  0  0  0  0
    5.0256    0.9536   17.0851 H   0  0  0  0  0  0  0  0  0  0  0  0
    8.7033   -0.1385   18.5622 H   0  0  0  0  0  0  0  0  0  0  0  0
    9.8464   -5.0957   21.1115 H   0  0  0  0  0  0  0  0  0  0  0  0
   11.2066   -3.9884   21.4198 H   0  0  0  0  0  0  0  0  0  0  0  0
   11.2050   -5.5927   22.1502 H   0  0  0  0  0  0  0  0  0  0  0  0
    8.4582   -2.3384   27.2295 H   0  0  0  0  0  0  0  0  0  0  0  0
    7.0948   -1.8367   26.1995 H   0  0  0  0  0  0  0  0  0  0  0  0
    7.1034   -3.4496   26.9106 H   0  0  0  0  0  0  0  0  0  0  0  0
  1  2  1  0  0  0  0
  1  4  2  0  0  0  0
  2  8  2  0  0  0  0
  3  5  2  0  0  0  0
  3 10  1  0  0  0  0
  4 12  1  0  0  0  0
  5 13  1  0  0  0  0
  6  7  2  0  0  0  0
  6 14  1  0  0  0  0
  7 15  1  0  0  0  0
  8 16  1  0  0  0  0
  9 14  2  0  0  0  0
  9 17  1  0  0  0  0
 10 22  2  0  0  0  0
 11 13  2  0  0  0  0
 11 22  1  0  0  0  0
 12 16  1  0  0  0  0
 12 18  2  0  0  0  0
 13 19  1  0  0  0  0
 14 20  1  0  0  0  0
 15 17  2  0  0  0  0
 15 21  1  0  0  0  0
 16 23  2  0  0  0  0
 17 25  1  0  0  0  0
 18 24  1  0  0  0  0
 18 25  1  0  0  0  0
 19 23  1  0  0  0  0
 19 24  2  0  0  0  0
  1 26  1  0  0  0  0
  2 27  1  0  0  0  0
  3 28  1  0  0  0  0
  4 29  1  0  0  0  0
  5 30  1  0  0  0  0
  6 31  1  0  0  0  0
  7 32  1  0  0  0  0
  8 33  1  0  0  0  0
  9 34  1  0  0  0  0
 10 35  1  0  0  0  0
 11 36  1  0  0  0  0
 20 37  1  0  0  0  0
 20 38  1  0  0  0  0
 20 39  1  0  0  0  0
 21 40  1  0  0  0  0
 21 41  1  0  0  0  0
 21 42  1  0  0  0  0
M  END
> <Hybrid2>
-12.784735

> <fragments>
x1077

> <site>
active-noncovalent

$$$$
-12.505891799926758_1
  -OEChem-03302021283D

 39 41  0     0  0  0  0  0  0999 V2000
    5.9707    0.9353   19.0278 C   0  0  0  0  0  0  0  0  0  0  0  0
    6.7704    0.8652   20.1631 C   0  0  0  0  0  0  0  0  0  0  0  0
   10.1664   -0.4957   24.6037 C   0  0  0  0  0  0  0  0  0  0  0  0
    9.5969   -2.4111   23.2458 C   0  0  0  0  0  0  0  0  0  0  0  0
    9.4486   -1.0380   25.6697 C   0  0  0  0  0  0  0  0  0  0  0  0
    8.8791   -2.9534   24.3118 C   0  0  0  0  0  0  0  0  0  0  0  0
    6.5622    0.6805   17.8011 C   0  0  0  0  0  0  0  0  0  0  0  0
    8.6135    0.3091   18.7666 C   0  0  0  0  0  0  0  0  0  0  0  0
    8.1182    0.5467   20.0386 C   0  0  0  0  0  0  0  0  0  0  0  0
   10.2405   -1.1823   23.3917 C   0  0  0  0  0  0  0  0  0  0  0  0
    8.8050   -2.2668   25.5237 C   0  0  0  0  0  0  0  0  0  0  0  0
    8.9973    0.4648   21.2334 C   0  0  0  0  0  0  0  0  0  0  0  0
   11.6734    0.7829   22.5840 C   0  0  0  0  0  0  0  0  0  0  0  0
   12.1893   -1.4707   21.6732 C   0  0  0  0  0  0  0  0  0  0  0  0
   12.8754    0.6159   23.5096 C   0  0  0  0  0  0  0  0  0  0  0  0
   13.3954   -1.5103   22.6125 C   0  0  0  0  0  0  0  0  0  0  0  0
   11.0339   -0.5851   22.2157 C   0  0  0  0  0  0  0  0  0  0  0  0
    7.8676    0.3680   17.6406 N   0  0  0  0  0  0  0  0  0  0  0  0
   10.0903   -0.3777   21.1201 N   0  0  0  0  0  0  0  0  0  0  0  0
    8.7080    1.1117   22.2366 O   0  0  0  0  0  0  0  0  0  0  0  0
   13.8706   -0.1953   22.8902 O   0  0  0  0  0  0  0  0  0  0  0  0
    7.9198   -2.9357   26.8389 Cl  0  0  0  0  0  0  0  0  0  0  0  0
    4.9175    1.1812   19.1007 H   0  0  0  0  0  0  0  0  0  0  0  0
    6.3339    1.0610   21.1388 H   0  0  0  0  0  0  0  0  0  0  0  0
   10.6650    0.4623   24.7252 H   0  0  0  0  0  0  0  0  0  0  0  0
    9.6500   -2.9525   22.3049 H   0  0  0  0  0  0  0  0  0  0  0  0
    9.3999   -0.4918   26.6082 H   0  0  0  0  0  0  0  0  0  0  0  0
    8.3826   -3.9118   24.1835 H   0  0  0  0  0  0  0  0  0  0  0  0
    5.9815    0.7229   16.8855 H   0  0  0  0  0  0  0  0  0  0  0  0
    9.6571    0.0554   18.6062 H   0  0  0  0  0  0  0  0  0  0  0  0
   10.9348    1.4380   23.0623 H   0  0  0  0  0  0  0  0  0  0  0  0
   12.0104    1.2790   21.6637 H   0  0  0  0  0  0  0  0  0  0  0  0
   12.5272   -1.0596   20.7119 H   0  0  0  0  0  0  0  0  0  0  0  0
   11.8400   -2.4939   21.4867 H   0  0  0  0  0  0  0  0  0  0  0  0
   13.3248    1.5949   23.7060 H   0  0  0  0  0  0  0  0  0  0  0  0
   12.5972    0.1854   24.4782 H   0  0  0  0  0  0  0  0  0  0  0  0
   13.1586   -2.0189   23.5540 H   0  0  0  0  0  0  0  0  0  0  0  0
   14.2122   -2.0651   22.1397 H   0  0  0  0  0  0  0  0  0  0  0  0
   10.2315   -0.9296   20.2814 H   0  0  0  0  0  0  0  0  0  0  0  0
  1  2  2  0  0  0  0
  1  7  1  0  0  0  0
  2  9  1  0  0  0  0
  3  5  2  0  0  0  0
  3 10  1  0  0  0  0
  4  6  1  0  0  0  0
  4 10  2  0  0  0  0
  5 11  1  0  0  0  0
  6 11  2  0  0  0  0
  7 18  2  0  0  0  0
  8  9  2  0  0  0  0
  8 18  1  0  0  0  0
  9 12  1  0  0  0  0
 10 17  1  0  0  0  0
 11 22  1  0  0  0  0
 12 19  1  0  0  0  0
 12 20  2  0  0  0  0
 13 15  1  0  0  0  0
 13 17  1  0  0  0  0
 14 16  1  0  0  0  0
 14 17  1  0  0  0  0
 15 21  1  0  0  0  0
 16 21  1  0  0  0  0
 17 19  1  0  0  0  0
  1 23  1  0  0  0  0
  2 24  1  0  0  0  0
  3 25  1  0  0  0  0
  4 26  1  0  0  0  0
  5 27  1  0  0  0  0
  6 28  1  0  0  0  0
  7 29  1  0  0  0  0
  8 30  1  0  0  0  0
 13 31  1  0  0  0  0
 13 32  1  0  0  0  0
 14 33  1  0  0  0  0
 14 34  1  0  0  0  0
 15 35  1  0  0  0  0
 15 36  1  0  0  0  0
 16 37  1  0  0  0  0
 16 38  1  0  0  0  0
 19 39  1  0  0  0  0
M  END
> <Hybrid2>
-12.759226

> <fragments>
x0678

> <site>
active-noncovalent

$$$$
top_hits_only_mpro-441_1
  -OEChem-03302021283D

 37 42  0     0  0  0  0  0  0999 V2000
    5.6150    1.4218   19.3198 C   0  0  0  0  0  0  0  0  0  0  0  0
   14.2056   -1.1141   24.3780 C   0  0  0  0  0  0  0  0  0  0  0  0
    6.1325    0.7814   18.2017 C   0  0  0  0  0  0  0  0  0  0  0  0
   14.6587   -1.7365   23.2206 C   0  0  0  0  0  0  0  0  0  0  0  0
    6.3389    1.4711   20.5161 C   0  0  0  0  0  0  0  0  0  0  0  0
   12.9578   -0.4839   24.4094 C   0  0  0  0  0  0  0  0  0  0  0  0
    7.3865    0.1713   18.2428 C   0  0  0  0  0  0  0  0  0  0  0  0
   13.8831   -1.7501   22.0592 C   0  0  0  0  0  0  0  0  0  0  0  0
    7.6165    0.8685   20.6127 C   0  0  0  0  0  0  0  0  0  0  0  0
   12.1355   -0.4709   23.2579 C   0  0  0  0  0  0  0  0  0  0  0  0
    8.5778    0.7703   21.7220 C   0  0  0  0  0  0  0  0  0  0  0  0
   10.8084    0.1074   23.0226 C   0  0  0  0  0  0  0  0  0  0  0  0
    8.7005    1.1659   23.0545 C   0  0  0  0  0  0  0  0  0  0  0  0
    9.8635    0.8275   23.7532 C   0  0  0  0  0  0  0  0  0  0  0  0
    8.1212    0.2150   19.4376 C   0  0  0  0  0  0  0  0  0  0  0  0
   12.6297   -1.1208   22.0791 C   0  0  0  0  0  0  0  0  0  0  0  0
    9.5532    0.0295   20.9760 C   0  0  0  0  0  0  0  0  0  0  0  0
   10.7216   -0.3174   21.6585 C   0  0  0  0  0  0  0  0  0  0  0  0
    7.8259    1.9092   23.9538 C   0  0  0  0  0  0  0  0  0  0  0  0
    9.7979    1.3402   25.1521 C   0  0  0  0  0  0  0  0  0  0  0  0
    9.3748   -0.3244   19.6839 N   0  0  0  0  0  0  0  0  0  0  0  0
   11.7064   -1.0161   21.0481 N   0  0  0  0  0  0  0  0  0  0  0  0
    8.5007    1.9906   25.1688 N   0  0  0  0  0  0  0  0  0  0  0  0
    6.7313    2.3561   23.6711 O   0  0  0  0  0  0  0  0  0  0  0  0
    4.6359    1.8908   19.2671 H   0  0  0  0  0  0  0  0  0  0  0  0
   14.8267   -1.1164   25.2699 H   0  0  0  0  0  0  0  0  0  0  0  0
    5.5543    0.7543   17.2819 H   0  0  0  0  0  0  0  0  0  0  0  0
   15.6321   -2.2206   23.2178 H   0  0  0  0  0  0  0  0  0  0  0  0
    5.8996    1.9810   21.3671 H   0  0  0  0  0  0  0  0  0  0  0  0
   12.6254   -0.0046   25.3267 H   0  0  0  0  0  0  0  0  0  0  0  0
    7.7830   -0.3273   17.3633 H   0  0  0  0  0  0  0  0  0  0  0  0
   14.2476   -2.2391   21.1609 H   0  0  0  0  0  0  0  0  0  0  0  0
    9.8026    0.5361   25.8914 H   0  0  0  0  0  0  0  0  0  0  0  0
   10.5716    2.0830   25.3608 H   0  0  0  0  0  0  0  0  0  0  0  0
    9.9887   -0.8405   19.0672 H   0  0  0  0  0  0  0  0  0  0  0  0
   11.7548   -1.3650   20.0997 H   0  0  0  0  0  0  0  0  0  0  0  0
    8.1225    2.4588   25.9862 H   0  0  0  0  0  0  0  0  0  0  0  0
  1  3  2  0  0  0  0
  1  5  1  0  0  0  0
  2  4  1  0  0  0  0
  2  6  2  0  0  0  0
  3  7  1  0  0  0  0
  4  8  2  0  0  0  0
  5  9  2  0  0  0  0
  6 10  1  0  0  0  0
  7 15  2  0  0  0  0
  8 16  1  0  0  0  0
  9 11  1  0  0  0  0
  9 15  1  0  0  0  0
 10 12  1  0  0  0  0
 10 16  2  0  0  0  0
 11 13  2  0  0  0  0
 11 17  1  0  0  0  0
 12 14  2  0  0  0  0
 12 18  1  0  0  0  0
 13 14  1  0  0  0  0
 13 19  1  0  0  0  0
 14 20  1  0  0  0  0
 15 21  1  0  0  0  0
 16 22  1  0  0  0  0
 17 18  2  0  0  0  0
 17 21  1  0  0  0  0
 18 22  1  0  0  0  0
 19 23  1  0  0  0  0
 19 24  2  0  0  0  0
 20 23  1  0  0  0  0
  1 25  1  0  0  0  0
  2 26  1  0  0  0  0
  3 27  1  0  0  0  0
  4 28  1  0  0  0  0
  5 29  1  0  0  0  0
  6 30  1  0  0  0  0
  7 31  1  0  0  0  0
  8 32  1  0  0  0  0
 20 33  1  0  0  0  0
 20 34  1  0  0  0  0
 21 35  1  0  0  0  0
 22 36  1  0  0  0  0
 23 37  1  0  0  0  0
M  END
> <Hybrid2>
-12.704174

> <fragments>
x0678

> <site>
active-noncovalent

$$$$
top_hits_only_mpro-207_1
  -OEChem-03302021283D

 49 53  0     0  0  0  0  0  0999 V2000
   12.3207    1.0579   24.0865 C   0  0  0  0  0  0  0  0  0  0  0  0
   12.3264    2.0670   23.1300 C   0  0  0  0  0  0  0  0  0  0  0  0
    5.0831    0.5514   19.5171 C   0  0  0  0  0  0  0  0  0  0  0  0
   11.3131    0.0986   24.0663 C   0  0  0  0  0  0  0  0  0  0  0  0
    6.0432    0.4841   20.5206 C   0  0  0  0  0  0  0  0  0  0  0  0
   11.3253    2.1147   22.1554 C   0  0  0  0  0  0  0  0  0  0  0  0
    7.8381   -6.1357   25.6209 C   0  0  0  0  0  0  0  0  0  0  0  0
    6.7016   -4.2975   26.7010 C   0  0  0  0  0  0  0  0  0  0  0  0
    6.7626   -6.9737   25.9153 C   0  0  0  0  0  0  0  0  0  0  0  0
    5.6260   -5.1356   26.9954 C   0  0  0  0  0  0  0  0  0  0  0  0
    5.5129    0.4741   18.2022 C   0  0  0  0  0  0  0  0  0  0  0  0
    7.7115    0.2755   18.8385 C   0  0  0  0  0  0  0  0  0  0  0  0
   10.3100    0.1535   23.0830 C   0  0  0  0  0  0  0  0  0  0  0  0
    7.3848    0.3436   20.1833 C   0  0  0  0  0  0  0  0  0  0  0  0
   10.3051    1.1676   22.1115 C   0  0  0  0  0  0  0  0  0  0  0  0
    7.8076   -4.7976   26.0137 C   0  0  0  0  0  0  0  0  0  0  0  0
    5.6566   -6.4736   26.6026 C   0  0  0  0  0  0  0  0  0  0  0  0
    9.2750   -0.7743   23.0068 C   0  0  0  0  0  0  0  0  0  0  0  0
    8.4022    0.2716   21.1994 C   0  0  0  0  0  0  0  0  0  0  0  0
    9.7241   -4.1513   24.5401 C   0  0  0  0  0  0  0  0  0  0  0  0
    8.9502   -2.6060   26.2696 C   0  0  0  0  0  0  0  0  0  0  0  0
    9.2749   -3.1966   23.4325 C   0  0  0  0  0  0  0  0  0  0  0  0
    8.4811   -1.6113   25.2019 C   0  0  0  0  0  0  0  0  0  0  0  0
    6.8070    0.3375   17.8357 N   0  0  0  0  0  0  0  0  0  0  0  0
    9.3508    1.2295   21.1664 N   0  0  0  0  0  0  0  0  0  0  0  0
    8.3041   -0.7419   22.0747 N   0  0  0  0  0  0  0  0  0  0  0  0
    8.8797   -3.9622   25.7202 N   0  0  0  0  0  0  0  0  0  0  0  0
    9.2149   -1.8147   23.9425 N   0  0  0  0  0  0  0  0  0  0  0  0
    4.6238   -7.2784   26.8854 F   0  0  0  0  0  0  0  0  0  0  0  0
   13.0968    1.0208   24.8448 H   0  0  0  0  0  0  0  0  0  0  0  0
   13.1092    2.8201   23.1389 H   0  0  0  0  0  0  0  0  0  0  0  0
    4.0314    0.6599   19.7559 H   0  0  0  0  0  0  0  0  0  0  0  0
   11.3300   -0.6798   24.8246 H   0  0  0  0  0  0  0  0  0  0  0  0
    5.7316    0.5425   21.5605 H   0  0  0  0  0  0  0  0  0  0  0  0
   11.3522    2.9154   21.4185 H   0  0  0  0  0  0  0  0  0  0  0  0
    8.6948   -6.5357   25.0846 H   0  0  0  0  0  0  0  0  0  0  0  0
    6.6674   -3.2566   27.0121 H   0  0  0  0  0  0  0  0  0  0  0  0
    6.7859   -8.0155   25.6095 H   0  0  0  0  0  0  0  0  0  0  0  0
    4.7648   -4.7468   27.5307 H   0  0  0  0  0  0  0  0  0  0  0  0
    4.8033    0.5222   17.3824 H   0  0  0  0  0  0  0  0  0  0  0  0
    8.7407    0.1648   18.5089 H   0  0  0  0  0  0  0  0  0  0  0  0
    9.6400   -5.1856   24.2030 H   0  0  0  0  0  0  0  0  0  0  0  0
   10.7743   -3.9634   24.7704 H   0  0  0  0  0  0  0  0  0  0  0  0
    9.9714   -2.3741   26.5691 H   0  0  0  0  0  0  0  0  0  0  0  0
    8.3039   -2.5252   27.1413 H   0  0  0  0  0  0  0  0  0  0  0  0
    9.9679   -3.2511   22.5825 H   0  0  0  0  0  0  0  0  0  0  0  0
    8.2851   -3.4984   23.0688 H   0  0  0  0  0  0  0  0  0  0  0  0
    7.4146   -1.7533   24.9894 H   0  0  0  0  0  0  0  0  0  0  0  0
    8.5959   -0.5893   25.5821 H   0  0  0  0  0  0  0  0  0  0  0  0
  1  2  1  0  0  0  0
  1  4  2  0  0  0  0
  2  6  2  0  0  0  0
  3  5  2  0  0  0  0
  3 11  1  0  0  0  0
  4 13  1  0  0  0  0
  5 14  1  0  0  0  0
  6 15  1  0  0  0  0
  7  9  2  0  0  0  0
  7 16  1  0  0  0  0
  8 10  1  0  0  0  0
  8 16  2  0  0  0  0
  9 17  1  0  0  0  0
 10 17  2  0  0  0  0
 11 24  2  0  0  0  0
 12 14  2  0  0  0  0
 12 24  1  0  0  0  0
 13 15  1  0  0  0  0
 13 18  2  0  0  0  0
 14 19  1  0  0  0  0
 15 25  2  0  0  0  0
 16 27  1  0  0  0  0
 17 29  1  0  0  0  0
 18 26  1  0  0  0  0
 18 28  1  0  0  0  0
 19 25  1  0  0  0  0
 19 26  2  0  0  0  0
 20 22  1  0  0  0  0
 20 27  1  0  0  0  0
 21 23  1  0  0  0  0
 21 27  1  0  0  0  0
 22 28  1  0  0  0  0
 23 28  1  0  0  0  0
  1 30  1  0  0  0  0
  2 31  1  0  0  0  0
  3 32  1  0  0  0  0
  4 33  1  0  0  0  0
  5 34  1  0  0  0  0
  6 35  1  0  0  0  0
  7 36  1  0  0  0  0
  8 37  1  0  0  0  0
  9 38  1  0  0  0  0
 10 39  1  0  0  0  0
 11 40  1  0  0  0  0
 12 41  1  0  0  0  0
 20 42  1  0  0  0  0
 20 43  1  0  0  0  0
 21 44  1  0  0  0  0
 21 45  1  0  0  0  0
 22 46  1  0  0  0  0
 22 47  1  0  0  0  0
 23 48  1  0  0  0  0
 23 49  1  0  0  0  0
M  END
> <Hybrid2>
-12.635254

> <fragments>
x1077

> <site>
active-noncovalent

$$$$
top_hits_only_mpro-215_1
  -OEChem-03302021283D

 31 33  0     0  0  0  0  0  0999 V2000
    4.6814    1.7705   19.5791 C   0  0  0  0  0  0  0  0  0  0  0  0
    4.5737    1.6233   20.9615 C   0  0  0  0  0  0  0  0  0  0  0  0
   14.7267   -1.0346   24.0861 C   0  0  0  0  0  0  0  0  0  0  0  0
    5.7839    1.2492   18.9040 C   0  0  0  0  0  0  0  0  0  0  0  0
    5.5694    0.9537   21.6757 C   0  0  0  0  0  0  0  0  0  0  0  0
   14.7218   -1.5850   22.8045 C   0  0  0  0  0  0  0  0  0  0  0  0
   13.6277   -0.3020   24.5347 C   0  0  0  0  0  0  0  0  0  0  0  0
    6.7781    0.5796   19.6230 C   0  0  0  0  0  0  0  0  0  0  0  0
   12.5191   -0.6701   22.4199 C   0  0  0  0  0  0  0  0  0  0  0  0
    6.6829    0.4240   21.0155 C   0  0  0  0  0  0  0  0  0  0  0  0
   13.6180   -1.4028   21.9714 C   0  0  0  0  0  0  0  0  0  0  0  0
   12.5239   -0.1197   23.7016 C   0  0  0  0  0  0  0  0  0  0  0  0
    7.9571    0.0183   18.9248 C   0  0  0  0  0  0  0  0  0  0  0  0
    8.6800   -0.7192   21.1192 C   0  0  0  0  0  0  0  0  0  0  0  0
   11.3474   -0.4945   21.4936 C   0  0  0  0  0  0  0  0  0  0  0  0
    7.6676   -0.2454   21.7684 N   0  0  0  0  0  0  0  0  0  0  0  0
    8.8620   -0.6171   19.7586 N   0  0  0  0  0  0  0  0  0  0  0  0
    8.0937    0.1232   17.7117 O   0  0  0  0  0  0  0  0  0  0  0  0
   13.6247   -1.9357   20.7414 F   0  0  0  0  0  0  0  0  0  0  0  0
    9.9635   -1.5672   21.9347 S   0  0  0  0  0  0  0  0  0  0  0  0
   11.1834    0.7939   24.2918 Cl  0  0  0  0  0  0  0  0  0  0  0  0
    3.9039    2.2909   19.0272 H   0  0  0  0  0  0  0  0  0  0  0  0
    3.7124    2.0294   21.4841 H   0  0  0  0  0  0  0  0  0  0  0  0
   15.5866   -1.1764   24.7339 H   0  0  0  0  0  0  0  0  0  0  0  0
    5.8515    1.3738   17.8271 H   0  0  0  0  0  0  0  0  0  0  0  0
    5.4699    0.8480   22.7533 H   0  0  0  0  0  0  0  0  0  0  0  0
   15.5775   -2.1554   22.4552 H   0  0  0  0  0  0  0  0  0  0  0  0
   13.6470    0.1206   25.5362 H   0  0  0  0  0  0  0  0  0  0  0  0
   11.0063    0.5466   21.5066 H   0  0  0  0  0  0  0  0  0  0  0  0
   11.6467   -0.7122   20.4624 H   0  0  0  0  0  0  0  0  0  0  0  0
    9.6955   -1.0261   19.3470 H   0  0  0  0  0  0  0  0  0  0  0  0
  1  2  1  0  0  0  0
  1  4  2  0  0  0  0
  2  5  2  0  0  0  0
  3  6  2  0  0  0  0
  3  7  1  0  0  0  0
  4  8  1  0  0  0  0
  5 10  1  0  0  0  0
  6 11  1  0  0  0  0
  7 12  2  0  0  0  0
  8 10  2  0  0  0  0
  8 13  1  0  0  0  0
  9 11  2  0  0  0  0
  9 12  1  0  0  0  0
  9 15  1  0  0  0  0
 10 16  1  0  0  0  0
 11 19  1  0  0  0  0
 12 21  1  0  0  0  0
 13 17  1  0  0  0  0
 13 18  2  0  0  0  0
 14 16  2  0  0  0  0
 14 17  1  0  0  0  0
 14 20  1  0  0  0  0
 15 20  1  0  0  0  0
  1 22  1  0  0  0  0
  2 23  1  0  0  0  0
  3 24  1  0  0  0  0
  4 25  1  0  0  0  0
  5 26  1  0  0  0  0
  6 27  1  0  0  0  0
  7 28  1  0  0  0  0
 15 29  1  0  0  0  0
 15 30  1  0  0  0  0
 17 31  1  0  0  0  0
M  END
> <Hybrid2>
-12.537562

> <fragments>
x0678

> <site>
active-noncovalent

$$$$
top_hits_only_mpro-404_1
  -OEChem-03302021283D

 43 47  0     0  0  0  0  0  0999 V2000
   13.7530   -0.1150   22.1505 C   0  0  0  0  0  0  0  0  0  0  0  0
   13.2570    0.8175   23.0645 C   0  0  0  0  0  0  0  0  0  0  0  0
    6.0609    0.0691   17.8833 C   0  0  0  0  0  0  0  0  0  0  0  0
   13.0478   -1.2909   21.8651 C   0  0  0  0  0  0  0  0  0  0  0  0
   12.0417    0.6106   23.7254 C   0  0  0  0  0  0  0  0  0  0  0  0
    6.0420   -1.2887   18.2822 C   0  0  0  0  0  0  0  0  0  0  0  0
    6.3348    0.7968   19.0180 C   0  0  0  0  0  0  0  0  0  0  0  0
    8.7864   -3.1389   23.4716 C   0  0  0  0  0  0  0  0  0  0  0  0
    8.6848   -4.1649   24.4585 C   0  0  0  0  0  0  0  0  0  0  0  0
   11.8251   -1.5152   22.5201 C   0  0  0  0  0  0  0  0  0  0  0  0
   11.3567   -0.5674   23.4257 C   0  0  0  0  0  0  0  0  0  0  0  0
    6.3059   -1.2940   19.6322 C   0  0  0  0  0  0  0  0  0  0  0  0
    7.4466   -4.7777   24.4216 C   0  0  0  0  0  0  0  0  0  0  0  0
    7.6331   -3.0183   22.7265 C   0  0  0  0  0  0  0  0  0  0  0  0
    9.9682   -2.2804   23.2453 C   0  0  0  0  0  0  0  0  0  0  0  0
    6.4162   -2.3972   20.6020 C   0  0  0  0  0  0  0  0  0  0  0  0
    9.7368   -4.5541   25.4504 C   0  0  0  0  0  0  0  0  0  0  0  0
    7.0208   -5.9094   25.3036 C   0  0  0  0  0  0  0  0  0  0  0  0
    9.4410   -5.9206   26.0882 C   0  0  0  0  0  0  0  0  0  0  0  0
    7.9684   -6.0428   26.5063 C   0  0  0  0  0  0  0  0  0  0  0  0
   10.9494   -2.5720   22.4211 N   0  0  0  0  0  0  0  0  0  0  0  0
   10.1676   -1.0828   23.8740 N   0  0  0  0  0  0  0  0  0  0  0  0
    7.3017   -2.1777   21.6979 N   0  0  0  0  0  0  0  0  0  0  0  0
    5.7985   -3.4473   20.4386 O   0  0  0  0  0  0  0  0  0  0  0  0
    6.4857   -0.0267   20.0884 O   0  0  0  0  0  0  0  0  0  0  0  0
    6.4313   -4.1363   23.2150 S   0  0  0  0  0  0  0  0  0  0  0  0
   14.7005    0.0741   21.6524 H   0  0  0  0  0  0  0  0  0  0  0  0
   13.8257    1.7220   23.2667 H   0  0  0  0  0  0  0  0  0  0  0  0
    5.8949    0.4676   16.8930 H   0  0  0  0  0  0  0  0  0  0  0  0
   13.4413   -2.0093   21.1533 H   0  0  0  0  0  0  0  0  0  0  0  0
   11.6548    1.3330   24.4353 H   0  0  0  0  0  0  0  0  0  0  0  0
    5.8582   -2.1530   17.6598 H   0  0  0  0  0  0  0  0  0  0  0  0
    6.4486    1.8518   19.2203 H   0  0  0  0  0  0  0  0  0  0  0  0
   10.7238   -4.5861   24.9752 H   0  0  0  0  0  0  0  0  0  0  0  0
    9.7756   -3.7894   26.2362 H   0  0  0  0  0  0  0  0  0  0  0  0
    5.9953   -5.7659   25.6625 H   0  0  0  0  0  0  0  0  0  0  0  0
    7.0417   -6.8392   24.7217 H   0  0  0  0  0  0  0  0  0  0  0  0
    9.6775   -6.7192   25.3733 H   0  0  0  0  0  0  0  0  0  0  0  0
   10.0907   -6.0666   26.9583 H   0  0  0  0  0  0  0  0  0  0  0  0
    7.7396   -5.2610   27.2420 H   0  0  0  0  0  0  0  0  0  0  0  0
    7.7976   -7.0060   27.0003 H   0  0  0  0  0  0  0  0  0  0  0  0
    9.5507   -0.6511   24.5494 H   0  0  0  0  0  0  0  0  0  0  0  0
    7.7608   -1.2471   21.7189 H   0  0  0  0  0  0  0  0  0  0  0  0
  1  2  2  0  0  0  0
  1  4  1  0  0  0  0
  2  5  1  0  0  0  0
  3  6  1  0  0  0  0
  3  7  2  0  0  0  0
  4 10  2  0  0  0  0
  5 11  2  0  0  0  0
  6 12  2  0  0  0  0
  7 25  1  0  0  0  0
  8  9  1  0  0  0  0
  8 14  2  0  0  0  0
  8 15  1  0  0  0  0
  9 13  2  0  0  0  0
  9 17  1  0  0  0  0
 10 11  1  0  0  0  0
 10 21  1  0  0  0  0
 11 22  1  0  0  0  0
 12 16  1  0  0  0  0
 12 25  1  0  0  0  0
 13 18  1  0  0  0  0
 13 26  1  0  0  0  0
 14 23  1  0  0  0  0
 14 26  1  0  0  0  0
 15 21  2  0  0  0  0
 15 22  1  0  0  0  0
 16 23  1  0  0  0  0
 16 24  2  0  0  0  0
 17 19  1  0  0  0  0
 18 20  1  0  0  0  0
 19 20  1  0  0  0  0
  1 27  1  0  0  0  0
  2 28  1  0  0  0  0
  3 29  1  0  0  0  0
  4 30  1  0  0  0  0
  5 31  1  0  0  0  0
  6 32  1  0  0  0  0
  7 33  1  0  0  0  0
 17 34  1  0  0  0  0
 17 35  1  0  0  0  0
 18 36  1  0  0  0  0
 18 37  1  0  0  0  0
 19 38  1  0  0  0  0
 19 39  1  0  0  0  0
 20 40  1  0  0  0  0
 20 41  1  0  0  0  0
 22 42  1  0  0  0  0
 23 43  1  0  0  0  0
M  END
> <Hybrid2>
-12.507226

> <fragments>
x0831

> <site>
active-covalent

$$$$
top_hits_only_mpro-225_1
  -OEChem-03302021283D

 49 52  0     0  0  0  0  0  0999 V2000
    8.5570   -4.2037   23.2418 C   0  0  0  0  0  0  0  0  0  0  0  0
    5.7790    1.2003   18.7697 C   0  0  0  0  0  0  0  0  0  0  0  0
    6.2904    0.8356   20.0102 C   0  0  0  0  0  0  0  0  0  0  0  0
    6.5618    0.9649   17.6509 C   0  0  0  0  0  0  0  0  0  0  0  0
    8.2544    0.0617   18.9149 C   0  0  0  0  0  0  0  0  0  0  0  0
    7.5510    0.2550   20.0929 C   0  0  0  0  0  0  0  0  0  0  0  0
    9.6527   -0.0762   21.4664 C   0  0  0  0  0  0  0  0  0  0  0  0
   14.1432   -0.7876   24.1836 C   0  0  0  0  0  0  0  0  0  0  0  0
   14.4256   -0.0555   21.8016 C   0  0  0  0  0  0  0  0  0  0  0  0
   14.2796   -2.4974   22.3538 C   0  0  0  0  0  0  0  0  0  0  0  0
   12.2523    0.3439   22.9868 C   0  0  0  0  0  0  0  0  0  0  0  0
   12.1063   -2.1005   23.5397 C   0  0  0  0  0  0  0  0  0  0  0  0
   12.3892   -1.3679   21.1539 C   0  0  0  0  0  0  0  0  0  0  0  0
   13.7809    0.2954   23.1534 C   0  0  0  0  0  0  0  0  0  0  0  0
   13.6343   -2.1590   23.7084 C   0  0  0  0  0  0  0  0  0  0  0  0
   13.9183   -1.4232   21.3138 C   0  0  0  0  0  0  0  0  0  0  0  0
   11.7203   -1.0230   22.5021 C   0  0  0  0  0  0  0  0  0  0  0  0
    9.3217   -3.2390   22.4375 C   0  0  0  0  0  0  0  0  0  0  0  0
    8.1336   -0.1523   21.4240 C   0  0  0  0  0  0  0  0  0  0  0  0
    9.5255   -1.9186   23.1728 C   0  0  0  0  0  0  0  0  0  0  0  0
    7.9537   -4.9664   23.8748 N   0  0  0  0  0  0  0  0  0  0  0  0
    7.7907    0.4030   17.6917 N   0  0  0  0  0  0  0  0  0  0  0  0
   10.2828   -0.9740   22.3495 N   0  0  0  0  0  0  0  0  0  0  0  0
   10.2627    0.7312   20.7598 O   0  0  0  0  0  0  0  0  0  0  0  0
    4.7986    1.6541   18.6813 H   0  0  0  0  0  0  0  0  0  0  0  0
    5.7001    1.0074   20.9062 H   0  0  0  0  0  0  0  0  0  0  0  0
    6.2081    1.2316   16.6604 H   0  0  0  0  0  0  0  0  0  0  0  0
    9.2429   -0.3870   18.9169 H   0  0  0  0  0  0  0  0  0  0  0  0
   15.2303   -0.8205   24.3257 H   0  0  0  0  0  0  0  0  0  0  0  0
   13.7025   -0.5411   25.1574 H   0  0  0  0  0  0  0  0  0  0  0  0
   14.1881    0.7183   21.0611 H   0  0  0  0  0  0  0  0  0  0  0  0
   15.5178   -0.0758   21.9018 H   0  0  0  0  0  0  0  0  0  0  0  0
   15.3693   -2.5601   22.4637 H   0  0  0  0  0  0  0  0  0  0  0  0
   13.9371   -3.4814   22.0111 H   0  0  0  0  0  0  0  0  0  0  0  0
   11.7895    0.6157   23.9446 H   0  0  0  0  0  0  0  0  0  0  0  0
   11.9872    1.1314   22.2692 H   0  0  0  0  0  0  0  0  0  0  0  0
   11.7353   -3.0841   23.2232 H   0  0  0  0  0  0  0  0  0  0  0  0
   11.6395   -1.8806   24.5087 H   0  0  0  0  0  0  0  0  0  0  0  0
   12.1273   -0.6181   20.3962 H   0  0  0  0  0  0  0  0  0  0  0  0
   12.0258   -2.3357   20.7841 H   0  0  0  0  0  0  0  0  0  0  0  0
   14.1474    1.2693   23.4965 H   0  0  0  0  0  0  0  0  0  0  0  0
   13.8960   -2.9265   24.4452 H   0  0  0  0  0  0  0  0  0  0  0  0
   14.3825   -1.6686   20.3521 H   0  0  0  0  0  0  0  0  0  0  0  0
    8.7788   -3.0458   21.5049 H   0  0  0  0  0  0  0  0  0  0  0  0
   10.2894   -3.6741   22.1615 H   0  0  0  0  0  0  0  0  0  0  0  0
    7.8222   -1.1796   21.6478 H   0  0  0  0  0  0  0  0  0  0  0  0
    7.7206    0.4981   22.2044 H   0  0  0  0  0  0  0  0  0  0  0  0
    8.5520   -1.4742   23.4047 H   0  0  0  0  0  0  0  0  0  0  0  0
   10.0520   -2.0766   24.1206 H   0  0  0  0  0  0  0  0  0  0  0  0
  1 18  1  0  0  0  0
  1 21  3  0  0  0  0
  2  3  2  0  0  0  0
  2  4  1  0  0  0  0
  3  6  1  0  0  0  0
  4 22  2  0  0  0  0
  5  6  2  0  0  0  0
  5 22  1  0  0  0  0
  6 19  1  0  0  0  0
  7 19  1  0  0  0  0
  7 23  1  0  0  0  0
  7 24  2  0  0  0  0
  8 14  1  0  0  0  0
  8 15  1  0  0  0  0
  9 14  1  0  0  0  0
  9 16  1  0  0  0  0
 10 15  1  0  0  0  0
 10 16  1  0  0  0  0
 11 14  1  0  0  0  0
 11 17  1  0  0  0  0
 12 15  1  0  0  0  0
 12 17  1  0  0  0  0
 13 16  1  0  0  0  0
 13 17  1  0  0  0  0
 17 23  1  0  0  0  0
 18 20  1  0  0  0  0
 20 23  1  0  0  0  0
  2 25  1  0  0  0  0
  3 26  1  0  0  0  0
  4 27  1  0  0  0  0
  5 28  1  0  0  0  0
  8 29  1  0  0  0  0
  8 30  1  0  0  0  0
  9 31  1  0  0  0  0
  9 32  1  0  0  0  0
 10 33  1  0  0  0  0
 10 34  1  0  0  0  0
 11 35  1  0  0  0  0
 11 36  1  0  0  0  0
 12 37  1  0  0  0  0
 12 38  1  0  0  0  0
 13 39  1  0  0  0  0
 13 40  1  0  0  0  0
 14 41  1  0  0  0  0
 15 42  1  0  0  0  0
 16 43  1  0  0  0  0
 18 44  1  0  0  0  0
 18 45  1  0  0  0  0
 19 46  1  0  0  0  0
 19 47  1  0  0  0  0
 20 48  1  0  0  0  0
 20 49  1  0  0  0  0
M  END
> <Hybrid2>
-12.433633

> <fragments>
x0678

> <site>
active-noncovalent

$$$$
top_hits_only_mpro-123_1
  -OEChem-03302021283D

 46 49  0     1  0  0  0  0  0999 V2000
    7.7353    0.0357   25.5545 C   0  0  0  0  0  0  0  0  0  0  0  0
   13.2058   -1.7139   22.5933 C   0  0  0  0  0  0  0  0  0  0  0  0
    7.4550   -1.1238   24.8317 C   0  0  0  0  0  0  0  0  0  0  0  0
    8.2285    1.1640   24.8991 C   0  0  0  0  0  0  0  0  0  0  0  0
   12.0303   -2.4306   22.8173 C   0  0  0  0  0  0  0  0  0  0  0  0
   13.1868   -0.5788   21.7827 C   0  0  0  0  0  0  0  0  0  0  0  0
    7.6678   -1.1551   23.4535 C   0  0  0  0  0  0  0  0  0  0  0  0
    8.4413    1.1327   23.5209 C   0  0  0  0  0  0  0  0  0  0  0  0
   10.8359   -2.0124   22.2306 C   0  0  0  0  0  0  0  0  0  0  0  0
   11.9924   -0.1606   21.1960 C   0  0  0  0  0  0  0  0  0  0  0  0
    6.4485    0.6986   17.9087 C   0  0  0  0  0  0  0  0  0  0  0  0
    7.4961    0.2715   20.3190 C   0  0  0  0  0  0  0  0  0  0  0  0
    8.1610   -0.0268   22.7981 C   0  0  0  0  0  0  0  0  0  0  0  0
   10.8170   -0.8774   21.4200 C   0  0  0  0  0  0  0  0  0  0  0  0
    8.3807   -0.0589   21.3775 C   0  0  0  0  0  0  0  0  0  0  0  0
    9.5781   -0.4434   20.8124 C   0  0  0  0  0  0  0  0  0  0  0  0
    8.1922    0.0741   19.1328 C   0  0  0  0  0  0  0  0  0  0  0  0
    6.1803    0.7176   20.2045 C   0  0  0  0  0  0  0  0  0  0  0  0
    4.6402    2.4819   23.7071 C   0  0  0  0  0  0  0  0  0  0  0  0
    4.2207    1.7770   21.3286 C   0  0  0  0  0  0  0  0  0  0  0  0
    4.4070    2.9569   22.2792 C   0  0  2  0  0  0  0  0  0  0  0  0
    7.7267    0.2692   17.8867 N   0  0  0  0  0  0  0  0  0  0  0  0
    5.6534    0.9330   18.9770 N   0  0  0  0  0  0  0  0  0  0  0  0
    9.4521   -0.3597   19.4494 N   0  0  0  0  0  0  0  0  0  0  0  0
    5.3895    0.9498   21.3450 N   0  0  0  0  0  0  0  0  0  0  0  0
    5.5441    3.7074   21.8568 O   0  0  0  0  0  0  0  0  0  0  0  0
    7.5687    0.0606   26.6274 H   0  0  0  0  0  0  0  0  0  0  0  0
   14.1356   -2.0392   23.0506 H   0  0  0  0  0  0  0  0  0  0  0  0
    7.0699   -2.0020   25.3415 H   0  0  0  0  0  0  0  0  0  0  0  0
    8.4455    2.0671   25.4619 H   0  0  0  0  0  0  0  0  0  0  0  0
   12.0454   -3.3145   23.4484 H   0  0  0  0  0  0  0  0  0  0  0  0
   14.1019   -0.0201   21.6092 H   0  0  0  0  0  0  0  0  0  0  0  0
    7.4444   -2.0666   22.9039 H   0  0  0  0  0  0  0  0  0  0  0  0
    8.8262    2.0207   23.0248 H   0  0  0  0  0  0  0  0  0  0  0  0
    9.9276   -2.5804   22.4170 H   0  0  0  0  0  0  0  0  0  0  0  0
   11.9944    0.7255   20.5659 H   0  0  0  0  0  0  0  0  0  0  0  0
    5.9957    0.8804   16.9398 H   0  0  0  0  0  0  0  0  0  0  0  0
    5.5078    1.8180   23.7689 H   0  0  0  0  0  0  0  0  0  0  0  0
    4.7971    3.3307   24.3820 H   0  0  0  0  0  0  0  0  0  0  0  0
    3.7628    1.9422   24.0796 H   0  0  0  0  0  0  0  0  0  0  0  0
    3.3591    1.1699   21.6264 H   0  0  0  0  0  0  0  0  0  0  0  0
    4.0563    2.1275   20.3044 H   0  0  0  0  0  0  0  0  0  0  0  0
    3.5340    3.6189   22.2461 H   0  0  0  0  0  0  0  0  0  0  0  0
   10.1733   -0.5837   18.7773 H   0  0  0  0  0  0  0  0  0  0  0  0
    5.6765    0.5065   22.1989 H   0  0  0  0  0  0  0  0  0  0  0  0
    5.6228    4.4552   22.4686 H   0  0  0  0  0  0  0  0  0  0  0  0
  1  3  1  0  0  0  0
  1  4  2  0  0  0  0
  2  5  1  0  0  0  0
  2  6  2  0  0  0  0
  3  7  2  0  0  0  0
  4  8  1  0  0  0  0
  5  9  2  0  0  0  0
  6 10  1  0  0  0  0
  7 13  1  0  0  0  0
  8 13  2  0  0  0  0
  9 14  1  0  0  0  0
 10 14  2  0  0  0  0
 11 22  1  0  0  0  0
 11 23  2  0  0  0  0
 12 15  1  0  0  0  0
 12 17  1  0  0  0  0
 12 18  2  0  0  0  0
 13 15  1  0  0  0  0
 14 16  1  0  0  0  0
 15 16  2  0  0  0  0
 16 24  1  0  0  0  0
 17 22  2  0  0  0  0
 17 24  1  0  0  0  0
 18 23  1  0  0  0  0
 18 25  1  0  0  0  0
 19 21  1  0  0  0  0
 20 21  1  0  0  0  0
 20 25  1  0  0  0  0
 21 26  1  0  0  0  0
  1 27  1  0  0  0  0
  2 28  1  0  0  0  0
  3 29  1  0  0  0  0
  4 30  1  0  0  0  0
  5 31  1  0  0  0  0
  6 32  1  0  0  0  0
  7 33  1  0  0  0  0
  8 34  1  0  0  0  0
  9 35  1  0  0  0  0
 10 36  1  0  0  0  0
 11 37  1  0  0  0  0
 19 38  1  0  0  0  0
 19 39  1  0  0  0  0
 19 40  1  0  0  0  0
 20 41  1  0  0  0  0
 20 42  1  0  0  0  0
 21 43  1  0  0  0  0
 24 44  1  0  0  0  0
 25 45  1  0  0  0  0
 26 46  1  0  0  0  0
M  END
> <Hybrid2>
-12.269093

> <fragments>
x0678

> <site>
active-noncovalent

$$$$
top_hits_only_mpro-393_1
  -OEChem-03302021283D

 38 40  0     1  0  0  0  0  0999 V2000
    8.0136   -3.8751   24.9685 C   0  0  0  0  0  0  0  0  0  0  0  0
    8.1957   -2.4959   25.0696 C   0  0  0  0  0  0  0  0  0  0  0  0
    8.5918   -4.5794   23.9124 C   0  0  0  0  0  0  0  0  0  0  0  0
    5.6855    0.6100   18.8134 C   0  0  0  0  0  0  0  0  0  0  0  0
    6.3830    0.2934   19.9738 C   0  0  0  0  0  0  0  0  0  0  0  0
    8.9561   -1.8209   24.1147 C   0  0  0  0  0  0  0  0  0  0  0  0
    9.3522   -3.9044   22.9574 C   0  0  0  0  0  0  0  0  0  0  0  0
    6.3567    0.5096   17.6054 C   0  0  0  0  0  0  0  0  0  0  0  0
   11.7785    1.1709   23.5217 C   0  0  0  0  0  0  0  0  0  0  0  0
    8.2921   -0.1766   18.6357 C   0  0  0  0  0  0  0  0  0  0  0  0
   12.9306    0.5894   23.0473 C   0  0  0  0  0  0  0  0  0  0  0  0
    7.7116   -0.1082   19.8920 C   0  0  0  0  0  0  0  0  0  0  0  0
    9.5343   -2.5252   23.0586 C   0  0  0  0  0  0  0  0  0  0  0  0
   11.1593   -0.6382   22.5867 C   0  0  0  0  0  0  0  0  0  0  0  0
    8.4823   -0.4524   21.1146 C   0  0  0  0  0  0  0  0  0  0  0  0
   13.3753   -1.5318   21.8008 C   0  0  0  0  0  0  0  0  0  0  0  0
   10.3473   -1.8041   22.0370 C   0  0  2  0  0  0  0  0  0  0  0  0
    7.6467    0.1231   17.4863 N   0  0  0  0  0  0  0  0  0  0  0  0
   10.6794    0.4016   23.2320 N   0  0  0  0  0  0  0  0  0  0  0  0
   12.5180   -0.5689   22.4512 N   0  0  0  0  0  0  0  0  0  0  0  0
    9.5053   -1.3426   20.9178 N   0  0  0  0  0  0  0  0  0  0  0  0
    8.1565    0.0453   22.1891 O   0  0  0  0  0  0  0  0  0  0  0  0
    7.4226   -4.4006   25.7129 H   0  0  0  0  0  0  0  0  0  0  0  0
    7.7465   -1.9475   25.8925 H   0  0  0  0  0  0  0  0  0  0  0  0
    8.4511   -5.6533   23.8339 H   0  0  0  0  0  0  0  0  0  0  0  0
    4.6490    0.9248   18.8528 H   0  0  0  0  0  0  0  0  0  0  0  0
    5.8823    0.3637   20.9358 H   0  0  0  0  0  0  0  0  0  0  0  0
    9.0925   -0.7462   24.2014 H   0  0  0  0  0  0  0  0  0  0  0  0
    9.7988   -4.4613   22.1380 H   0  0  0  0  0  0  0  0  0  0  0  0
    5.8573    0.7458   16.6717 H   0  0  0  0  0  0  0  0  0  0  0  0
   11.6845    2.1043   24.0572 H   0  0  0  0  0  0  0  0  0  0  0  0
    9.3257   -0.4843   18.5083 H   0  0  0  0  0  0  0  0  0  0  0  0
   13.9687    0.8891   23.0817 H   0  0  0  0  0  0  0  0  0  0  0  0
   13.6919   -2.2620   22.5502 H   0  0  0  0  0  0  0  0  0  0  0  0
   12.8237   -2.0250   20.9956 H   0  0  0  0  0  0  0  0  0  0  0  0
   14.2419   -1.0162   21.3776 H   0  0  0  0  0  0  0  0  0  0  0  0
   11.0608   -2.4978   21.5558 H   0  0  0  0  0  0  0  0  0  0  0  0
    9.6924   -1.7701   20.0313 H   0  0  0  0  0  0  0  0  0  0  0  0
  1  2  1  0  0  0  0
  1  3  2  0  0  0  0
  2  6  2  0  0  0  0
  3  7  1  0  0  0  0
  4  5  2  0  0  0  0
  4  8  1  0  0  0  0
  5 12  1  0  0  0  0
  6 13  1  0  0  0  0
  7 13  2  0  0  0  0
  8 18  2  0  0  0  0
  9 11  2  0  0  0  0
  9 19  1  0  0  0  0
 10 12  2  0  0  0  0
 10 18  1  0  0  0  0
 11 20  1  0  0  0  0
 12 15  1  0  0  0  0
 13 17  1  0  0  0  0
 14 17  1  0  0  0  0
 14 19  2  0  0  0  0
 14 20  1  0  0  0  0
 15 21  1  0  0  0  0
 15 22  2  0  0  0  0
 16 20  1  0  0  0  0
 17 21  1  0  0  0  0
  1 23  1  0  0  0  0
  2 24  1  0  0  0  0
  3 25  1  0  0  0  0
  4 26  1  0  0  0  0
  5 27  1  0  0  0  0
  6 28  1  0  0  0  0
  7 29  1  0  0  0  0
  8 30  1  0  0  0  0
  9 31  1  0  0  0  0
 10 32  1  0  0  0  0
 11 33  1  0  0  0  0
 16 34  1  0  0  0  0
 16 35  1  0  0  0  0
 16 36  1  0  0  0  0
 17 37  1  0  0  0  0
 21 38  1  0  0  0  0
M  END
> <Hybrid2>
-12.258639

> <fragments>
x0678

> <site>
active-noncovalent

$$$$
top_hits_only_mpro-508_1
  -OEChem-03302021283D

 48 52  0     1  0  0  0  0  0999 V2000
    9.7388    6.0978   24.3049 C   0  0  0  0  0  0  0  0  0  0  0  0
    8.3667   -4.9967   24.3785 C   0  0  0  0  0  0  0  0  0  0  0  0
   10.7255    5.4164   23.5925 C   0  0  0  0  0  0  0  0  0  0  0  0
    8.7619    5.3845   24.9997 C   0  0  0  0  0  0  0  0  0  0  0  0
    7.4608   -5.5229   23.4642 C   0  0  0  0  0  0  0  0  0  0  0  0
    5.0090    0.9614   19.3518 C   0  0  0  0  0  0  0  0  0  0  0  0
    8.7569   -3.6656   24.2697 C   0  0  0  0  0  0  0  0  0  0  0  0
    5.5123    0.1901   20.3935 C   0  0  0  0  0  0  0  0  0  0  0  0
   10.7353    4.0217   23.5746 C   0  0  0  0  0  0  0  0  0  0  0  0
    8.7717    3.9898   24.9818 C   0  0  0  0  0  0  0  0  0  0  0  0
    6.9470   -4.7174   22.4437 C   0  0  0  0  0  0  0  0  0  0  0  0
    5.7107    0.9748   18.1571 C   0  0  0  0  0  0  0  0  0  0  0  0
    7.3119   -0.4536   18.9781 C   0  0  0  0  0  0  0  0  0  0  0  0
    8.2357   -2.8622   23.2407 C   0  0  0  0  0  0  0  0  0  0  0  0
    6.6853   -0.5338   20.2113 C   0  0  0  0  0  0  0  0  0  0  0  0
    9.7585    3.3083   24.2693 C   0  0  0  0  0  0  0  0  0  0  0  0
    7.3200   -3.3821   22.3113 C   0  0  0  0  0  0  0  0  0  0  0  0
    8.5843   -1.5245   23.0763 C   0  0  0  0  0  0  0  0  0  0  0  0
    7.2317   -1.3411   21.2709 C   0  0  0  0  0  0  0  0  0  0  0  0
   10.7090    1.1380   23.5709 C   0  0  0  0  0  0  0  0  0  0  0  0
    9.7684    1.8257   24.2506 C   0  0  0  0  0  0  0  0  0  0  0  0
   10.7589   -0.3661   23.5108 C   0  0  0  0  0  0  0  0  0  0  0  0
    8.6751    1.1001   25.0117 C   0  0  0  0  0  0  0  0  0  0  0  0
    8.9915   -0.3875   25.2251 C   0  0  0  0  0  0  0  0  0  0  0  0
    6.8532    0.2848   17.9427 N   0  0  0  0  0  0  0  0  0  0  0  0
    6.8151   -2.6225   21.3234 N   0  0  0  0  0  0  0  0  0  0  0  0
    8.0983   -0.7361   22.0990 N   0  0  0  0  0  0  0  0  0  0  0  0
    9.4877   -0.9401   23.9613 N   0  0  1  0  0  0  0  0  0  0  0  0
    9.7319    7.1837   24.3199 H   0  0  0  0  0  0  0  0  0  0  0  0
    8.7675   -5.6217   25.1705 H   0  0  0  0  0  0  0  0  0  0  0  0
   11.4869    5.9716   23.0524 H   0  0  0  0  0  0  0  0  0  0  0  0
    7.9943    5.9149   25.5555 H   0  0  0  0  0  0  0  0  0  0  0  0
    7.1512   -6.5612   23.5417 H   0  0  0  0  0  0  0  0  0  0  0  0
    4.0960    1.5334   19.4701 H   0  0  0  0  0  0  0  0  0  0  0  0
    9.4663   -3.2776   24.9959 H   0  0  0  0  0  0  0  0  0  0  0  0
    4.9802    0.1629   21.3412 H   0  0  0  0  0  0  0  0  0  0  0  0
   11.5109    3.5046   23.0146 H   0  0  0  0  0  0  0  0  0  0  0  0
    8.0035    3.4479   25.5283 H   0  0  0  0  0  0  0  0  0  0  0  0
    6.2400   -5.1537   21.7404 H   0  0  0  0  0  0  0  0  0  0  0  0
    5.3599    1.5611   17.3138 H   0  0  0  0  0  0  0  0  0  0  0  0
    8.2304   -0.9955   18.7713 H   0  0  0  0  0  0  0  0  0  0  0  0
   11.4798    1.6659   23.0261 H   0  0  0  0  0  0  0  0  0  0  0  0
   10.9572   -0.6725   22.4795 H   0  0  0  0  0  0  0  0  0  0  0  0
   11.5849   -0.7133   24.1394 H   0  0  0  0  0  0  0  0  0  0  0  0
    8.5338    1.5645   25.9962 H   0  0  0  0  0  0  0  0  0  0  0  0
    7.7285    1.2081   24.4661 H   0  0  0  0  0  0  0  0  0  0  0  0
    9.7456   -0.5147   26.0109 H   0  0  0  0  0  0  0  0  0  0  0  0
    8.0791   -0.8977   25.5533 H   0  0  0  0  0  0  0  0  0  0  0  0
  1  3  1  0  0  0  0
  1  4  2  0  0  0  0
  2  5  1  0  0  0  0
  2  7  2  0  0  0  0
  3  9  2  0  0  0  0
  4 10  1  0  0  0  0
  5 11  2  0  0  0  0
  6  8  2  0  0  0  0
  6 12  1  0  0  0  0
  7 14  1  0  0  0  0
  8 15  1  0  0  0  0
  9 16  1  0  0  0  0
 10 16  2  0  0  0  0
 11 17  1  0  0  0  0
 12 25  2  0  0  0  0
 13 15  2  0  0  0  0
 13 25  1  0  0  0  0
 14 17  1  0  0  0  0
 14 18  2  0  0  0  0
 15 19  1  0  0  0  0
 16 21  1  0  0  0  0
 17 26  2  0  0  0  0
 18 27  1  0  0  0  0
 18 28  1  0  0  0  0
 19 26  1  0  0  0  0
 19 27  2  0  0  0  0
 20 21  2  0  0  0  0
 20 22  1  0  0  0  0
 21 23  1  0  0  0  0
 22 28  1  0  0  0  0
 23 24  1  0  0  0  0
 24 28  1  0  0  0  0
  1 29  1  0  0  0  0
  2 30  1  0  0  0  0
  3 31  1  0  0  0  0
  4 32  1  0  0  0  0
  5 33  1  0  0  0  0
  6 34  1  0  0  0  0
  7 35  1  0  0  0  0
  8 36  1  0  0  0  0
  9 37  1  0  0  0  0
 10 38  1  0  0  0  0
 11 39  1  0  0  0  0
 12 40  1  0  0  0  0
 13 41  1  0  0  0  0
 20 42  1  0  0  0  0
 22 43  1  0  0  0  0
 22 44  1  0  0  0  0
 23 45  1  0  0  0  0
 23 46  1  0  0  0  0
 24 47  1  0  0  0  0
 24 48  1  0  0  0  0
M  END
> <Hybrid2>
-12.257722

> <fragments>
x0107

> <site>
active-noncovalent

$$$$
top_hits_only_mpro-112_1
  -OEChem-03302021283D

 40 42  0     1  0  0  0  0  0999 V2000
    9.9459   -2.1764   23.1468 C   0  0  0  0  0  0  0  0  0  0  0  0
    9.5699   -3.1947   24.0221 C   0  0  0  0  0  0  0  0  0  0  0  0
    8.3474   -1.5949   25.3479 C   0  0  0  0  0  0  0  0  0  0  0  0
    9.5245   -0.8521   23.3577 C   0  0  0  0  0  0  0  0  0  0  0  0
    8.7110   -0.5612   24.4697 C   0  0  0  0  0  0  0  0  0  0  0  0
    8.7702   -2.9040   25.1223 C   0  0  0  0  0  0  0  0  0  0  0  0
    7.2807    0.3362   18.9550 C   0  0  0  0  0  0  0  0  0  0  0  0
    6.8736    0.5130   20.3650 C   0  0  0  0  0  0  0  0  0  0  0  0
    5.6375    0.9953   20.5313 C   0  0  0  0  0  0  0  0  0  0  0  0
    4.7767    1.3143   19.3629 C   0  0  0  0  0  0  0  0  0  0  0  0
    8.2724    0.8456   24.7905 C   0  0  0  0  0  0  0  0  0  0  0  0
    8.4171    1.8144   23.6207 C   0  0  0  0  0  0  0  0  0  0  0  0
    9.7725    1.6382   22.9469 C   0  0  0  0  0  0  0  0  0  0  0  0
    9.9381    0.2228   22.3694 C   0  0  2  0  0  0  0  0  0  0  0  0
    8.8777   -5.2103   25.6928 C   0  0  0  0  0  0  0  0  0  0  0  0
    9.1660    0.0675   21.0529 C   0  0  0  0  0  0  0  0  0  0  0  0
    6.5752    0.5963   17.9056 N   0  0  0  0  0  0  0  0  0  0  0  0
    5.3318    1.0823   18.1247 N   0  0  0  0  0  0  0  0  0  0  0  0
    7.7708    0.1773   21.3043 N   0  0  0  0  0  0  0  0  0  0  0  0
    3.6390    1.7582   19.5069 O   0  0  0  0  0  0  0  0  0  0  0  0
    8.4052   -3.8950   25.9805 O   0  0  0  0  0  0  0  0  0  0  0  0
    4.9686    1.2762   22.0969 Cl  0  0  0  0  0  0  0  0  0  0  0  0
   10.5727   -2.4216   22.2925 H   0  0  0  0  0  0  0  0  0  0  0  0
    9.9060   -4.2116   23.8394 H   0  0  0  0  0  0  0  0  0  0  0  0
    7.7321   -1.3749   26.2179 H   0  0  0  0  0  0  0  0  0  0  0  0
    8.2980   -0.0611   18.7994 H   0  0  0  0  0  0  0  0  0  0  0  0
    7.2258    0.8449   25.1182 H   0  0  0  0  0  0  0  0  0  0  0  0
    8.8801    1.2047   25.6309 H   0  0  0  0  0  0  0  0  0  0  0  0
    7.6107    1.6505   22.8962 H   0  0  0  0  0  0  0  0  0  0  0  0
    8.3091    2.8429   23.9836 H   0  0  0  0  0  0  0  0  0  0  0  0
    9.9014    2.3904   22.1598 H   0  0  0  0  0  0  0  0  0  0  0  0
   10.5630    1.8220   23.6868 H   0  0  0  0  0  0  0  0  0  0  0  0
   11.0061    0.0923   22.1484 H   0  0  0  0  0  0  0  0  0  0  0  0
    8.5139   -5.9038   26.4549 H   0  0  0  0  0  0  0  0  0  0  0  0
    9.9705   -5.2104   25.6766 H   0  0  0  0  0  0  0  0  0  0  0  0
    8.5007   -5.5173   24.7143 H   0  0  0  0  0  0  0  0  0  0  0  0
    9.5049    0.8610   20.3923 H   0  0  0  0  0  0  0  0  0  0  0  0
    9.4128   -0.9135   20.6558 H   0  0  0  0  0  0  0  0  0  0  0  0
    4.8014    1.2772   17.2814 H   0  0  0  0  0  0  0  0  0  0  0  0
    7.3903   -0.0023   22.2457 H   0  0  0  0  0  0  0  0  0  0  0  0
  1  2  2  0  0  0  0
  1  4  1  0  0  0  0
  2  6  1  0  0  0  0
  3  5  1  0  0  0  0
  3  6  2  0  0  0  0
  4  5  2  0  0  0  0
  4 14  1  0  0  0  0
  5 11  1  0  0  0  0
  6 21  1  0  0  0  0
  7  8  1  0  0  0  0
  7 17  2  0  0  0  0
  8  9  2  0  0  0  0
  8 19  1  0  0  0  0
  9 10  1  0  0  0  0
  9 22  1  0  0  0  0
 10 18  1  0  0  0  0
 10 20  2  0  0  0  0
 11 12  1  0  0  0  0
 12 13  1  0  0  0  0
 13 14  1  0  0  0  0
 14 16  1  0  0  0  0
 15 21  1  0  0  0  0
 16 19  1  0  0  0  0
 17 18  1  0  0  0  0
  1 23  1  0  0  0  0
  2 24  1  0  0  0  0
  3 25  1  0  0  0  0
  7 26  1  0  0  0  0
 11 27  1  0  0  0  0
 11 28  1  0  0  0  0
 12 29  1  0  0  0  0
 12 30  1  0  0  0  0
 13 31  1  0  0  0  0
 13 32  1  0  0  0  0
 14 33  1  0  0  0  0
 15 34  1  0  0  0  0
 15 35  1  0  0  0  0
 15 36  1  0  0  0  0
 16 37  1  0  0  0  0
 16 38  1  0  0  0  0
 18 39  1  0  0  0  0
 19 40  1  0  0  0  0
M  END
> <Hybrid2>
-12.222922

> <fragments>
x0107

> <site>
active-noncovalent

$$$$
top_hits_only_mpro-483_1
  -OEChem-03302021283D

 48 51  0     1  0  0  0  0  0999 V2000
    6.0008   -4.1874   27.3762 C   0  0  0  0  0  0  0  0  0  0  0  0
    3.6720    1.5803   20.9848 C   0  0  0  0  0  0  0  0  0  0  0  0
    4.5344    1.3522   22.0547 C   0  0  0  0  0  0  0  0  0  0  0  0
    7.2842   -4.7335   27.3577 C   0  0  0  0  0  0  0  0  0  0  0  0
    5.5487   -3.4317   26.2944 C   0  0  0  0  0  0  0  0  0  0  0  0
    4.0875    1.3056   19.6822 C   0  0  0  0  0  0  0  0  0  0  0  0
    5.8161    0.8484   21.8267 C   0  0  0  0  0  0  0  0  0  0  0  0
    8.1155   -4.5239   26.2574 C   0  0  0  0  0  0  0  0  0  0  0  0
    6.3800   -3.2221   25.1941 C   0  0  0  0  0  0  0  0  0  0  0  0
    5.8424    0.5059   18.1582 C   0  0  0  0  0  0  0  0  0  0  0  0
    7.8844   -0.1927   18.9439 C   0  0  0  0  0  0  0  0  0  0  0  0
    5.3751    0.7983   19.4410 C   0  0  0  0  0  0  0  0  0  0  0  0
    6.2510    0.5660   20.5215 C   0  0  0  0  0  0  0  0  0  0  0  0
    7.5297    0.0603   20.2602 C   0  0  0  0  0  0  0  0  0  0  0  0
    7.6634   -3.7682   25.1756 C   0  0  0  0  0  0  0  0  0  0  0  0
    8.5186   -0.2177   21.3091 C   0  0  0  0  0  0  0  0  0  0  0  0
    9.4326   -2.2685   24.1219 C   0  0  0  0  0  0  0  0  0  0  0  0
    8.7526   -0.9910   23.6392 C   0  0  0  0  0  0  0  0  0  0  0  0
    7.2662   -2.2784   22.1256 C   0  0  0  0  0  0  0  0  0  0  0  0
    8.5713   -3.5385   23.9731 C   0  0  2  0  0  0  0  0  0  0  0  0
    7.9074   -3.6000   22.5716 C   0  0  1  0  0  0  0  0  0  0  0  0
    6.9263   -4.7639   22.4149 C   0  0  0  0  0  0  0  0  0  0  0  0
    7.0733    0.0172   17.8853 N   0  0  0  0  0  0  0  0  0  0  0  0
    8.1885   -1.1484   22.3004 N   0  0  0  0  0  0  0  0  0  0  0  0
    9.5757    0.4071   21.2338 O   0  0  0  0  0  0  0  0  0  0  0  0
    7.5771   -5.9471   22.8297 O   0  0  0  0  0  0  0  0  0  0  0  0
    5.3532   -4.3518   28.2325 H   0  0  0  0  0  0  0  0  0  0  0  0
    2.6753    1.9725   21.1650 H   0  0  0  0  0  0  0  0  0  0  0  0
    4.2090    1.5671   23.0686 H   0  0  0  0  0  0  0  0  0  0  0  0
    7.6360   -5.3228   28.1994 H   0  0  0  0  0  0  0  0  0  0  0  0
    4.5492   -3.0073   26.3081 H   0  0  0  0  0  0  0  0  0  0  0  0
    3.4016    1.4895   18.8584 H   0  0  0  0  0  0  0  0  0  0  0  0
    6.4599    0.6840   22.6876 H   0  0  0  0  0  0  0  0  0  0  0  0
    9.1140   -4.9531   26.2517 H   0  0  0  0  0  0  0  0  0  0  0  0
    6.0193   -2.6319   24.3559 H   0  0  0  0  0  0  0  0  0  0  0  0
    5.2186    0.6614   17.2822 H   0  0  0  0  0  0  0  0  0  0  0  0
    8.8645   -0.5855   18.6883 H   0  0  0  0  0  0  0  0  0  0  0  0
   10.3841   -2.3996   23.5628 H   0  0  0  0  0  0  0  0  0  0  0  0
    9.7516   -2.1391   25.1791 H   0  0  0  0  0  0  0  0  0  0  0  0
    7.9745   -0.6926   24.3541 H   0  0  0  0  0  0  0  0  0  0  0  0
    9.4776   -0.1658   23.5922 H   0  0  0  0  0  0  0  0  0  0  0  0
    7.0237   -2.3230   21.0562 H   0  0  0  0  0  0  0  0  0  0  0  0
    6.3232   -2.1159   22.6550 H   0  0  0  0  0  0  0  0  0  0  0  0
    9.3051   -4.4077   24.0128 H   0  0  0  0  0  0  0  0  0  0  0  0
    8.7369   -3.8253   21.8321 H   0  0  0  0  0  0  0  0  0  0  0  0
    6.6335   -4.8521   21.3724 H   0  0  0  0  0  0  0  0  0  0  0  0
    6.0533   -4.5875   23.0372 H   0  0  0  0  0  0  0  0  0  0  0  0
    6.9425   -6.6777   22.7248 H   0  0  0  0  0  0  0  0  0  0  0  0
  1  4  1  0  0  0  0
  1  5  2  0  0  0  0
  2  3  1  0  0  0  0
  2  6  2  0  0  0  0
  3  7  2  0  0  0  0
  4  8  2  0  0  0  0
  5  9  1  0  0  0  0
  6 12  1  0  0  0  0
  7 13  1  0  0  0  0
  8 15  1  0  0  0  0
  9 15  2  0  0  0  0
 10 12  2  0  0  0  0
 10 23  1  0  0  0  0
 11 14  1  0  0  0  0
 11 23  2  0  0  0  0
 12 13  1  0  0  0  0
 13 14  2  0  0  0  0
 14 16  1  0  0  0  0
 15 20  1  0  0  0  0
 16 24  1  0  0  0  0
 16 25  2  0  0  0  0
 17 18  1  0  0  0  0
 17 20  1  0  0  0  0
 18 24  1  0  0  0  0
 19 21  1  0  0  0  0
 19 24  1  0  0  0  0
 20 21  1  0  0  0  0
 21 22  1  0  0  0  0
 22 26  1  0  0  0  0
  1 27  1  0  0  0  0
  2 28  1  0  0  0  0
  3 29  1  0  0  0  0
  4 30  1  0  0  0  0
  5 31  1  0  0  0  0
  6 32  1  0  0  0  0
  7 33  1  0  0  0  0
  8 34  1  0  0  0  0
  9 35  1  0  0  0  0
 10 36  1  0  0  0  0
 11 37  1  0  0  0  0
 17 38  1  0  0  0  0
 17 39  1  0  0  0  0
 18 40  1  0  0  0  0
 18 41  1  0  0  0  0
 19 42  1  0  0  0  0
 19 43  1  0  0  0  0
 20 44  1  0  0  0  0
 21 45  1  0  0  0  0
 22 46  1  0  0  0  0
 22 47  1  0  0  0  0
 26 48  1  0  0  0  0
M  END
> <Hybrid2>
-12.105143

> <fragments>
x0107

> <site>
active-noncovalent

$$$$
top_hits_only_mpro-506_1
  -OEChem-03302021283D

 40 42  0     0  0  0  0  0  0999 V2000
   13.9660   -1.2800   23.0524 C   0  0  0  0  0  0  0  0  0  0  0  0
    7.9704   -5.1361   23.9575 C   0  0  0  0  0  0  0  0  0  0  0  0
   13.1943   -1.0916   24.1989 C   0  0  0  0  0  0  0  0  0  0  0  0
   13.3456   -1.4909   21.8209 C   0  0  0  0  0  0  0  0  0  0  0  0
    8.3813   -4.2273   24.9325 C   0  0  0  0  0  0  0  0  0  0  0  0
    8.1159   -4.8225   22.6061 C   0  0  0  0  0  0  0  0  0  0  0  0
    5.5459    1.2560   18.9509 C   0  0  0  0  0  0  0  0  0  0  0  0
   11.8022   -1.1142   24.1141 C   0  0  0  0  0  0  0  0  0  0  0  0
   11.9535   -1.5136   21.7361 C   0  0  0  0  0  0  0  0  0  0  0  0
    8.9376   -3.0048   24.5563 C   0  0  0  0  0  0  0  0  0  0  0  0
    8.6722   -3.6000   22.2298 C   0  0  0  0  0  0  0  0  0  0  0  0
    6.0258    0.8220   20.1816 C   0  0  0  0  0  0  0  0  0  0  0  0
    6.2652    0.9142   17.8171 C   0  0  0  0  0  0  0  0  0  0  0  0
    7.8393   -0.2189   19.0485 C   0  0  0  0  0  0  0  0  0  0  0  0
   11.1818   -1.3252   22.8827 C   0  0  0  0  0  0  0  0  0  0  0  0
    9.0831   -2.6911   23.2049 C   0  0  0  0  0  0  0  0  0  0  0  0
    7.1939    0.0700   20.2400 C   0  0  0  0  0  0  0  0  0  0  0  0
    7.7369   -0.4136   21.5524 C   0  0  0  0  0  0  0  0  0  0  0  0
    9.6933   -1.3497   22.7913 C   0  0  0  0  0  0  0  0  0  0  0  0
    7.4037    0.1853   17.8342 N   0  0  0  0  0  0  0  0  0  0  0  0
    9.1345   -0.8781   21.4638 N   0  3  0  0  0  0  0  0  0  0  0  0
   15.0499   -1.2610   23.1183 H   0  0  0  0  0  0  0  0  0  0  0  0
    7.5384   -6.0886   24.2507 H   0  0  0  0  0  0  0  0  0  0  0  0
   13.6771   -0.9263   25.1576 H   0  0  0  0  0  0  0  0  0  0  0  0
   13.9461   -1.6366   20.9279 H   0  0  0  0  0  0  0  0  0  0  0  0
    8.2691   -4.4718   25.9848 H   0  0  0  0  0  0  0  0  0  0  0  0
    7.7971   -5.5303   21.8467 H   0  0  0  0  0  0  0  0  0  0  0  0
    4.6373    1.8431   18.8813 H   0  0  0  0  0  0  0  0  0  0  0  0
   11.2089   -0.9667   25.0127 H   0  0  0  0  0  0  0  0  0  0  0  0
   11.4789   -1.6787   20.7725 H   0  0  0  0  0  0  0  0  0  0  0  0
    9.2548   -2.3027   25.3229 H   0  0  0  0  0  0  0  0  0  0  0  0
    8.7816   -3.3642   21.1746 H   0  0  0  0  0  0  0  0  0  0  0  0
    5.4835    1.0739   21.0889 H   0  0  0  0  0  0  0  0  0  0  0  0
    5.9327    1.2289   16.8334 H   0  0  0  0  0  0  0  0  0  0  0  0
    8.7550   -0.8020   19.0316 H   0  0  0  0  0  0  0  0  0  0  0  0
    7.7167    0.3808   22.3061 H   0  0  0  0  0  0  0  0  0  0  0  0
    7.1498   -1.2543   21.9377 H   0  0  0  0  0  0  0  0  0  0  0  0
    9.2861   -0.5781   23.4728 H   0  0  0  0  0  0  0  0  0  0  0  0
    9.2130   -1.6521   20.8038 H   0  0  0  0  0  0  0  0  0  0  0  0
    9.7389   -0.1301   21.1229 H   0  0  0  0  0  0  0  0  0  0  0  0
  1  3  1  0  0  0  0
  1  4  2  0  0  0  0
  2  5  1  0  0  0  0
  2  6  2  0  0  0  0
  3  8  2  0  0  0  0
  4  9  1  0  0  0  0
  5 10  2  0  0  0  0
  6 11  1  0  0  0  0
  7 12  2  0  0  0  0
  7 13  1  0  0  0  0
  8 15  1  0  0  0  0
  9 15  2  0  0  0  0
 10 16  1  0  0  0  0
 11 16  2  0  0  0  0
 12 17  1  0  0  0  0
 13 20  2  0  0  0  0
 14 17  2  0  0  0  0
 14 20  1  0  0  0  0
 15 19  1  0  0  0  0
 16 19  1  0  0  0  0
 17 18  1  0  0  0  0
 18 21  1  0  0  0  0
 19 21  1  0  0  0  0
  1 22  1  0  0  0  0
  2 23  1  0  0  0  0
  3 24  1  0  0  0  0
  4 25  1  0  0  0  0
  5 26  1  0  0  0  0
  6 27  1  0  0  0  0
  7 28  1  0  0  0  0
  8 29  1  0  0  0  0
  9 30  1  0  0  0  0
 10 31  1  0  0  0  0
 11 32  1  0  0  0  0
 12 33  1  0  0  0  0
 13 34  1  0  0  0  0
 14 35  1  0  0  0  0
 18 36  1  0  0  0  0
 18 37  1  0  0  0  0
 19 38  1  0  0  0  0
 21 39  1  0  0  0  0
 21 40  1  0  0  0  0
M  CHG  1  21   1
M  END
> <Hybrid2>
-12.078482

> <fragments>
x0678

> <site>
active-noncovalent

$$$$
top_hits_only_mpro-133_2
  -OEChem-03302021283D

 32 33  0     0  0  0  0  0  0999 V2000
   14.0144   -0.4026   22.6834 C   0  0  0  0  0  0  0  0  0  0  0  0
   13.0021   -0.1387   21.7608 C   0  0  0  0  0  0  0  0  0  0  0  0
   12.6072   -2.0469   23.7572 C   0  0  0  0  0  0  0  0  0  0  0  0
    7.3556    0.5144   19.8159 C   0  0  0  0  0  0  0  0  0  0  0  0
   13.8170   -1.3568   23.6816 C   0  0  0  0  0  0  0  0  0  0  0  0
   11.5948   -1.7830   22.8347 C   0  0  0  0  0  0  0  0  0  0  0  0
   11.7923   -0.8288   21.8365 C   0  0  0  0  0  0  0  0  0  0  0  0
    8.6531    0.0789   19.9309 C   0  0  0  0  0  0  0  0  0  0  0  0
    7.0846    0.4527   18.4359 C   0  0  0  0  0  0  0  0  0  0  0  0
    9.4859   -0.0733   21.1362 C   0  0  0  0  0  0  0  0  0  0  0  0
   14.8987   -1.6372   24.6694 C   0  0  0  0  0  0  0  0  0  0  0  0
   10.3079   -2.5352   22.9414 C   0  0  0  0  0  0  0  0  0  0  0  0
    5.8301    0.8087   17.7517 C   0  0  0  0  0  0  0  0  0  0  0  0
    8.1263    0.0128   17.7250 N   0  0  0  0  0  0  0  0  0  0  0  0
    9.0645   -0.2057   18.6620 N   0  0  0  0  0  0  0  0  0  0  0  0
   10.7904   -0.5503   20.9033 N   0  0  0  0  0  0  0  0  0  0  0  0
    9.0343    0.1736   22.2525 O   0  0  0  0  0  0  0  0  0  0  0  0
   14.9537    0.1399   22.6168 H   0  0  0  0  0  0  0  0  0  0  0  0
   13.1679    0.6063   20.9866 H   0  0  0  0  0  0  0  0  0  0  0  0
   12.4542   -2.7891   24.5372 H   0  0  0  0  0  0  0  0  0  0  0  0
    6.7005    0.8304   20.6151 H   0  0  0  0  0  0  0  0  0  0  0  0
   14.7975   -0.9815   25.5429 H   0  0  0  0  0  0  0  0  0  0  0  0
   14.8656   -2.6798   25.0112 H   0  0  0  0  0  0  0  0  0  0  0  0
   15.8916   -1.4788   24.2285 H   0  0  0  0  0  0  0  0  0  0  0  0
    9.6067   -1.9965   23.5887 H   0  0  0  0  0  0  0  0  0  0  0  0
    9.8445   -2.6678   21.9564 H   0  0  0  0  0  0  0  0  0  0  0  0
   10.4691   -3.5374   23.3568 H   0  0  0  0  0  0  0  0  0  0  0  0
    5.8223    1.8721   17.4568 H   0  0  0  0  0  0  0  0  0  0  0  0
    5.6686    0.2093   16.8379 H   0  0  0  0  0  0  0  0  0  0  0  0
    4.9438    0.6337   18.3878 H   0  0  0  0  0  0  0  0  0  0  0  0
    9.9678   -0.5515   18.3625 H   0  0  0  0  0  0  0  0  0  0  0  0
   11.0369   -0.7144   19.9214 H   0  0  0  0  0  0  0  0  0  0  0  0
  1  2  2  0  0  0  0
  1  5  1  0  0  0  0
  2  7  1  0  0  0  0
  3  5  2  0  0  0  0
  3  6  1  0  0  0  0
  4  8  2  0  0  0  0
  4  9  1  0  0  0  0
  5 11  1  0  0  0  0
  6  7  2  0  0  0  0
  6 12  1  0  0  0  0
  7 16  1  0  0  0  0
  8 10  1  0  0  0  0
  8 15  1  0  0  0  0
  9 13  1  0  0  0  0
  9 14  2  0  0  0  0
 10 16  1  0  0  0  0
 10 17  2  0  0  0  0
 14 15  1  0  0  0  0
  1 18  1  0  0  0  0
  2 19  1  0  0  0  0
  3 20  1  0  0  0  0
  4 21  1  0  0  0  0
 11 22  1  0  0  0  0
 11 23  1  0  0  0  0
 11 24  1  0  0  0  0
 12 25  1  0  0  0  0
 12 26  1  0  0  0  0
 12 27  1  0  0  0  0
 13 28  1  0  0  0  0
 13 29  1  0  0  0  0
 13 30  1  0  0  0  0
 15 31  1  0  0  0  0
 16 32  1  0  0  0  0
M  END
> <Hybrid2>
-12.026031

> <fragments>
x0678

> <site>
active-noncovalent

$$$$
-12.269648551940918_1
  -OEChem-03302021283D

 38 40  0     0  0  0  0  0  0999 V2000
   14.3235   -1.3824   23.7914 C   0  0  0  0  0  0  0  0  0  0  0  0
    8.0287    1.1568   26.2705 C   0  0  0  0  0  0  0  0  0  0  0  0
   13.6006   -2.4526   23.2644 C   0  0  0  0  0  0  0  0  0  0  0  0
   13.6725   -0.1907   24.1103 C   0  0  0  0  0  0  0  0  0  0  0  0
    8.3676   -0.1830   26.4591 C   0  0  0  0  0  0  0  0  0  0  0  0
    8.3593    1.7985   25.0769 C   0  0  0  0  0  0  0  0  0  0  0  0
    5.7836    1.0197   19.3007 C   0  0  0  0  0  0  0  0  0  0  0  0
   12.2267   -2.3311   23.0562 C   0  0  0  0  0  0  0  0  0  0  0  0
   12.2986   -0.0691   23.9021 C   0  0  0  0  0  0  0  0  0  0  0  0
    9.0373   -0.8812   25.4543 C   0  0  0  0  0  0  0  0  0  0  0  0
    9.0291    1.1003   24.0720 C   0  0  0  0  0  0  0  0  0  0  0  0
    6.4290    0.6019   20.4592 C   0  0  0  0  0  0  0  0  0  0  0  0
    6.4328    0.8285   18.0917 C   0  0  0  0  0  0  0  0  0  0  0  0
    8.2501   -0.1325   19.1173 C   0  0  0  0  0  0  0  0  0  0  0  0
   11.5757   -1.1393   23.3750 C   0  0  0  0  0  0  0  0  0  0  0  0
    9.3681   -0.2395   24.2607 C   0  0  0  0  0  0  0  0  0  0  0  0
    7.6862    0.0139   20.3745 C   0  0  0  0  0  0  0  0  0  0  0  0
    9.7451   -0.4708   21.7456 C   0  0  0  0  0  0  0  0  0  0  0  0
   10.1067   -1.0086   23.1525 C   0  0  0  0  0  0  0  0  0  0  0  0
    7.6538    0.2612   17.9697 N   0  0  0  0  0  0  0  0  0  0  0  0
    8.3679   -0.4212   21.5358 N   0  0  0  0  0  0  0  0  0  0  0  0
   10.6214   -0.1484   20.9481 O   0  0  0  0  0  0  0  0  0  0  0  0
   15.3930   -1.4777   23.9547 H   0  0  0  0  0  0  0  0  0  0  0  0
    7.5060    1.6999   27.0524 H   0  0  0  0  0  0  0  0  0  0  0  0
   14.1071   -3.3810   23.0170 H   0  0  0  0  0  0  0  0  0  0  0  0
   14.2348    0.6423   24.5216 H   0  0  0  0  0  0  0  0  0  0  0  0
    8.1093   -0.6831   27.3880 H   0  0  0  0  0  0  0  0  0  0  0  0
    8.0946    2.8413   24.9292 H   0  0  0  0  0  0  0  0  0  0  0  0
    4.8033    1.4806   19.3430 H   0  0  0  0  0  0  0  0  0  0  0  0
   11.6716   -3.1701   22.6450 H   0  0  0  0  0  0  0  0  0  0  0  0
   11.7999    0.8632   24.1534 H   0  0  0  0  0  0  0  0  0  0  0  0
    9.2976   -1.9248   25.6102 H   0  0  0  0  0  0  0  0  0  0  0  0
    9.2828    1.6085   23.1454 H   0  0  0  0  0  0  0  0  0  0  0  0
    5.9438    0.7391   21.4219 H   0  0  0  0  0  0  0  0  0  0  0  0
    5.9720    1.1380   17.1594 H   0  0  0  0  0  0  0  0  0  0  0  0
    9.2289   -0.5844   18.9869 H   0  0  0  0  0  0  0  0  0  0  0  0
    9.6575   -2.0250   23.1695 H   0  0  0  0  0  0  0  0  0  0  0  0
    7.7683   -0.7225   22.3011 H   0  0  0  0  0  0  0  0  0  0  0  0
  1  3  1  0  0  0  0
  1  4  2  0  0  0  0
  2  5  1  0  0  0  0
  2  6  2  0  0  0  0
  3  8  2  0  0  0  0
  4  9  1  0  0  0  0
  5 10  2  0  0  0  0
  6 11  1  0  0  0  0
  7 12  2  0  0  0  0
  7 13  1  0  0  0  0
  8 15  1  0  0  0  0
  9 15  2  0  0  0  0
 10 16  1  0  0  0  0
 11 16  2  0  0  0  0
 12 17  1  0  0  0  0
 13 20  2  0  0  0  0
 14 17  2  0  0  0  0
 14 20  1  0  0  0  0
 15 19  1  0  0  0  0
 16 19  1  0  0  0  0
 17 21  1  0  0  0  0
 18 19  1  0  0  0  0
 18 21  1  0  0  0  0
 18 22  2  0  0  0  0
  1 23  1  0  0  0  0
  2 24  1  0  0  0  0
  3 25  1  0  0  0  0
  4 26  1  0  0  0  0
  5 27  1  0  0  0  0
  6 28  1  0  0  0  0
  7 29  1  0  0  0  0
  8 30  1  0  0  0  0
  9 31  1  0  0  0  0
 10 32  1  0  0  0  0
 11 33  1  0  0  0  0
 12 34  1  0  0  0  0
 13 35  1  0  0  0  0
 14 36  1  0  0  0  0
 19 37  1  0  0  0  0
 21 38  1  0  0  0  0
M  END
> <Hybrid2>
-11.973841

> <fragments>
x0678

> <site>
active-noncovalent

$$$$
top_hits_only_mpro-358_2
  -OEChem-03302021283D

 36 38  0     0  0  0  0  0  0999 V2000
   14.3407   -1.8429   22.3195 C   0  0  0  0  0  0  0  0  0  0  0  0
   13.3224   -1.4588   21.4472 C   0  0  0  0  0  0  0  0  0  0  0  0
   11.8607   -1.0601   23.3290 C   0  0  0  0  0  0  0  0  0  0  0  0
    7.5989    0.4670   20.1802 C   0  0  0  0  0  0  0  0  0  0  0  0
   14.1191   -1.8356   23.6967 C   0  0  0  0  0  0  0  0  0  0  0  0
   12.0824   -1.0674   21.9519 C   0  0  0  0  0  0  0  0  0  0  0  0
   12.8790   -1.4442   24.2014 C   0  0  0  0  0  0  0  0  0  0  0  0
    8.9023    0.0386   20.2274 C   0  0  0  0  0  0  0  0  0  0  0  0
    7.3099    0.5728   18.7992 C   0  0  0  0  0  0  0  0  0  0  0  0
    9.7291   -0.2503   21.3537 C   0  0  0  0  0  0  0  0  0  0  0  0
    6.6157    0.7583   21.2525 C   0  0  0  0  0  0  0  0  0  0  0  0
    6.0032    1.0338   18.2631 C   0  0  0  0  0  0  0  0  0  0  0  0
    5.4187    1.5541   20.6981 C   0  0  0  0  0  0  0  0  0  0  0  0
    4.9171    0.9905   19.3550 C   0  0  0  0  0  0  0  0  0  0  0  0
   15.2362   -2.2539   24.5975 C   0  0  0  0  0  0  0  0  0  0  0  0
    8.3492    0.2457   18.0278 N   0  0  0  0  0  0  0  0  0  0  0  0
    9.3005   -0.0764   18.9252 N   0  0  0  0  0  0  0  0  0  0  0  0
   11.0471   -0.6782   21.0650 N   0  0  0  0  0  0  0  0  0  0  0  0
    9.3189   -0.1692   22.5355 O   0  0  0  0  0  0  0  0  0  0  0  0
   12.5682   -1.4232   25.8992 Cl  0  0  0  0  0  0  0  0  0  0  0  0
   15.3030   -2.1463   21.9156 H   0  0  0  0  0  0  0  0  0  0  0  0
   13.5061   -1.4690   20.3759 H   0  0  0  0  0  0  0  0  0  0  0  0
   10.8914   -0.7545   23.7182 H   0  0  0  0  0  0  0  0  0  0  0  0
    6.2563   -0.1897   21.6709 H   0  0  0  0  0  0  0  0  0  0  0  0
    7.0836    1.3217   22.0674 H   0  0  0  0  0  0  0  0  0  0  0  0
    6.1124    2.0639   17.9025 H   0  0  0  0  0  0  0  0  0  0  0  0
    5.6927    0.4178   17.4119 H   0  0  0  0  0  0  0  0  0  0  0  0
    4.6058    1.5476   21.4331 H   0  0  0  0  0  0  0  0  0  0  0  0
    5.7124    2.6021   20.5553 H   0  0  0  0  0  0  0  0  0  0  0  0
    4.0401    1.5546   19.0180 H   0  0  0  0  0  0  0  0  0  0  0  0
    4.5921   -0.0472   19.5054 H   0  0  0  0  0  0  0  0  0  0  0  0
   15.8455   -1.3859   24.8730 H   0  0  0  0  0  0  0  0  0  0  0  0
   14.8522   -2.7179   25.5138 H   0  0  0  0  0  0  0  0  0  0  0  0
   15.8811   -2.9945   24.1094 H   0  0  0  0  0  0  0  0  0  0  0  0
   10.2045   -0.3699   18.5765 H   0  0  0  0  0  0  0  0  0  0  0  0
   11.2863   -0.7112   20.0771 H   0  0  0  0  0  0  0  0  0  0  0  0
  1  2  2  0  0  0  0
  1  5  1  0  0  0  0
  2  6  1  0  0  0  0
  3  6  2  0  0  0  0
  3  7  1  0  0  0  0
  4  8  2  0  0  0  0
  4  9  1  0  0  0  0
  4 11  1  0  0  0  0
  5  7  2  0  0  0  0
  5 15  1  0  0  0  0
  6 18  1  0  0  0  0
  7 20  1  0  0  0  0
  8 10  1  0  0  0  0
  8 17  1  0  0  0  0
  9 12  1  0  0  0  0
  9 16  2  0  0  0  0
 10 18  1  0  0  0  0
 10 19  2  0  0  0  0
 11 13  1  0  0  0  0
 12 14  1  0  0  0  0
 13 14  1  0  0  0  0
 16 17  1  0  0  0  0
  1 21  1  0  0  0  0
  2 22  1  0  0  0  0
  3 23  1  0  0  0  0
 11 24  1  0  0  0  0
 11 25  1  0  0  0  0
 12 26  1  0  0  0  0
 12 27  1  0  0  0  0
 13 28  1  0  0  0  0
 13 29  1  0  0  0  0
 14 30  1  0  0  0  0
 14 31  1  0  0  0  0
 15 32  1  0  0  0  0
 15 33  1  0  0  0  0
 15 34  1  0  0  0  0
 17 35  1  0  0  0  0
 18 36  1  0  0  0  0
M  END
> <Hybrid2>
-11.965358

> <fragments>
x0678

> <site>
active-noncovalent

$$$$
top_hits_only_mpro-515_1
  -OEChem-03302021283D

 29 31  0     0  0  0  0  0  0999 V2000
   14.4260   -0.7739   22.7496 C   0  0  0  0  0  0  0  0  0  0  0  0
   13.9494   -1.6547   21.7787 C   0  0  0  0  0  0  0  0  0  0  0  0
   13.5407   -0.1873   23.6540 C   0  0  0  0  0  0  0  0  0  0  0  0
    5.6968    1.3524   18.6568 C   0  0  0  0  0  0  0  0  0  0  0  0
   12.5876   -1.9489   21.7121 C   0  0  0  0  0  0  0  0  0  0  0  0
   12.1788   -0.4815   23.5874 C   0  0  0  0  0  0  0  0  0  0  0  0
    5.8784    0.7054   19.8741 C   0  0  0  0  0  0  0  0  0  0  0  0
    6.5691    1.0481   17.6242 C   0  0  0  0  0  0  0  0  0  0  0  0
    7.7298   -0.4474   18.9258 C   0  0  0  0  0  0  0  0  0  0  0  0
    9.7324   -2.7117   23.2435 C   0  0  0  0  0  0  0  0  0  0  0  0
   11.7022   -1.3623   22.6164 C   0  0  0  0  0  0  0  0  0  0  0  0
    6.9121   -0.2131   20.0195 C   0  0  0  0  0  0  0  0  0  0  0  0
   10.3001   -1.6648   22.5479 C   0  0  0  0  0  0  0  0  0  0  0  0
    8.2215   -1.4034   21.8988 C   0  0  0  0  0  0  0  0  0  0  0  0
    7.5845    0.1617   17.7276 N   0  0  0  0  0  0  0  0  0  0  0  0
    9.4353   -0.9137   21.7760 N   0  0  0  0  0  0  0  0  0  0  0  0
    7.1258   -0.9006   21.2704 N   0  0  0  0  0  0  0  0  0  0  0  0
    8.0477   -2.7662   22.9272 S   0  0  0  0  0  0  0  0  0  0  0  0
   15.4865   -0.5456   22.8024 H   0  0  0  0  0  0  0  0  0  0  0  0
   14.6387   -2.1125   21.0753 H   0  0  0  0  0  0  0  0  0  0  0  0
   13.9122    0.4974   24.4107 H   0  0  0  0  0  0  0  0  0  0  0  0
    4.8978    2.0721   18.5205 H   0  0  0  0  0  0  0  0  0  0  0  0
   12.2315   -2.6375   20.9494 H   0  0  0  0  0  0  0  0  0  0  0  0
   11.5016   -0.0159   24.2997 H   0  0  0  0  0  0  0  0  0  0  0  0
    5.2095    0.9240   20.7022 H   0  0  0  0  0  0  0  0  0  0  0  0
    6.4700    1.5253   16.6548 H   0  0  0  0  0  0  0  0  0  0  0  0
    8.5534   -1.1533   18.9781 H   0  0  0  0  0  0  0  0  0  0  0  0
   10.2020   -3.4265   23.9054 H   0  0  0  0  0  0  0  0  0  0  0  0
    6.2214   -1.0158   21.7649 H   0  0  0  0  0  0  0  0  0  0  0  0
  1  2  1  0  0  0  0
  1  3  2  0  0  0  0
  2  5  2  0  0  0  0
  3  6  1  0  0  0  0
  4  7  2  0  0  0  0
  4  8  1  0  0  0  0
  5 11  1  0  0  0  0
  6 11  2  0  0  0  0
  7 12  1  0  0  0  0
  8 15  2  0  0  0  0
  9 12  2  0  0  0  0
  9 15  1  0  0  0  0
 10 13  2  0  0  0  0
 10 18  1  0  0  0  0
 11 13  1  0  0  0  0
 12 17  1  0  0  0  0
 13 16  1  0  0  0  0
 14 16  2  0  0  0  0
 14 17  1  0  0  0  0
 14 18  1  0  0  0  0
  1 19  1  0  0  0  0
  2 20  1  0  0  0  0
  3 21  1  0  0  0  0
  4 22  1  0  0  0  0
  5 23  1  0  0  0  0
  6 24  1  0  0  0  0
  7 25  1  0  0  0  0
  8 26  1  0  0  0  0
  9 27  1  0  0  0  0
 10 28  1  0  0  0  0
 17 29  1  0  0  0  0
M  END
> <Hybrid2>
-11.924387

> <fragments>
x0678

> <site>
active-noncovalent

$$$$
top_hits_only_mpro-475_1
  -OEChem-03302021283D

 34 36  0     1  0  0  0  0  0999 V2000
    5.5088    0.8361   18.8891 C   0  0  0  0  0  0  0  0  0  0  0  0
    7.7538    0.1244   19.0321 C   0  0  0  0  0  0  0  0  0  0  0  0
    9.4789   -0.2252   20.8438 C   0  0  0  0  0  0  0  0  0  0  0  0
   13.9131   -0.8776   23.8871 C   0  0  0  0  0  0  0  0  0  0  0  0
   13.1172   -2.1353   23.5085 C   0  0  0  0  0  0  0  0  0  0  0  0
   13.8497   -1.0531   21.5247 C   0  0  0  0  0  0  0  0  0  0  0  0
   13.7912    0.0035   22.6315 C   0  0  1  0  0  0  0  0  0  0  0  0
   12.6487   -1.8282   22.0745 C   0  0  2  0  0  0  0  0  0  0  0  0
   12.3522    0.5421   22.4387 C   0  0  1  0  0  0  0  0  0  0  0  0
   11.5465   -0.7464   22.1486 C   0  0  1  0  0  0  0  0  0  0  0  0
   11.7961    1.3503   23.6016 C   0  0  0  0  0  0  0  0  0  0  0  0
    6.0025    0.5388   17.7060 N   0  0  0  0  0  0  0  0  0  0  0  0
    7.3190    0.1204   17.7900 N   0  0  0  0  0  0  0  0  0  0  0  0
    9.0320   -0.2349   19.5196 N   0  0  0  0  0  0  0  0  0  0  0  0
   10.8110   -0.6516   20.9124 N   0  0  0  0  0  0  0  0  0  0  0  0
    8.8291    0.1026   21.8338 O   0  0  0  0  0  0  0  0  0  0  0  0
   10.4861    1.7792   23.2721 O   0  0  0  0  0  0  0  0  0  0  0  0
    6.6017    0.6344   20.1956 S   0  0  0  0  0  0  0  0  0  0  0  0
    4.4942    1.1814   19.0290 H   0  0  0  0  0  0  0  0  0  0  0  0
   13.5364   -0.4029   24.7964 H   0  0  0  0  0  0  0  0  0  0  0  0
   14.9617   -1.1440   24.0658 H   0  0  0  0  0  0  0  0  0  0  0  0
   13.7714   -3.0144   23.5256 H   0  0  0  0  0  0  0  0  0  0  0  0
   12.2842   -2.3176   24.1946 H   0  0  0  0  0  0  0  0  0  0  0  0
   13.6842   -0.6442   20.5228 H   0  0  0  0  0  0  0  0  0  0  0  0
   14.7778   -1.6348   21.5310 H   0  0  0  0  0  0  0  0  0  0  0  0
   14.5571    0.7798   22.5683 H   0  0  0  0  0  0  0  0  0  0  0  0
   12.3658   -2.7240   21.5165 H   0  0  0  0  0  0  0  0  0  0  0  0
   12.3553    1.1956   21.5548 H   0  0  0  0  0  0  0  0  0  0  0  0
   10.8131   -0.9712   22.9308 H   0  0  0  0  0  0  0  0  0  0  0  0
   12.4228    2.2246   23.7858 H   0  0  0  0  0  0  0  0  0  0  0  0
   11.7550    0.7349   24.5020 H   0  0  0  0  0  0  0  0  0  0  0  0
    9.7034   -0.5367   18.8179 H   0  0  0  0  0  0  0  0  0  0  0  0
   11.2822   -0.9067   20.0485 H   0  0  0  0  0  0  0  0  0  0  0  0
   10.1558    2.2912   24.0294 H   0  0  0  0  0  0  0  0  0  0  0  0
  1 12  2  0  0  0  0
  1 18  1  0  0  0  0
  2 13  2  0  0  0  0
  2 14  1  0  0  0  0
  2 18  1  0  0  0  0
  3 14  1  0  0  0  0
  3 15  1  0  0  0  0
  3 16  2  0  0  0  0
  4  5  1  0  0  0  0
  4  7  1  0  0  0  0
  5  8  1  0  0  0  0
  6  7  1  0  0  0  0
  6  8  1  0  0  0  0
  7  9  1  0  0  0  0
  8 10  1  0  0  0  0
  9 10  1  0  0  0  0
  9 11  1  0  0  0  0
 10 15  1  0  0  0  0
 11 17  1  0  0  0  0
 12 13  1  0  0  0  0
  1 19  1  0  0  0  0
  4 20  1  0  0  0  0
  4 21  1  0  0  0  0
  5 22  1  0  0  0  0
  5 23  1  0  0  0  0
  6 24  1  0  0  0  0
  6 25  1  0  0  0  0
  7 26  1  0  0  0  0
  8 27  1  0  0  0  0
  9 28  1  0  0  0  0
 10 29  1  0  0  0  0
 11 30  1  0  0  0  0
 11 31  1  0  0  0  0
 14 32  1  0  0  0  0
 15 33  1  0  0  0  0
 17 34  1  0  0  0  0
M  END
> <Hybrid2>
-11.904167

> <fragments>
x0678

> <site>
active-noncovalent

$$$$
top_hits_only_mpro-510_1
  -OEChem-03302021283D

 42 46  0     1  0  0  0  0  0999 V2000
    8.6382    4.6166   25.3641 C   0  0  0  0  0  0  0  0  0  0  0  0
    8.4223    3.5493   26.2358 C   0  0  0  0  0  0  0  0  0  0  0  0
    9.2531    4.3969   24.1314 C   0  0  0  0  0  0  0  0  0  0  0  0
   13.9098   -2.0670   22.9404 C   0  0  0  0  0  0  0  0  0  0  0  0
   14.2449   -1.3943   24.1153 C   0  0  0  0  0  0  0  0  0  0  0  0
    5.7600    0.5749   18.9107 C   0  0  0  0  0  0  0  0  0  0  0  0
    6.6112    0.4924   20.0070 C   0  0  0  0  0  0  0  0  0  0  0  0
    8.8212    2.2624   25.8749 C   0  0  0  0  0  0  0  0  0  0  0  0
    9.6520    3.1100   23.7705 C   0  0  0  0  0  0  0  0  0  0  0  0
   12.6432   -1.9067   22.3768 C   0  0  0  0  0  0  0  0  0  0  0  0
   13.3142   -0.5603   24.7336 C   0  0  0  0  0  0  0  0  0  0  0  0
    6.2948    0.3367   17.6549 C   0  0  0  0  0  0  0  0  0  0  0  0
    8.3891   -0.0419   18.5203 C   0  0  0  0  0  0  0  0  0  0  0  0
    7.9524    0.1787   19.8166 C   0  0  0  0  0  0  0  0  0  0  0  0
    9.4361    2.0427   24.6423 C   0  0  0  0  0  0  0  0  0  0  0  0
   11.7085   -1.0614   22.9816 C   0  0  0  0  0  0  0  0  0  0  0  0
   12.0470   -0.3970   24.1722 C   0  0  0  0  0  0  0  0  0  0  0  0
    8.8802    0.0844   20.9620 C   0  0  0  0  0  0  0  0  0  0  0  0
   10.0805   -0.8397   20.9551 C   0  0  0  0  0  0  0  0  0  0  0  0
   10.3238   -0.8879   22.4552 C   0  0  2  0  0  0  0  0  0  0  0  0
    9.8706    0.6425   24.2490 C   0  0  1  0  0  0  0  0  0  0  0  0
    7.5921    0.0294   17.4306 N   0  0  0  0  0  0  0  0  0  0  0  0
    8.7517    0.7779   22.0550 N   0  0  0  0  0  0  0  0  0  0  0  0
    9.8253    0.4403   22.8028 N   0  0  2  0  0  0  0  0  0  0  0  0
   11.1879    0.4490   24.8336 O   0  0  0  0  0  0  0  0  0  0  0  0
    8.3263    5.6184   25.6447 H   0  0  0  0  0  0  0  0  0  0  0  0
    7.9426    3.7200   27.1951 H   0  0  0  0  0  0  0  0  0  0  0  0
    9.4204    5.2274   23.4520 H   0  0  0  0  0  0  0  0  0  0  0  0
   14.6376   -2.7165   22.4619 H   0  0  0  0  0  0  0  0  0  0  0  0
   15.2305   -1.5263   24.5532 H   0  0  0  0  0  0  0  0  0  0  0  0
    4.7108    0.8174   19.0350 H   0  0  0  0  0  0  0  0  0  0  0  0
    6.2198    0.6750   21.0041 H   0  0  0  0  0  0  0  0  0  0  0  0
    8.6490    1.4369   26.5606 H   0  0  0  0  0  0  0  0  0  0  0  0
   10.1304    2.9483   22.8082 H   0  0  0  0  0  0  0  0  0  0  0  0
   12.3993   -2.4420   21.4656 H   0  0  0  0  0  0  0  0  0  0  0  0
   13.5790   -0.0521   25.6567 H   0  0  0  0  0  0  0  0  0  0  0  0
    5.6726    0.3892   16.7676 H   0  0  0  0  0  0  0  0  0  0  0  0
    9.4246   -0.2912   18.3090 H   0  0  0  0  0  0  0  0  0  0  0  0
    9.7539   -1.8041   20.5666 H   0  0  0  0  0  0  0  0  0  0  0  0
   10.8842   -0.4265   20.3538 H   0  0  0  0  0  0  0  0  0  0  0  0
    9.6645   -1.6488   22.9385 H   0  0  0  0  0  0  0  0  0  0  0  0
    9.1728   -0.0314   24.7536 H   0  0  0  0  0  0  0  0  0  0  0  0
  1  2  1  0  0  0  0
  1  3  2  0  0  0  0
  2  8  2  0  0  0  0
  3  9  1  0  0  0  0
  4  5  1  0  0  0  0
  4 10  2  0  0  0  0
  5 11  2  0  0  0  0
  6  7  2  0  0  0  0
  6 12  1  0  0  0  0
  7 14  1  0  0  0  0
  8 15  1  0  0  0  0
  9 15  2  0  0  0  0
 10 16  1  0  0  0  0
 11 17  1  0  0  0  0
 12 22  2  0  0  0  0
 13 14  2  0  0  0  0
 13 22  1  0  0  0  0
 14 18  1  0  0  0  0
 15 21  1  0  0  0  0
 16 17  2  0  0  0  0
 16 20  1  0  0  0  0
 17 25  1  0  0  0  0
 18 19  1  0  0  0  0
 18 23  2  0  0  0  0
 19 20  1  0  0  0  0
 20 24  1  0  0  0  0
 21 24  1  0  0  0  0
 21 25  1  0  0  0  0
 23 24  1  0  0  0  0
  1 26  1  0  0  0  0
  2 27  1  0  0  0  0
  3 28  1  0  0  0  0
  4 29  1  0  0  0  0
  5 30  1  0  0  0  0
  6 31  1  0  0  0  0
  7 32  1  0  0  0  0
  8 33  1  0  0  0  0
  9 34  1  0  0  0  0
 10 35  1  0  0  0  0
 11 36  1  0  0  0  0
 12 37  1  0  0  0  0
 13 38  1  0  0  0  0
 19 39  1  0  0  0  0
 19 40  1  0  0  0  0
 20 41  1  0  0  0  0
 21 42  1  0  0  0  0
M  END
> <Hybrid2>
-11.859377

> <fragments>
x0678

> <site>
active-noncovalent

$$$$
-11.790989875793455_1
  -OEChem-03302021283D

 37 39  0     0  0  0  0  0  0999 V2000
   14.2336   -0.6815   22.4656 C   0  0  0  0  0  0  0  0  0  0  0  0
   13.7792    0.2050   23.4447 C   0  0  0  0  0  0  0  0  0  0  0  0
   13.3770   -1.6364   21.9035 C   0  0  0  0  0  0  0  0  0  0  0  0
   12.4561    0.1706   23.8973 C   0  0  0  0  0  0  0  0  0  0  0  0
    6.5675    1.2229   20.3834 C   0  0  0  0  0  0  0  0  0  0  0  0
    8.3581    0.3551   19.0807 C   0  0  0  0  0  0  0  0  0  0  0  0
    6.3052    0.6461   18.0911 C   0  0  0  0  0  0  0  0  0  0  0  0
    7.8981    0.8286   20.2989 C   0  0  0  0  0  0  0  0  0  0  0  0
   12.0444   -1.6853   22.3466 C   0  0  0  0  0  0  0  0  0  0  0  0
   11.6210   -0.7886   23.3235 C   0  0  0  0  0  0  0  0  0  0  0  0
    5.7490    1.1330   19.2630 C   0  0  0  0  0  0  0  0  0  0  0  0
    9.9851   -2.1354   22.6873 C   0  0  0  0  0  0  0  0  0  0  0  0
    8.7997    0.9130   21.4766 C   0  0  0  0  0  0  0  0  0  0  0  0
    8.6320   -2.7268   22.6448 C   0  0  0  0  0  0  0  0  0  0  0  0
    9.4047   -0.4442   24.4484 C   0  0  0  0  0  0  0  0  0  0  0  0
    8.9234    0.9159   23.9547 C   0  0  0  0  0  0  0  0  0  0  0  0
    7.5932    0.2533   17.9706 N   0  0  0  0  0  0  0  0  0  0  0  0
   11.0147   -2.5138   21.9636 N   0  0  0  0  0  0  0  0  0  0  0  0
   10.3001   -1.0994   23.5219 N   0  0  0  0  0  0  0  0  0  0  0  0
    8.1887    0.8265   22.7218 N   0  0  0  0  0  0  0  0  0  0  0  0
   10.0048    1.0715   21.2996 O   0  0  0  0  0  0  0  0  0  0  0  0
    3.9410    1.6555   19.3373 Br  0  0  0  0  0  0  0  0  0  0  0  0
   15.2671   -0.6294   22.1332 H   0  0  0  0  0  0  0  0  0  0  0  0
   14.4665    0.9359   23.8639 H   0  0  0  0  0  0  0  0  0  0  0  0
   13.7398   -2.3200   21.1429 H   0  0  0  0  0  0  0  0  0  0  0  0
   12.1040    0.8597   24.6567 H   0  0  0  0  0  0  0  0  0  0  0  0
    6.1734    1.5995   21.3248 H   0  0  0  0  0  0  0  0  0  0  0  0
    9.3871    0.0327   18.9532 H   0  0  0  0  0  0  0  0  0  0  0  0
    5.7196    0.5505   17.1816 H   0  0  0  0  0  0  0  0  0  0  0  0
    8.5387   -3.5544   23.3663 H   0  0  0  0  0  0  0  0  0  0  0  0
    7.8502   -1.9855   22.8805 H   0  0  0  0  0  0  0  0  0  0  0  0
    8.3862   -3.1229   21.6451 H   0  0  0  0  0  0  0  0  0  0  0  0
    9.9488   -0.3314   25.3938 H   0  0  0  0  0  0  0  0  0  0  0  0
    8.5613   -1.1186   24.6387 H   0  0  0  0  0  0  0  0  0  0  0  0
    8.2512    1.3651   24.6921 H   0  0  0  0  0  0  0  0  0  0  0  0
    9.7602    1.6022   23.7893 H   0  0  0  0  0  0  0  0  0  0  0  0
    7.1748    0.7583   22.7842 H   0  0  0  0  0  0  0  0  0  0  0  0
  1  2  2  0  0  0  0
  1  3  1  0  0  0  0
  2  4  1  0  0  0  0
  3  9  2  0  0  0  0
  4 10  2  0  0  0  0
  5  8  1  0  0  0  0
  5 11  2  0  0  0  0
  6  8  2  0  0  0  0
  6 17  1  0  0  0  0
  7 11  1  0  0  0  0
  7 17  2  0  0  0  0
  8 13  1  0  0  0  0
  9 10  1  0  0  0  0
  9 18  1  0  0  0  0
 10 19  1  0  0  0  0
 11 22  1  0  0  0  0
 12 14  1  0  0  0  0
 12 18  2  0  0  0  0
 12 19  1  0  0  0  0
 13 20  1  0  0  0  0
 13 21  2  0  0  0  0
 15 16  1  0  0  0  0
 15 19  1  0  0  0  0
 16 20  1  0  0  0  0
  1 23  1  0  0  0  0
  2 24  1  0  0  0  0
  3 25  1  0  0  0  0
  4 26  1  0  0  0  0
  5 27  1  0  0  0  0
  6 28  1  0  0  0  0
  7 29  1  0  0  0  0
 14 30  1  0  0  0  0
 14 31  1  0  0  0  0
 14 32  1  0  0  0  0
 15 33  1  0  0  0  0
 15 34  1  0  0  0  0
 16 35  1  0  0  0  0
 16 36  1  0  0  0  0
 20 37  1  0  0  0  0
M  END
> <Hybrid2>
-11.805521

> <fragments>
x0678

> <site>
active-noncovalent

$$$$
top_hits_only_mpro-3_1
  -OEChem-03302021283D

 38 40  0     0  0  0  0  0  0999 V2000
   11.4726    0.2705   24.8505 C   0  0  0  0  0  0  0  0  0  0  0  0
    5.7660    1.1188   19.1607 C   0  0  0  0  0  0  0  0  0  0  0  0
   10.2464   -0.3408   24.5892 C   0  0  0  0  0  0  0  0  0  0  0  0
    6.1960    0.6236   20.3867 C   0  0  0  0  0  0  0  0  0  0  0  0
   12.6199   -0.1526   24.1793 C   0  0  0  0  0  0  0  0  0  0  0  0
   11.3146   -1.7983   22.9855 C   0  0  0  0  0  0  0  0  0  0  0  0
    6.5185    0.8137   18.0380 C   0  0  0  0  0  0  0  0  0  0  0  0
    8.0306   -0.3991   19.2711 C   0  0  0  0  0  0  0  0  0  0  0  0
   10.1673   -1.3752   23.6567 C   0  0  0  0  0  0  0  0  0  0  0  0
    7.3491   -0.1507   20.4517 C   0  0  0  0  0  0  0  0  0  0  0  0
   12.5409   -1.1870   23.2468 C   0  0  0  0  0  0  0  0  0  0  0  0
    8.5239   -1.8424   21.8947 C   0  0  0  0  0  0  0  0  0  0  0  0
    8.4103   -3.5252   25.2302 C   0  0  0  0  0  0  0  0  0  0  0  0
    7.5524   -2.2783   25.4325 C   0  0  0  0  0  0  0  0  0  0  0  0
    8.8071   -3.5238   23.7564 C   0  0  0  0  0  0  0  0  0  0  0  0
    7.5853   -1.5206   24.1048 C   0  0  0  0  0  0  0  0  0  0  0  0
    8.8319   -2.0403   23.3728 C   0  0  0  0  0  0  0  0  0  0  0  0
    7.6437    0.0648   18.0617 N   0  0  0  0  0  0  0  0  0  0  0  0
    7.8117   -0.6684   21.6847 N   0  0  0  0  0  0  0  0  0  0  0  0
    8.8965   -2.6609   21.0603 O   0  0  0  0  0  0  0  0  0  0  0  0
   14.0957   -1.7597   22.3378 Br  0  0  0  0  0  0  0  0  0  0  0  0
   11.5340    1.0758   25.5766 H   0  0  0  0  0  0  0  0  0  0  0  0
    4.8700    1.7245   19.0864 H   0  0  0  0  0  0  0  0  0  0  0  0
    9.3578   -0.0045   25.1169 H   0  0  0  0  0  0  0  0  0  0  0  0
    5.6256    0.8469   21.2845 H   0  0  0  0  0  0  0  0  0  0  0  0
   13.5675    0.3344   24.3946 H   0  0  0  0  0  0  0  0  0  0  0  0
   11.2453   -2.6054   22.2598 H   0  0  0  0  0  0  0  0  0  0  0  0
    6.2258    1.1768   17.0583 H   0  0  0  0  0  0  0  0  0  0  0  0
    8.9371   -0.9970   19.2577 H   0  0  0  0  0  0  0  0  0  0  0  0
    9.2880   -3.5334   25.8967 H   0  0  0  0  0  0  0  0  0  0  0  0
    7.8209   -4.4282   25.4657 H   0  0  0  0  0  0  0  0  0  0  0  0
    6.5340   -2.5346   25.7386 H   0  0  0  0  0  0  0  0  0  0  0  0
    7.9880   -1.6560   26.2228 H   0  0  0  0  0  0  0  0  0  0  0  0
    9.7999   -3.9815   23.6479 H   0  0  0  0  0  0  0  0  0  0  0  0
    8.1038   -4.1145   23.1577 H   0  0  0  0  0  0  0  0  0  0  0  0
    6.6705   -1.7071   23.5414 H   0  0  0  0  0  0  0  0  0  0  0  0
    7.6324   -0.4487   24.3034 H   0  0  0  0  0  0  0  0  0  0  0  0
    7.5912   -0.1058   22.5039 H   0  0  0  0  0  0  0  0  0  0  0  0
  1  3  1  0  0  0  0
  1  5  2  0  0  0  0
  2  4  2  0  0  0  0
  2  7  1  0  0  0  0
  3  9  2  0  0  0  0
  4 10  1  0  0  0  0
  5 11  1  0  0  0  0
  6  9  1  0  0  0  0
  6 11  2  0  0  0  0
  7 18  2  0  0  0  0
  8 10  2  0  0  0  0
  8 18  1  0  0  0  0
  9 17  1  0  0  0  0
 10 19  1  0  0  0  0
 11 21  1  0  0  0  0
 12 17  1  0  0  0  0
 12 19  1  0  0  0  0
 12 20  2  0  0  0  0
 13 14  1  0  0  0  0
 13 15  1  0  0  0  0
 14 16  1  0  0  0  0
 15 17  1  0  0  0  0
 16 17  1  0  0  0  0
  1 22  1  0  0  0  0
  2 23  1  0  0  0  0
  3 24  1  0  0  0  0
  4 25  1  0  0  0  0
  5 26  1  0  0  0  0
  6 27  1  0  0  0  0
  7 28  1  0  0  0  0
  8 29  1  0  0  0  0
 13 30  1  0  0  0  0
 13 31  1  0  0  0  0
 14 32  1  0  0  0  0
 14 33  1  0  0  0  0
 15 34  1  0  0  0  0
 15 35  1  0  0  0  0
 16 36  1  0  0  0  0
 16 37  1  0  0  0  0
 19 38  1  0  0  0  0
M  END
> <Hybrid2>
-11.800355

> <fragments>
x0678

> <site>
active-noncovalent

$$$$
top_hits_only_mpro-138_1
  -OEChem-03302021283D

 39 42  0     0  0  0  0  0  0999 V2000
   13.3054   -0.4346   23.9586 C   0  0  0  0  0  0  0  0  0  0  0  0
   13.4612    0.6044   23.0479 C   0  0  0  0  0  0  0  0  0  0  0  0
    6.0854    0.3223   19.3956 C   0  0  0  0  0  0  0  0  0  0  0  0
   12.1688   -1.2349   23.8992 C   0  0  0  0  0  0  0  0  0  0  0  0
    7.0223    0.0717   20.3920 C   0  0  0  0  0  0  0  0  0  0  0  0
    7.4238   -5.3419   22.4794 C   0  0  0  0  0  0  0  0  0  0  0  0
    6.2877   -3.8442   23.9970 C   0  0  0  0  0  0  0  0  0  0  0  0
   12.4807    0.8409   22.0798 C   0  0  0  0  0  0  0  0  0  0  0  0
    8.6049   -4.6201   22.6512 C   0  0  0  0  0  0  0  0  0  0  0  0
    7.4689   -3.1224   24.1689 C   0  0  0  0  0  0  0  0  0  0  0  0
    6.5035    0.2414   18.0771 C   0  0  0  0  0  0  0  0  0  0  0  0
    8.6477   -0.3032   18.6968 C   0  0  0  0  0  0  0  0  0  0  0  0
   11.1874   -0.9906   22.9228 C   0  0  0  0  0  0  0  0  0  0  0  0
    8.3301   -0.2476   20.0443 C   0  0  0  0  0  0  0  0  0  0  0  0
    6.2651   -4.9539   23.1523 C   0  0  0  0  0  0  0  0  0  0  0  0
   11.3334    0.0556   21.9973 C   0  0  0  0  0  0  0  0  0  0  0  0
    8.6275   -3.5104   23.4960 C   0  0  0  0  0  0  0  0  0  0  0  0
   10.0284   -1.7532   22.8090 C   0  0  0  0  0  0  0  0  0  0  0  0
    9.3230   -0.5119   21.0528 C   0  0  0  0  0  0  0  0  0  0  0  0
    5.0024   -5.7258   22.9692 C   0  0  0  0  0  0  0  0  0  0  0  0
    7.7649   -0.0660   17.7007 N   0  0  0  0  0  0  0  0  0  0  0  0
   10.4012    0.2980   21.0593 N   0  0  0  0  0  0  0  0  0  0  0  0
    9.0754   -1.5381   21.8826 N   0  0  0  0  0  0  0  0  0  0  0  0
    9.7967   -2.7971   23.6669 O   0  0  0  0  0  0  0  0  0  0  0  0
   14.0659   -0.6197   24.7110 H   0  0  0  0  0  0  0  0  0  0  0  0
   14.3456    1.2340   23.0878 H   0  0  0  0  0  0  0  0  0  0  0  0
    5.0600    0.5723   19.6424 H   0  0  0  0  0  0  0  0  0  0  0  0
   12.0615   -2.0436   24.6175 H   0  0  0  0  0  0  0  0  0  0  0  0
    6.7192    0.1290   21.4345 H   0  0  0  0  0  0  0  0  0  0  0  0
    7.4153   -6.2051   21.8193 H   0  0  0  0  0  0  0  0  0  0  0  0
    5.3896   -3.5345   24.5253 H   0  0  0  0  0  0  0  0  0  0  0  0
   12.6271    1.6614   21.3795 H   0  0  0  0  0  0  0  0  0  0  0  0
    9.5044   -4.9276   22.1245 H   0  0  0  0  0  0  0  0  0  0  0  0
    7.4800   -2.2592   24.8284 H   0  0  0  0  0  0  0  0  0  0  0  0
    5.8109    0.4284   17.2627 H   0  0  0  0  0  0  0  0  0  0  0  0
    9.6507   -0.5480   18.3592 H   0  0  0  0  0  0  0  0  0  0  0  0
    4.9348   -6.5297   23.7125 H   0  0  0  0  0  0  0  0  0  0  0  0
    4.1213   -5.0796   23.0747 H   0  0  0  0  0  0  0  0  0  0  0  0
    4.9502   -6.1727   21.9677 H   0  0  0  0  0  0  0  0  0  0  0  0
  1  2  1  0  0  0  0
  1  4  2  0  0  0  0
  2  8  2  0  0  0  0
  3  5  2  0  0  0  0
  3 11  1  0  0  0  0
  4 13  1  0  0  0  0
  5 14  1  0  0  0  0
  6  9  2  0  0  0  0
  6 15  1  0  0  0  0
  7 10  1  0  0  0  0
  7 15  2  0  0  0  0
  8 16  1  0  0  0  0
  9 17  1  0  0  0  0
 10 17  2  0  0  0  0
 11 21  2  0  0  0  0
 12 14  2  0  0  0  0
 12 21  1  0  0  0  0
 13 16  1  0  0  0  0
 13 18  2  0  0  0  0
 14 19  1  0  0  0  0
 15 20  1  0  0  0  0
 16 22  2  0  0  0  0
 17 24  1  0  0  0  0
 18 23  1  0  0  0  0
 18 24  1  0  0  0  0
 19 22  1  0  0  0  0
 19 23  2  0  0  0  0
  1 25  1  0  0  0  0
  2 26  1  0  0  0  0
  3 27  1  0  0  0  0
  4 28  1  0  0  0  0
  5 29  1  0  0  0  0
  6 30  1  0  0  0  0
  7 31  1  0  0  0  0
  8 32  1  0  0  0  0
  9 33  1  0  0  0  0
 10 34  1  0  0  0  0
 11 35  1  0  0  0  0
 12 36  1  0  0  0  0
 20 37  1  0  0  0  0
 20 38  1  0  0  0  0
 20 39  1  0  0  0  0
M  END
> <Hybrid2>
-11.766344

> <fragments>
x0678

> <site>
active-noncovalent

$$$$
top_hits_only_mpro-6_1
  -OEChem-03302021283D

 37 39  0     1  0  0  0  0  0999 V2000
    8.0624   -3.6419   25.2017 C   0  0  0  0  0  0  0  0  0  0  0  0
    8.4270   -2.2962   25.2443 C   0  0  0  0  0  0  0  0  0  0  0  0
    8.4698   -4.4413   24.1337 C   0  0  0  0  0  0  0  0  0  0  0  0
   13.3208   -0.2559   23.7884 C   0  0  0  0  0  0  0  0  0  0  0  0
   13.1746    1.0360   23.2954 C   0  0  0  0  0  0  0  0  0  0  0  0
    9.1988   -1.7499   24.2189 C   0  0  0  0  0  0  0  0  0  0  0  0
    9.2416   -3.8951   23.1083 C   0  0  0  0  0  0  0  0  0  0  0  0
   12.4325   -1.2497   23.3927 C   0  0  0  0  0  0  0  0  0  0  0  0
    6.6347    0.5811   20.1860 C   0  0  0  0  0  0  0  0  0  0  0  0
   12.1321    1.2805   22.4162 C   0  0  0  0  0  0  0  0  0  0  0  0
    8.3720   -0.1697   18.7457 C   0  0  0  0  0  0  0  0  0  0  0  0
    6.4765    0.7387   17.8182 C   0  0  0  0  0  0  0  0  0  0  0  0
    7.8915    0.0063   20.0332 C   0  0  0  0  0  0  0  0  0  0  0  0
    9.6062   -2.5494   23.1509 C   0  0  0  0  0  0  0  0  0  0  0  0
    5.9071    0.9570   19.0623 C   0  0  0  0  0  0  0  0  0  0  0  0
   11.4231   -0.9028   22.5092 C   0  0  0  0  0  0  0  0  0  0  0  0
    8.6954   -0.4054   21.2128 C   0  0  0  0  0  0  0  0  0  0  0  0
   10.4314   -1.9658   22.0540 C   0  0  2  0  0  0  0  0  0  0  0  0
    7.6945    0.1829   17.6302 N   0  0  0  0  0  0  0  0  0  0  0  0
   11.2494    0.3411   22.0089 N   0  0  0  0  0  0  0  0  0  0  0  0
    9.5791   -1.4261   20.9784 N   0  0  0  0  0  0  0  0  0  0  0  0
    8.5126    0.1568   22.2893 O   0  0  0  0  0  0  0  0  0  0  0  0
    4.2007    1.7371   19.2272 Br  0  0  0  0  0  0  0  0  0  0  0  0
    7.4625   -4.0674   26.0009 H   0  0  0  0  0  0  0  0  0  0  0  0
    8.1108   -1.6738   26.0764 H   0  0  0  0  0  0  0  0  0  0  0  0
    8.1870   -5.4893   24.1007 H   0  0  0  0  0  0  0  0  0  0  0  0
   14.1255   -0.4876   24.4797 H   0  0  0  0  0  0  0  0  0  0  0  0
   13.8553    1.8264   23.5901 H   0  0  0  0  0  0  0  0  0  0  0  0
    9.4780   -0.7004   24.2604 H   0  0  0  0  0  0  0  0  0  0  0  0
    9.5543   -4.5255   22.2801 H   0  0  0  0  0  0  0  0  0  0  0  0
   12.5356   -2.2614   23.7700 H   0  0  0  0  0  0  0  0  0  0  0  0
    6.2270    0.7338   21.1829 H   0  0  0  0  0  0  0  0  0  0  0  0
   11.9750    2.2715   22.0031 H   0  0  0  0  0  0  0  0  0  0  0  0
    9.3464   -0.6128   18.5631 H   0  0  0  0  0  0  0  0  0  0  0  0
    5.9600    1.0090   16.9020 H   0  0  0  0  0  0  0  0  0  0  0  0
   11.0142   -2.7584   21.5500 H   0  0  0  0  0  0  0  0  0  0  0  0
    9.6471   -1.8959   20.0963 H   0  0  0  0  0  0  0  0  0  0  0  0
  1  2  1  0  0  0  0
  1  3  2  0  0  0  0
  2  6  2  0  0  0  0
  3  7  1  0  0  0  0
  4  5  1  0  0  0  0
  4  8  2  0  0  0  0
  5 10  2  0  0  0  0
  6 14  1  0  0  0  0
  7 14  2  0  0  0  0
  8 16  1  0  0  0  0
  9 13  1  0  0  0  0
  9 15  2  0  0  0  0
 10 20  1  0  0  0  0
 11 13  2  0  0  0  0
 11 19  1  0  0  0  0
 12 15  1  0  0  0  0
 12 19  2  0  0  0  0
 13 17  1  0  0  0  0
 14 18  1  0  0  0  0
 15 23  1  0  0  0  0
 16 18  1  0  0  0  0
 16 20  2  0  0  0  0
 17 21  1  0  0  0  0
 17 22  2  0  0  0  0
 18 21  1  0  0  0  0
  1 24  1  0  0  0  0
  2 25  1  0  0  0  0
  3 26  1  0  0  0  0
  4 27  1  0  0  0  0
  5 28  1  0  0  0  0
  6 29  1  0  0  0  0
  7 30  1  0  0  0  0
  8 31  1  0  0  0  0
  9 32  1  0  0  0  0
 10 33  1  0  0  0  0
 11 34  1  0  0  0  0
 12 35  1  0  0  0  0
 18 36  1  0  0  0  0
 21 37  1  0  0  0  0
M  END
> <Hybrid2>
-11.750984

> <fragments>
x0678

> <site>
active-noncovalent

$$$$
top_hits_only_mpro-189_2
  -OEChem-03302021283D

 34 36  0     0  0  0  0  0  0999 V2000
    9.6386   -1.9185   22.3295 C   0  0  0  0  0  0  0  0  0  0  0  0
    9.6484   -0.8945   24.5178 C   0  0  0  0  0  0  0  0  0  0  0  0
   10.9714   -1.5484   22.1503 C   0  0  0  0  0  0  0  0  0  0  0  0
   10.9813   -0.5244   24.3386 C   0  0  0  0  0  0  0  0  0  0  0  0
    6.8461   -0.0181   18.8741 C   0  0  0  0  0  0  0  0  0  0  0  0
    4.2176    1.9194   21.0301 C   0  0  0  0  0  0  0  0  0  0  0  0
    5.9968    0.5505   19.7789 C   0  0  0  0  0  0  0  0  0  0  0  0
    8.9770   -1.5915   23.5132 C   0  0  0  0  0  0  0  0  0  0  0  0
   11.6428   -0.8514   23.1549 C   0  0  0  0  0  0  0  0  0  0  0  0
    5.2167    1.4997   19.0601 C   0  0  0  0  0  0  0  0  0  0  0  0
    5.8966    0.2741   21.1331 C   0  0  0  0  0  0  0  0  0  0  0  0
    7.5351   -1.9914   23.7079 C   0  0  0  0  0  0  0  0  0  0  0  0
    6.5517   -0.9318   23.2169 C   0  0  0  0  0  0  0  0  0  0  0  0
   13.0685   -0.4576   22.9632 C   0  0  0  0  0  0  0  0  0  0  0  0
    4.2659    2.2401   19.6963 N   0  0  0  0  0  0  0  0  0  0  0  0
    4.9460    1.0135   21.7722 N   0  0  0  0  0  0  0  0  0  0  0  0
    5.5626    1.5223   17.7682 N   0  0  0  0  0  0  0  0  0  0  0  0
    6.5452    0.5979   17.6886 N   0  0  0  0  0  0  0  0  0  0  0  0
    6.6808   -0.6695   21.8126 N   0  0  0  0  0  0  0  0  0  0  0  0
   13.5862   -0.8443   21.7597 F   0  0  0  0  0  0  0  0  0  0  0  0
   13.2759    0.8911   23.0230 F   0  0  0  0  0  0  0  0  0  0  0  0
   13.8937   -0.9972   23.9070 F   0  0  0  0  0  0  0  0  0  0  0  0
    9.1231   -2.4608   21.5412 H   0  0  0  0  0  0  0  0  0  0  0  0
    9.1408   -0.6367   25.4437 H   0  0  0  0  0  0  0  0  0  0  0  0
   11.4793   -1.8087   21.2256 H   0  0  0  0  0  0  0  0  0  0  0  0
   11.4969    0.0186   25.1263 H   0  0  0  0  0  0  0  0  0  0  0  0
    7.6147   -0.7752   18.9396 H   0  0  0  0  0  0  0  0  0  0  0  0
    3.4770    2.4733   21.6010 H   0  0  0  0  0  0  0  0  0  0  0  0
    7.3662   -2.1755   24.7764 H   0  0  0  0  0  0  0  0  0  0  0  0
    7.3437   -2.9470   23.2031 H   0  0  0  0  0  0  0  0  0  0  0  0
    5.5243   -1.2718   23.3814 H   0  0  0  0  0  0  0  0  0  0  0  0
    6.6853    0.0186   23.7441 H   0  0  0  0  0  0  0  0  0  0  0  0
    6.9718    0.4344   16.7855 H   0  0  0  0  0  0  0  0  0  0  0  0
    7.3627   -1.1772   21.2745 H   0  0  0  0  0  0  0  0  0  0  0  0
  1  3  2  0  0  0  0
  1  8  1  0  0  0  0
  2  4  1  0  0  0  0
  2  8  2  0  0  0  0
  3  9  1  0  0  0  0
  4  9  2  0  0  0  0
  5  7  2  0  0  0  0
  5 18  1  0  0  0  0
  6 15  2  0  0  0  0
  6 16  1  0  0  0  0
  7 10  1  0  0  0  0
  7 11  1  0  0  0  0
  8 12  1  0  0  0  0
  9 14  1  0  0  0  0
 10 15  1  0  0  0  0
 10 17  2  0  0  0  0
 11 16  2  0  0  0  0
 11 19  1  0  0  0  0
 12 13  1  0  0  0  0
 13 19  1  0  0  0  0
 14 20  1  0  0  0  0
 14 21  1  0  0  0  0
 14 22  1  0  0  0  0
 17 18  1  0  0  0  0
  1 23  1  0  0  0  0
  2 24  1  0  0  0  0
  3 25  1  0  0  0  0
  4 26  1  0  0  0  0
  5 27  1  0  0  0  0
  6 28  1  0  0  0  0
 12 29  1  0  0  0  0
 12 30  1  0  0  0  0
 13 31  1  0  0  0  0
 13 32  1  0  0  0  0
 18 33  1  0  0  0  0
 19 34  1  0  0  0  0
M  END
> <Hybrid2>
-11.743460

> <fragments>
x1093

> <site>
active-noncovalent

$$$$
top_hits_only_mpro-145_1
  -OEChem-03302021283D

 40 43  0     0  0  0  0  0  0999 V2000
    6.3466    2.6413   25.9907 C   0  0  0  0  0  0  0  0  0  0  0  0
    6.2936    1.3209   25.5441 C   0  0  0  0  0  0  0  0  0  0  0  0
    7.5572    3.3342   25.9769 C   0  0  0  0  0  0  0  0  0  0  0  0
    7.4512    0.6934   25.0838 C   0  0  0  0  0  0  0  0  0  0  0  0
    8.7147    2.7067   25.5166 C   0  0  0  0  0  0  0  0  0  0  0  0
    6.2145    0.2191   18.3211 C   0  0  0  0  0  0  0  0  0  0  0  0
    6.0038    0.3092   19.6794 C   0  0  0  0  0  0  0  0  0  0  0  0
    8.4633    0.4681   18.6534 C   0  0  0  0  0  0  0  0  0  0  0  0
    8.6618    1.3863   25.0700 C   0  0  0  0  0  0  0  0  0  0  0  0
    9.8501    0.7424   24.5977 C   0  0  0  0  0  0  0  0  0  0  0  0
    8.2527    0.5589   20.0116 C   0  0  0  0  0  0  0  0  0  0  0  0
   10.0294    0.2289   23.3349 C   0  0  0  0  0  0  0  0  0  0  0  0
   11.8321   -0.0568   24.5962 C   0  0  0  0  0  0  0  0  0  0  0  0
   13.1616   -0.5109   24.8303 C   0  0  0  0  0  0  0  0  0  0  0  0
   13.8399   -1.1299   23.8449 C   0  0  0  0  0  0  0  0  0  0  0  0
   11.9937   -0.9236   22.3057 C   0  0  0  0  0  0  0  0  0  0  0  0
   13.2505   -1.3543   22.5259 C   0  0  0  0  0  0  0  0  0  0  0  0
    9.3712    0.7459   20.9516 C   0  0  0  0  0  0  0  0  0  0  0  0
   14.0818   -2.0504   21.4974 C   0  0  0  0  0  0  0  0  0  0  0  0
    7.4481    0.2969   17.7837 N   0  0  0  0  0  0  0  0  0  0  0  0
    7.0191    0.4807   20.5491 N   0  0  0  0  0  0  0  0  0  0  0  0
   10.9675    0.5631   25.3731 N   0  0  0  0  0  0  0  0  0  0  0  0
   11.3009   -0.2852   23.3308 N   0  0  0  0  0  0  0  0  0  0  0  0
    9.1914    0.1887   22.2506 N   0  0  0  0  0  0  0  0  0  0  0  0
   10.3742    1.3763   20.6240 O   0  0  0  0  0  0  0  0  0  0  0  0
    5.4452    3.1304   26.3482 H   0  0  0  0  0  0  0  0  0  0  0  0
    5.3510    0.7816   25.5536 H   0  0  0  0  0  0  0  0  0  0  0  0
    7.5979    4.3626   26.3235 H   0  0  0  0  0  0  0  0  0  0  0  0
    7.3937   -0.3364   24.7389 H   0  0  0  0  0  0  0  0  0  0  0  0
    9.6506    3.2606   25.5121 H   0  0  0  0  0  0  0  0  0  0  0  0
    5.3984    0.0817   17.6226 H   0  0  0  0  0  0  0  0  0  0  0  0
    5.0123    0.2446   20.1106 H   0  0  0  0  0  0  0  0  0  0  0  0
    9.4520    0.5289   18.2135 H   0  0  0  0  0  0  0  0  0  0  0  0
   13.6150   -0.3525   25.8022 H   0  0  0  0  0  0  0  0  0  0  0  0
   14.8538   -1.4772   24.0179 H   0  0  0  0  0  0  0  0  0  0  0  0
   11.4881   -1.0527   21.3556 H   0  0  0  0  0  0  0  0  0  0  0  0
   13.9216   -3.1262   21.5608 H   0  0  0  0  0  0  0  0  0  0  0  0
   15.1362   -1.8325   21.6661 H   0  0  0  0  0  0  0  0  0  0  0  0
   13.8046   -1.7027   20.5025 H   0  0  0  0  0  0  0  0  0  0  0  0
    8.2995   -0.3199   22.3966 H   0  0  0  0  0  0  0  0  0  0  0  0
  1  2  1  0  0  0  0
  1  3  2  0  0  0  0
  2  4  2  0  0  0  0
  3  5  1  0  0  0  0
  4  9  1  0  0  0  0
  5  9  2  0  0  0  0
  6  7  2  0  0  0  0
  6 20  1  0  0  0  0
  7 21  1  0  0  0  0
  8 11  1  0  0  0  0
  8 20  2  0  0  0  0
  9 10  1  0  0  0  0
 10 12  2  0  0  0  0
 10 22  1  0  0  0  0
 11 18  1  0  0  0  0
 11 21  2  0  0  0  0
 12 23  1  0  0  0  0
 12 24  1  0  0  0  0
 13 14  1  0  0  0  0
 13 22  2  0  0  0  0
 13 23  1  0  0  0  0
 14 15  2  0  0  0  0
 15 17  1  0  0  0  0
 16 17  2  0  0  0  0
 16 23  1  0  0  0  0
 17 19  1  0  0  0  0
 18 24  1  0  0  0  0
 18 25  2  0  0  0  0
  1 26  1  0  0  0  0
  2 27  1  0  0  0  0
  3 28  1  0  0  0  0
  4 29  1  0  0  0  0
  5 30  1  0  0  0  0
  6 31  1  0  0  0  0
  7 32  1  0  0  0  0
  8 33  1  0  0  0  0
 14 34  1  0  0  0  0
 15 35  1  0  0  0  0
 16 36  1  0  0  0  0
 19 37  1  0  0  0  0
 19 38  1  0  0  0  0
 19 39  1  0  0  0  0
 24 40  1  0  0  0  0
M  END
> <Hybrid2>
-11.738350

> <fragments>
x0678

> <site>
active-noncovalent

$$$$
top_hits_only_mpro-195_1
  -OEChem-03302021283D

 36 39  0     0  0  0  0  0  0999 V2000
   11.1725    0.9869   25.0018 C   0  0  0  0  0  0  0  0  0  0  0  0
   11.5821    1.8643   24.0040 C   0  0  0  0  0  0  0  0  0  0  0  0
    5.1922    1.1437   18.8590 C   0  0  0  0  0  0  0  0  0  0  0  0
   10.0353    0.2092   24.8076 C   0  0  0  0  0  0  0  0  0  0  0  0
    5.8706    1.0375   20.0681 C   0  0  0  0  0  0  0  0  0  0  0  0
   10.8543    1.9620   22.8144 C   0  0  0  0  0  0  0  0  0  0  0  0
    9.0832   -2.9460   23.2203 C   0  0  0  0  0  0  0  0  0  0  0  0
    9.5799   -4.2461   23.1275 C   0  0  0  0  0  0  0  0  0  0  0  0
    8.2373   -4.8947   25.0285 C   0  0  0  0  0  0  0  0  0  0  0  0
    5.8864    0.8457   17.6975 C   0  0  0  0  0  0  0  0  0  0  0  0
    7.8076    0.3661   18.8625 C   0  0  0  0  0  0  0  0  0  0  0  0
    9.3089    0.3132   23.6086 C   0  0  0  0  0  0  0  0  0  0  0  0
    7.2035    0.6419   20.0786 C   0  0  0  0  0  0  0  0  0  0  0  0
    9.7127    1.1956   22.5933 C   0  0  0  0  0  0  0  0  0  0  0  0
    8.1636   -2.6202   24.2172 C   0  0  0  0  0  0  0  0  0  0  0  0
    9.1569   -5.2205   24.0316 C   0  0  0  0  0  0  0  0  0  0  0  0
    7.7406   -3.5946   25.1213 C   0  0  0  0  0  0  0  0  0  0  0  0
    8.1640   -0.4356   23.3513 C   0  0  0  0  0  0  0  0  0  0  0  0
    7.9329    0.5231   21.3141 C   0  0  0  0  0  0  0  0  0  0  0  0
    7.1813    0.4582   17.6680 N   0  0  0  0  0  0  0  0  0  0  0  0
    9.0255    1.3029   21.4426 N   0  0  0  0  0  0  0  0  0  0  0  0
    7.4525   -0.3529   22.2113 N   0  0  0  0  0  0  0  0  0  0  0  0
    7.6918   -1.3247   24.2818 O   0  0  0  0  0  0  0  0  0  0  0  0
    9.6341   -6.4689   23.9421 F   0  0  0  0  0  0  0  0  0  0  0  0
    6.4921   -3.1884   26.4881 Br  0  0  0  0  0  0  0  0  0  0  0  0
   11.7366    0.9098   25.9263 H   0  0  0  0  0  0  0  0  0  0  0  0
   12.4688    2.4753   24.1480 H   0  0  0  0  0  0  0  0  0  0  0  0
    4.1528    1.4493   18.8260 H   0  0  0  0  0  0  0  0  0  0  0  0
    9.7280   -0.4724   25.5966 H   0  0  0  0  0  0  0  0  0  0  0  0
    5.3481    1.2660   20.9937 H   0  0  0  0  0  0  0  0  0  0  0  0
   11.1964    2.6574   22.0498 H   0  0  0  0  0  0  0  0  0  0  0  0
    9.4184   -2.1921   22.5132 H   0  0  0  0  0  0  0  0  0  0  0  0
   10.2966   -4.5001   22.3521 H   0  0  0  0  0  0  0  0  0  0  0  0
    7.9200   -5.6673   25.7240 H   0  0  0  0  0  0  0  0  0  0  0  0
    5.4024    0.9136   16.7285 H   0  0  0  0  0  0  0  0  0  0  0  0
    8.8457    0.0516   18.8023 H   0  0  0  0  0  0  0  0  0  0  0  0
  1  2  1  0  0  0  0
  1  4  2  0  0  0  0
  2  6  2  0  0  0  0
  3  5  2  0  0  0  0
  3 10  1  0  0  0  0
  4 12  1  0  0  0  0
  5 13  1  0  0  0  0
  6 14  1  0  0  0  0
  7  8  2  0  0  0  0
  7 15  1  0  0  0  0
  8 16  1  0  0  0  0
  9 16  2  0  0  0  0
  9 17  1  0  0  0  0
 10 20  2  0  0  0  0
 11 13  2  0  0  0  0
 11 20  1  0  0  0  0
 12 14  1  0  0  0  0
 12 18  2  0  0  0  0
 13 19  1  0  0  0  0
 14 21  2  0  0  0  0
 15 17  2  0  0  0  0
 15 23  1  0  0  0  0
 16 24  1  0  0  0  0
 17 25  1  0  0  0  0
 18 22  1  0  0  0  0
 18 23  1  0  0  0  0
 19 21  1  0  0  0  0
 19 22  2  0  0  0  0
  1 26  1  0  0  0  0
  2 27  1  0  0  0  0
  3 28  1  0  0  0  0
  4 29  1  0  0  0  0
  5 30  1  0  0  0  0
  6 31  1  0  0  0  0
  7 32  1  0  0  0  0
  8 33  1  0  0  0  0
  9 34  1  0  0  0  0
 10 35  1  0  0  0  0
 11 36  1  0  0  0  0
M  END
> <Hybrid2>
-11.723173

> <fragments>
x1077

> <site>
active-noncovalent

$$$$
top_hits_only_mpro-35_1
  -OEChem-03302021283D

 51 53  0     1  0  0  0  0  0999 V2000
    5.9181    1.3072   19.1831 C   0  0  0  0  0  0  0  0  0  0  0  0
    6.5035    0.7247   20.3017 C   0  0  0  0  0  0  0  0  0  0  0  0
    6.3986    0.9428   17.9357 C   0  0  0  0  0  0  0  0  0  0  0  0
    7.9448   -0.4891   18.8507 C   0  0  0  0  0  0  0  0  0  0  0  0
    7.5369   -0.1915   20.1410 C   0  0  0  0  0  0  0  0  0  0  0  0
    9.3856   -0.0617   21.8667 C   0  0  0  0  0  0  0  0  0  0  0  0
    8.8119   -1.7335   26.6729 C   0  0  0  0  0  0  0  0  0  0  0  0
   13.7562    0.1664   23.9437 C   0  0  0  0  0  0  0  0  0  0  0  0
   14.1081   -1.1388   21.8093 C   0  0  0  0  0  0  0  0  0  0  0  0
   12.2705   -0.1891   23.9179 C   0  0  0  0  0  0  0  0  0  0  0  0
   12.6230   -1.4965   21.7813 C   0  0  0  0  0  0  0  0  0  0  0  0
    9.7669   -1.2742   25.5999 C   0  0  0  0  0  0  0  0  0  0  0  0
    8.4133   -3.1049   26.1708 C   0  0  0  0  0  0  0  0  0  0  0  0
   14.6352   -0.8671   23.2253 C   0  0  0  0  0  0  0  0  0  0  0  0
   11.7723   -0.4415   22.4927 C   0  0  0  0  0  0  0  0  0  0  0  0
    9.1049   -1.8262   24.3494 C   0  0  1  0  0  0  0  0  0  0  0  0
   14.7672   -2.1588   24.0370 C   0  0  0  0  0  0  0  0  0  0  0  0
    8.1922   -0.8415   21.3348 C   0  0  0  0  0  0  0  0  0  0  0  0
   10.0745   -2.0719   23.2099 C   0  0  0  0  0  0  0  0  0  0  0  0
    7.4005    0.0565   17.7399 N   0  0  0  0  0  0  0  0  0  0  0  0
   10.3813   -0.8290   22.5003 N   0  0  0  0  0  0  0  0  0  0  0  0
    9.4463    1.1640   21.7350 O   0  0  0  0  0  0  0  0  0  0  0  0
    8.4845   -3.0634   24.7377 O   0  0  0  0  0  0  0  0  0  0  0  0
    5.1110    2.0238   19.2844 H   0  0  0  0  0  0  0  0  0  0  0  0
    6.1482    0.9902   21.2937 H   0  0  0  0  0  0  0  0  0  0  0  0
    5.9756    1.3692   17.0320 H   0  0  0  0  0  0  0  0  0  0  0  0
    8.7465   -1.1967   18.6630 H   0  0  0  0  0  0  0  0  0  0  0  0
    9.2512   -1.7561   27.6736 H   0  0  0  0  0  0  0  0  0  0  0  0
    7.9358   -1.0747   26.6981 H   0  0  0  0  0  0  0  0  0  0  0  0
   13.8953    1.1569   23.4787 H   0  0  0  0  0  0  0  0  0  0  0  0
   14.0883    0.2771   24.9904 H   0  0  0  0  0  0  0  0  0  0  0  0
   14.6876   -1.9554   21.3464 H   0  0  0  0  0  0  0  0  0  0  0  0
   14.2762   -0.2531   21.1749 H   0  0  0  0  0  0  0  0  0  0  0  0
   12.0847   -1.0610   24.5502 H   0  0  0  0  0  0  0  0  0  0  0  0
   11.7009    0.6401   24.3485 H   0  0  0  0  0  0  0  0  0  0  0  0
   12.2978   -1.5647   20.7399 H   0  0  0  0  0  0  0  0  0  0  0  0
   12.4677   -2.4811   22.2269 H   0  0  0  0  0  0  0  0  0  0  0  0
    9.8962   -0.1888   25.5689 H   0  0  0  0  0  0  0  0  0  0  0  0
   10.7497   -1.7336   25.7614 H   0  0  0  0  0  0  0  0  0  0  0  0
    9.1142   -3.8722   26.5163 H   0  0  0  0  0  0  0  0  0  0  0  0
    7.4040   -3.3888   26.4818 H   0  0  0  0  0  0  0  0  0  0  0  0
   15.6520   -0.4318   23.1268 H   0  0  0  0  0  0  0  0  0  0  0  0
   11.8156    0.4956   21.9267 H   0  0  0  0  0  0  0  0  0  0  0  0
    8.3111   -1.1549   24.0073 H   0  0  0  0  0  0  0  0  0  0  0  0
   13.7885   -2.6202   24.1578 H   0  0  0  0  0  0  0  0  0  0  0  0
   15.1806   -1.9365   25.0193 H   0  0  0  0  0  0  0  0  0  0  0  0
   15.4278   -2.8531   23.5204 H   0  0  0  0  0  0  0  0  0  0  0  0
    8.5218   -1.8488   21.0535 H   0  0  0  0  0  0  0  0  0  0  0  0
    7.4479   -0.9457   22.1334 H   0  0  0  0  0  0  0  0  0  0  0  0
   11.0062   -2.4930   23.6157 H   0  0  0  0  0  0  0  0  0  0  0  0
    9.6258   -2.7867   22.5044 H   0  0  0  0  0  0  0  0  0  0  0  0
  1  2  2  0  0  0  0
  1  3  1  0  0  0  0
  2  5  1  0  0  0  0
  3 20  2  0  0  0  0
  4  5  2  0  0  0  0
  4 20  1  0  0  0  0
  5 18  1  0  0  0  0
  6 18  1  0  0  0  0
  6 21  1  0  0  0  0
  6 22  2  0  0  0  0
  7 12  1  0  0  0  0
  7 13  1  0  0  0  0
  8 10  1  0  0  0  0
  8 14  1  0  0  0  0
  9 11  1  0  0  0  0
  9 14  1  0  0  0  0
 10 15  1  0  0  0  0
 11 15  1  0  0  0  0
 12 16  1  0  0  0  0
 13 23  1  0  0  0  0
 14 17  1  0  0  0  0
 15 21  1  0  0  0  0
 16 19  1  0  0  0  0
 16 23  1  0  0  0  0
 19 21  1  0  0  0  0
  1 24  1  0  0  0  0
  2 25  1  0  0  0  0
  3 26  1  0  0  0  0
  4 27  1  0  0  0  0
  7 28  1  0  0  0  0
  7 29  1  0  0  0  0
  8 30  1  0  0  0  0
  8 31  1  0  0  0  0
  9 32  1  0  0  0  0
  9 33  1  0  0  0  0
 10 34  1  0  0  0  0
 10 35  1  0  0  0  0
 11 36  1  0  0  0  0
 11 37  1  0  0  0  0
 12 38  1  0  0  0  0
 12 39  1  0  0  0  0
 13 40  1  0  0  0  0
 13 41  1  0  0  0  0
 14 42  1  0  0  0  0
 15 43  1  0  0  0  0
 16 44  1  0  0  0  0
 17 45  1  0  0  0  0
 17 46  1  0  0  0  0
 17 47  1  0  0  0  0
 18 48  1  0  0  0  0
 18 49  1  0  0  0  0
 19 50  1  0  0  0  0
 19 51  1  0  0  0  0
M  END
> <Hybrid2>
-11.701943

> <fragments>
x0678

> <site>
active-noncovalent

$$$$
top_hits_only_mpro-308_1
  -OEChem-03302021283D

 44 47  0     1  0  0  0  0  0999 V2000
   13.9839   -1.3304   22.6590 C   0  0  0  0  0  0  0  0  0  0  0  0
   12.9488   -2.2564   22.7229 C   0  0  0  0  0  0  0  0  0  0  0  0
   13.7502   -0.0038   23.0152 C   0  0  0  0  0  0  0  0  0  0  0  0
   11.6769   -1.8537   23.1315 C   0  0  0  0  0  0  0  0  0  0  0  0
    6.1107    0.5710   20.0700 C   0  0  0  0  0  0  0  0  0  0  0  0
    7.6158   -0.4714   18.6194 C   0  0  0  0  0  0  0  0  0  0  0  0
    6.1363    1.0752   17.8536 C   0  0  0  0  0  0  0  0  0  0  0  0
   12.4775    0.4118   23.4401 C   0  0  0  0  0  0  0  0  0  0  0  0
   11.4151   -0.5143   23.4721 C   0  0  0  0  0  0  0  0  0  0  0  0
    7.1373   -0.3366   19.9066 C   0  0  0  0  0  0  0  0  0  0  0  0
    8.8582   -0.4335   21.7620 C   0  0  0  0  0  0  0  0  0  0  0  0
   12.2783    1.8614   23.8065 C   0  0  0  0  0  0  0  0  0  0  0  0
   11.0255    2.0961   24.6442 C   0  0  0  0  0  0  0  0  0  0  0  0
    9.8307    1.4142   23.9948 C   0  0  0  0  0  0  0  0  0  0  0  0
    7.8074   -2.9827   23.3868 C   0  0  0  0  0  0  0  0  0  0  0  0
    8.5603   -2.7399   24.6608 C   0  0  0  0  0  0  0  0  0  0  0  0
   10.0310   -0.1058   23.9429 C   0  0  1  0  0  0  0  0  0  0  0  0
    8.0588   -1.5746   23.8525 C   0  0  0  0  0  0  0  0  0  0  0  0
    7.7010   -1.1292   21.0604 C   0  0  0  0  0  0  0  0  0  0  0  0
    5.5841    1.2966   19.0617 N   0  0  0  0  0  0  0  0  0  0  0  0
    7.1368    0.2211   17.5652 N   0  0  0  0  0  0  0  0  0  0  0  0
    8.9821   -0.6929   23.1386 N   0  0  0  0  0  0  0  0  0  0  0  0
    9.6222    0.3055   21.1347 O   0  0  0  0  0  0  0  0  0  0  0  0
   14.9725   -1.6403   22.3351 H   0  0  0  0  0  0  0  0  0  0  0  0
   13.1290   -3.2937   22.4553 H   0  0  0  0  0  0  0  0  0  0  0  0
   14.5687    0.7104   22.9633 H   0  0  0  0  0  0  0  0  0  0  0  0
   10.8815   -2.5956   23.1839 H   0  0  0  0  0  0  0  0  0  0  0  0
    5.6652    0.7504   21.0436 H   0  0  0  0  0  0  0  0  0  0  0  0
    8.4221   -1.1597   18.3860 H   0  0  0  0  0  0  0  0  0  0  0  0
    5.7315    1.6442   17.0258 H   0  0  0  0  0  0  0  0  0  0  0  0
   13.1569    2.1907   24.3711 H   0  0  0  0  0  0  0  0  0  0  0  0
   12.2149    2.4704   22.8996 H   0  0  0  0  0  0  0  0  0  0  0  0
   11.1817    1.7048   25.6542 H   0  0  0  0  0  0  0  0  0  0  0  0
   10.8366    3.1708   24.7413 H   0  0  0  0  0  0  0  0  0  0  0  0
    8.9280    1.6402   24.5771 H   0  0  0  0  0  0  0  0  0  0  0  0
    9.6587    1.8165   22.9899 H   0  0  0  0  0  0  0  0  0  0  0  0
    8.3655   -3.3526   22.5354 H   0  0  0  0  0  0  0  0  0  0  0  0
    6.7972   -3.3659   23.4624 H   0  0  0  0  0  0  0  0  0  0  0  0
    8.0571   -2.9595   25.5944 H   0  0  0  0  0  0  0  0  0  0  0  0
    9.6234   -2.9468   24.6641 H   0  0  0  0  0  0  0  0  0  0  0  0
    9.8714   -0.4892   24.9669 H   0  0  0  0  0  0  0  0  0  0  0  0
    7.2071   -1.0355   24.2532 H   0  0  0  0  0  0  0  0  0  0  0  0
    8.0434   -2.1022   20.6884 H   0  0  0  0  0  0  0  0  0  0  0  0
    6.9006   -1.3136   21.7870 H   0  0  0  0  0  0  0  0  0  0  0  0
  1  2  2  0  0  0  0
  1  3  1  0  0  0  0
  2  4  1  0  0  0  0
  3  8  2  0  0  0  0
  4  9  2  0  0  0  0
  5 10  1  0  0  0  0
  5 20  2  0  0  0  0
  6 10  2  0  0  0  0
  6 21  1  0  0  0  0
  7 20  1  0  0  0  0
  7 21  2  0  0  0  0
  8  9  1  0  0  0  0
  8 12  1  0  0  0  0
  9 17  1  0  0  0  0
 10 19  1  0  0  0  0
 11 19  1  0  0  0  0
 11 22  1  0  0  0  0
 11 23  2  0  0  0  0
 12 13  1  0  0  0  0
 13 14  1  0  0  0  0
 14 17  1  0  0  0  0
 15 16  1  0  0  0  0
 15 18  1  0  0  0  0
 16 18  1  0  0  0  0
 17 22  1  0  0  0  0
 18 22  1  0  0  0  0
  1 24  1  0  0  0  0
  2 25  1  0  0  0  0
  3 26  1  0  0  0  0
  4 27  1  0  0  0  0
  5 28  1  0  0  0  0
  6 29  1  0  0  0  0
  7 30  1  0  0  0  0
 12 31  1  0  0  0  0
 12 32  1  0  0  0  0
 13 33  1  0  0  0  0
 13 34  1  0  0  0  0
 14 35  1  0  0  0  0
 14 36  1  0  0  0  0
 15 37  1  0  0  0  0
 15 38  1  0  0  0  0
 16 39  1  0  0  0  0
 16 40  1  0  0  0  0
 17 41  1  0  0  0  0
 18 42  1  0  0  0  0
 19 43  1  0  0  0  0
 19 44  1  0  0  0  0
M  END
> <Hybrid2>
-11.655543

> <fragments>
x0678

> <site>
active-noncovalent

$$$$
top_hits_only_mpro-19_1
  -OEChem-03302021283D

 41 44  0     0  0  0  0  0  0999 V2000
   13.4563    0.3477   23.6797 C   0  0  0  0  0  0  0  0  0  0  0  0
   13.5490    1.2916   22.6630 C   0  0  0  0  0  0  0  0  0  0  0  0
    6.0220    0.5245   19.4110 C   0  0  0  0  0  0  0  0  0  0  0  0
   12.3348   -0.4724   23.7547 C   0  0  0  0  0  0  0  0  0  0  0  0
    7.0082    0.3909   20.3820 C   0  0  0  0  0  0  0  0  0  0  0  0
    7.6144   -4.7758   22.9796 C   0  0  0  0  0  0  0  0  0  0  0  0
    6.5184   -3.1492   24.3903 C   0  0  0  0  0  0  0  0  0  0  0  0
   12.5208    1.4134   21.7237 C   0  0  0  0  0  0  0  0  0  0  0  0
    8.7877   -4.0228   23.0229 C   0  0  0  0  0  0  0  0  0  0  0  0
    7.6918   -2.3962   24.4337 C   0  0  0  0  0  0  0  0  0  0  0  0
    6.3811    0.3174   18.0890 C   0  0  0  0  0  0  0  0  0  0  0  0
    8.5621   -0.1277   18.6578 C   0  0  0  0  0  0  0  0  0  0  0  0
   11.3052   -0.3438   22.8064 C   0  0  0  0  0  0  0  0  0  0  0  0
    8.3051    0.0588   20.0065 C   0  0  0  0  0  0  0  0  0  0  0  0
    6.4797   -4.3390   23.6632 C   0  0  0  0  0  0  0  0  0  0  0  0
   11.3874    0.6057   21.7748 C   0  0  0  0  0  0  0  0  0  0  0  0
    8.8264   -2.8330   23.7500 C   0  0  0  0  0  0  0  0  0  0  0  0
   10.1582   -1.1323   22.8246 C   0  0  0  0  0  0  0  0  0  0  0  0
    9.3481   -0.0863   20.9883 C   0  0  0  0  0  0  0  0  0  0  0  0
    5.2563   -5.1240   23.6183 C   0  0  0  0  0  0  0  0  0  0  0  0
    4.9999   -5.9385   22.3837 C   0  0  0  0  0  0  0  0  0  0  0  0
    7.6302   -0.0065   17.6859 N   0  0  0  0  0  0  0  0  0  0  0  0
   10.4086    0.7371   20.8624 N   0  0  0  0  0  0  0  0  0  0  0  0
    9.1598   -1.0271   21.9275 N   0  0  0  0  0  0  0  0  0  0  0  0
    4.4115   -5.1676   24.5152 O   0  0  0  0  0  0  0  0  0  0  0  0
    9.9873   -2.0876   23.7929 O   0  0  0  0  0  0  0  0  0  0  0  0
   14.2539    0.2518   24.4100 H   0  0  0  0  0  0  0  0  0  0  0  0
   14.4212    1.9360   22.5977 H   0  0  0  0  0  0  0  0  0  0  0  0
    5.0039    0.7818   19.6799 H   0  0  0  0  0  0  0  0  0  0  0  0
   12.2771   -1.2059   24.5548 H   0  0  0  0  0  0  0  0  0  0  0  0
    6.7518    0.5485   21.4267 H   0  0  0  0  0  0  0  0  0  0  0  0
    7.5962   -5.7015   22.4100 H   0  0  0  0  0  0  0  0  0  0  0  0
    5.6397   -2.8003   24.9266 H   0  0  0  0  0  0  0  0  0  0  0  0
   12.6182    2.1611   20.9385 H   0  0  0  0  0  0  0  0  0  0  0  0
    9.6683   -4.3683   22.4882 H   0  0  0  0  0  0  0  0  0  0  0  0
    7.7158   -1.4700   25.0014 H   0  0  0  0  0  0  0  0  0  0  0  0
    5.6485    0.4100   17.2936 H   0  0  0  0  0  0  0  0  0  0  0  0
    9.5535   -0.3894   18.2994 H   0  0  0  0  0  0  0  0  0  0  0  0
    5.4086   -6.9604   22.4298 H   0  0  0  0  0  0  0  0  0  0  0  0
    5.3880   -5.4688   21.4667 H   0  0  0  0  0  0  0  0  0  0  0  0
    3.9256   -6.0946   22.1801 H   0  0  0  0  0  0  0  0  0  0  0  0
  1  2  1  0  0  0  0
  1  4  2  0  0  0  0
  2  8  2  0  0  0  0
  3  5  2  0  0  0  0
  3 11  1  0  0  0  0
  4 13  1  0  0  0  0
  5 14  1  0  0  0  0
  6  9  2  0  0  0  0
  6 15  1  0  0  0  0
  7 10  1  0  0  0  0
  7 15  2  0  0  0  0
  8 16  1  0  0  0  0
  9 17  1  0  0  0  0
 10 17  2  0  0  0  0
 11 22  2  0  0  0  0
 12 14  2  0  0  0  0
 12 22  1  0  0  0  0
 13 16  1  0  0  0  0
 13 18  2  0  0  0  0
 14 19  1  0  0  0  0
 15 20  1  0  0  0  0
 16 23  2  0  0  0  0
 17 26  1  0  0  0  0
 18 24  1  0  0  0  0
 18 26  1  0  0  0  0
 19 23  1  0  0  0  0
 19 24  2  0  0  0  0
 20 21  1  0  0  0  0
 20 25  2  0  0  0  0
  1 27  1  0  0  0  0
  2 28  1  0  0  0  0
  3 29  1  0  0  0  0
  4 30  1  0  0  0  0
  5 31  1  0  0  0  0
  6 32  1  0  0  0  0
  7 33  1  0  0  0  0
  8 34  1  0  0  0  0
  9 35  1  0  0  0  0
 10 36  1  0  0  0  0
 11 37  1  0  0  0  0
 12 38  1  0  0  0  0
 21 39  1  0  0  0  0
 21 40  1  0  0  0  0
 21 41  1  0  0  0  0
M  END
> <Hybrid2>
-11.638037

> <fragments>
x0678

> <site>
active-noncovalent

$$$$
top_hits_only_mpro-315_1
  -OEChem-03302021283D

 43 47  0     1  0  0  0  0  0999 V2000
    7.2441   -0.4713   21.3190 C   0  0  0  0  0  0  0  0  0  0  0  0
    8.4447   -1.0544   21.0181 C   0  0  0  0  0  0  0  0  0  0  0  0
    7.6544   -0.1396   19.1597 C   0  0  0  0  0  0  0  0  0  0  0  0
    5.3582    1.2357   18.7276 C   0  0  0  0  0  0  0  0  0  0  0  0
    5.6031    0.7819   19.9629 C   0  0  0  0  0  0  0  0  0  0  0  0
    6.3742    0.9482   17.6750 C   0  0  0  0  0  0  0  0  0  0  0  0
    9.3405   -1.7828   21.9304 C   0  0  0  0  0  0  0  0  0  0  0  0
   13.9350   -0.6678   24.1281 C   0  0  0  0  0  0  0  0  0  0  0  0
   13.6576   -0.0380   21.7337 C   0  0  0  0  0  0  0  0  0  0  0  0
   12.1621    1.0089   23.5152 C   0  0  0  0  0  0  0  0  0  0  0  0
   12.9184   -2.3249   22.5309 C   0  0  0  0  0  0  0  0  0  0  0  0
   11.5389   -1.2819   24.4253 C   0  0  0  0  0  0  0  0  0  0  0  0
   11.1324   -0.0887   21.4327 C   0  0  0  0  0  0  0  0  0  0  0  0
   13.9406   -1.1940   22.6910 C   0  0  2  0  0  0  0  0  0  0  0  0
   12.5439   -0.1299   24.4720 C   0  0  1  0  0  0  0  0  0  0  0  0
   12.3289    0.6669   22.0261 C   0  0  0  0  0  0  0  0  0  0  0  0
   11.5164   -2.0065   23.0744 C   0  0  0  0  0  0  0  0  0  0  0  0
    7.4855    0.2960   17.8324 N   0  0  0  0  0  0  0  0  0  0  0  0
    6.7722    0.0900   20.1509 N   0  0  0  0  0  0  0  0  0  0  0  0
    8.6724   -0.8345   19.6812 N   0  3  0  0  0  0  0  0  0  0  0  0
   10.6513   -1.2950   22.1169 N   0  0  0  0  0  0  0  0  0  0  0  0
    8.8641   -2.7834   22.4658 O   0  0  0  0  0  0  0  0  0  0  0  0
    6.6516   -0.3757   22.2095 H   0  0  0  0  0  0  0  0  0  0  0  0
    4.4692    1.7930   18.4662 H   0  0  0  0  0  0  0  0  0  0  0  0
    4.9413    0.9288   20.8061 H   0  0  0  0  0  0  0  0  0  0  0  0
    6.1286    1.3428   16.6757 H   0  0  0  0  0  0  0  0  0  0  0  0
   14.2132   -1.4671   24.8262 H   0  0  0  0  0  0  0  0  0  0  0  0
   14.6859    0.1240   24.2421 H   0  0  0  0  0  0  0  0  0  0  0  0
   14.4597    0.6970   21.8491 H   0  0  0  0  0  0  0  0  0  0  0  0
   13.6915   -0.3783   20.6969 H   0  0  0  0  0  0  0  0  0  0  0  0
   11.1318    1.3422   23.7198 H   0  0  0  0  0  0  0  0  0  0  0  0
   12.7993    1.8796   23.7442 H   0  0  0  0  0  0  0  0  0  0  0  0
   12.8579   -2.6393   21.4740 H   0  0  0  0  0  0  0  0  0  0  0  0
   13.2999   -3.2130   23.0665 H   0  0  0  0  0  0  0  0  0  0  0  0
   11.8346   -2.0086   25.1864 H   0  0  0  0  0  0  0  0  0  0  0  0
   10.5396   -0.9414   24.6970 H   0  0  0  0  0  0  0  0  0  0  0  0
   10.2733    0.5875   21.3365 H   0  0  0  0  0  0  0  0  0  0  0  0
   11.4134   -0.3766   20.4117 H   0  0  0  0  0  0  0  0  0  0  0  0
   14.9359   -1.5926   22.4610 H   0  0  0  0  0  0  0  0  0  0  0  0
   12.5620    0.2686   25.4944 H   0  0  0  0  0  0  0  0  0  0  0  0
   12.3595    1.6243   21.4863 H   0  0  0  0  0  0  0  0  0  0  0  0
   11.0322   -2.9685   23.2849 H   0  0  0  0  0  0  0  0  0  0  0  0
    9.4876   -1.1483   19.1619 H   0  0  0  0  0  0  0  0  0  0  0  0
  1  2  2  0  0  0  0
  1 19  1  0  0  0  0
  2  7  1  0  0  0  0
  2 20  1  0  0  0  0
  3 18  1  0  0  0  0
  3 19  1  0  0  0  0
  3 20  2  0  0  0  0
  4  5  2  0  0  0  0
  4  6  1  0  0  0  0
  5 19  1  0  0  0  0
  6 18  2  0  0  0  0
  7 21  1  0  0  0  0
  7 22  2  0  0  0  0
  8 14  1  0  0  0  0
  8 15  1  0  0  0  0
  9 14  1  0  0  0  0
  9 16  1  0  0  0  0
 10 15  1  0  0  0  0
 10 16  1  0  0  0  0
 11 14  1  0  0  0  0
 11 17  1  0  0  0  0
 12 15  1  0  0  0  0
 12 17  1  0  0  0  0
 13 16  1  0  0  0  0
 13 21  1  0  0  0  0
 17 21  1  0  0  0  0
  1 23  1  0  0  0  0
  4 24  1  0  0  0  0
  5 25  1  0  0  0  0
  6 26  1  0  0  0  0
  8 27  1  0  0  0  0
  8 28  1  0  0  0  0
  9 29  1  0  0  0  0
  9 30  1  0  0  0  0
 10 31  1  0  0  0  0
 10 32  1  0  0  0  0
 11 33  1  0  0  0  0
 11 34  1  0  0  0  0
 12 35  1  0  0  0  0
 12 36  1  0  0  0  0
 13 37  1  0  0  0  0
 13 38  1  0  0  0  0
 14 39  1  0  0  0  0
 15 40  1  0  0  0  0
 16 41  1  0  0  0  0
 17 42  1  0  0  0  0
 20 43  1  0  0  0  0
M  CHG  1  20   1
M  END
> <Hybrid2>
-11.609927

> <fragments>
x0678

> <site>
active-noncovalent

$$$$
top_hits_only_mpro-218_1
  -OEChem-03302021283D

 41 43  0     0  0  0  0  0  0999 V2000
    6.5431    0.3990   20.2869 C   0  0  0  0  0  0  0  0  0  0  0  0
    7.8985   -0.6875   18.6624 C   0  0  0  0  0  0  0  0  0  0  0  0
    6.5973    1.0907   18.0120 C   0  0  0  0  0  0  0  0  0  0  0  0
    7.4604   -0.5978   19.9738 C   0  0  0  0  0  0  0  0  0  0  0  0
    6.0981    1.2636   19.2929 C   0  0  0  0  0  0  0  0  0  0  0  0
    7.9513   -1.5249   21.0016 C   0  0  0  0  0  0  0  0  0  0  0  0
   14.3290   -0.8071   24.1825 C   0  0  0  0  0  0  0  0  0  0  0  0
   14.3151   -1.6618   22.9213 C   0  0  0  0  0  0  0  0  0  0  0  0
   12.9216   -0.5407   24.7024 C   0  0  0  0  0  0  0  0  0  0  0  0
   13.4179   -1.0567   21.8425 C   0  0  0  0  0  0  0  0  0  0  0  0
   12.0187    0.0527   23.6201 C   0  0  0  0  0  0  0  0  0  0  0  0
   11.2264   -2.1401   22.5371 C   0  0  0  0  0  0  0  0  0  0  0  0
   11.2206   -0.0134   21.2080 C   0  0  0  0  0  0  0  0  0  0  0  0
    9.7227   -1.9830   22.7701 C   0  0  0  0  0  0  0  0  0  0  0  0
    9.7232    0.1268   21.4699 C   0  0  0  0  0  0  0  0  0  0  0  0
   11.9661   -0.7943   22.3206 C   0  0  0  0  0  0  0  0  0  0  0  0
    7.4892    0.1341   17.6699 N   0  0  0  0  0  0  0  0  0  0  0  0
    9.0986   -1.1707   21.7194 N   0  0  0  0  0  0  0  0  0  0  0  0
    7.3055   -2.5618   21.1478 O   0  0  0  0  0  0  0  0  0  0  0  0
    5.2164    2.2322   19.5652 F   0  0  0  0  0  0  0  0  0  0  0  0
    6.1686    0.5101   21.3009 H   0  0  0  0  0  0  0  0  0  0  0  0
    8.6161   -1.4432   18.3575 H   0  0  0  0  0  0  0  0  0  0  0  0
    6.2815    1.7383   17.2008 H   0  0  0  0  0  0  0  0  0  0  0  0
   14.9121   -1.3167   24.9598 H   0  0  0  0  0  0  0  0  0  0  0  0
   14.8343    0.1439   23.9795 H   0  0  0  0  0  0  0  0  0  0  0  0
   15.3366   -1.7777   22.5411 H   0  0  0  0  0  0  0  0  0  0  0  0
   13.9582   -2.6683   23.1681 H   0  0  0  0  0  0  0  0  0  0  0  0
   12.4855   -1.4798   25.0632 H   0  0  0  0  0  0  0  0  0  0  0  0
   12.9661    0.1314   25.5668 H   0  0  0  0  0  0  0  0  0  0  0  0
   13.8734   -0.1266   21.4797 H   0  0  0  0  0  0  0  0  0  0  0  0
   13.3986   -1.7432   20.9852 H   0  0  0  0  0  0  0  0  0  0  0  0
   11.0043    0.1377   24.0333 H   0  0  0  0  0  0  0  0  0  0  0  0
   12.3464    1.0774   23.4167 H   0  0  0  0  0  0  0  0  0  0  0  0
   11.6644   -2.6821   23.3862 H   0  0  0  0  0  0  0  0  0  0  0  0
   11.3729   -2.7848   21.6581 H   0  0  0  0  0  0  0  0  0  0  0  0
   11.3506   -0.5366   20.2521 H   0  0  0  0  0  0  0  0  0  0  0  0
   11.6462    0.9841   21.0679 H   0  0  0  0  0  0  0  0  0  0  0  0
    9.2559   -2.9711   22.8137 H   0  0  0  0  0  0  0  0  0  0  0  0
    9.5207   -1.4904   23.7260 H   0  0  0  0  0  0  0  0  0  0  0  0
    9.5359    0.7540   22.3496 H   0  0  0  0  0  0  0  0  0  0  0  0
    9.2604    0.6359   20.6187 H   0  0  0  0  0  0  0  0  0  0  0  0
  1  4  1  0  0  0  0
  1  5  2  0  0  0  0
  2  4  2  0  0  0  0
  2 17  1  0  0  0  0
  3  5  1  0  0  0  0
  3 17  2  0  0  0  0
  4  6  1  0  0  0  0
  5 20  1  0  0  0  0
  6 18  1  0  0  0  0
  6 19  2  0  0  0  0
  7  8  1  0  0  0  0
  7  9  1  0  0  0  0
  8 10  1  0  0  0  0
  9 11  1  0  0  0  0
 10 16  1  0  0  0  0
 11 16  1  0  0  0  0
 12 14  1  0  0  0  0
 12 16  1  0  0  0  0
 13 15  1  0  0  0  0
 13 16  1  0  0  0  0
 14 18  1  0  0  0  0
 15 18  1  0  0  0  0
  1 21  1  0  0  0  0
  2 22  1  0  0  0  0
  3 23  1  0  0  0  0
  7 24  1  0  0  0  0
  7 25  1  0  0  0  0
  8 26  1  0  0  0  0
  8 27  1  0  0  0  0
  9 28  1  0  0  0  0
  9 29  1  0  0  0  0
 10 30  1  0  0  0  0
 10 31  1  0  0  0  0
 11 32  1  0  0  0  0
 11 33  1  0  0  0  0
 12 34  1  0  0  0  0
 12 35  1  0  0  0  0
 13 36  1  0  0  0  0
 13 37  1  0  0  0  0
 14 38  1  0  0  0  0
 14 39  1  0  0  0  0
 15 40  1  0  0  0  0
 15 41  1  0  0  0  0
M  END
> <Hybrid2>
-11.570904

> <fragments>
x0678

> <site>
active-noncovalent

$$$$
top_hits_only_mpro-458_1
  -OEChem-03302021283D

 41 43  0     0  0  0  0  0  0999 V2000
    8.8098   -0.4933   24.2962 C   0  0  0  0  0  0  0  0  0  0  0  0
    8.3094   -1.1570   25.4167 C   0  0  0  0  0  0  0  0  0  0  0  0
    9.7999   -2.5539   23.5090 C   0  0  0  0  0  0  0  0  0  0  0  0
    9.5494   -1.1917   23.3413 C   0  0  0  0  0  0  0  0  0  0  0  0
    8.5481   -2.5220   25.5786 C   0  0  0  0  0  0  0  0  0  0  0  0
    9.3115   -3.2155   24.6361 C   0  0  0  0  0  0  0  0  0  0  0  0
    7.3550    0.0693   18.8354 C   0  0  0  0  0  0  0  0  0  0  0  0
    6.9339    0.3177   20.2303 C   0  0  0  0  0  0  0  0  0  0  0  0
    5.7097    0.8406   20.3576 C   0  0  0  0  0  0  0  0  0  0  0  0
    4.8743    1.1327   19.1640 C   0  0  0  0  0  0  0  0  0  0  0  0
    8.0193   -4.5485   26.5786 C   0  0  0  0  0  0  0  0  0  0  0  0
    9.3673   -5.0314   26.0800 C   0  0  0  0  0  0  0  0  0  0  0  0
   10.4113    1.0384   22.3492 C   0  0  0  0  0  0  0  0  0  0  0  0
   11.4257   -1.1221   21.6775 C   0  0  0  0  0  0  0  0  0  0  0  0
    9.0994   -0.5606   20.9130 C   0  0  0  0  0  0  0  0  0  0  0  0
   10.0769   -0.4800   22.1412 C   0  0  0  0  0  0  0  0  0  0  0  0
    6.6715    0.3034   17.7655 N   0  0  0  0  0  0  0  0  0  0  0  0
    5.4394    0.8324   17.9452 N   0  0  0  0  0  0  0  0  0  0  0  0
    7.8018    0.0005   21.1890 N   0  0  0  0  0  0  0  0  0  0  0  0
    3.7477    1.6136   19.2721 O   0  0  0  0  0  0  0  0  0  0  0  0
    8.0137   -3.1224   26.6887 O   0  0  0  0  0  0  0  0  0  0  0  0
    9.6078   -4.5482   24.7556 O   0  0  0  0  0  0  0  0  0  0  0  0
    5.0278    1.2069   21.8997 Cl  0  0  0  0  0  0  0  0  0  0  0  0
    8.6147    0.5689   24.1733 H   0  0  0  0  0  0  0  0  0  0  0  0
    7.7277   -0.6067   26.1512 H   0  0  0  0  0  0  0  0  0  0  0  0
   10.3827   -3.0968   22.7688 H   0  0  0  0  0  0  0  0  0  0  0  0
    8.3628   -0.3623   18.7120 H   0  0  0  0  0  0  0  0  0  0  0  0
    7.2071   -4.8514   25.9061 H   0  0  0  0  0  0  0  0  0  0  0  0
    7.8110   -4.9599   27.5711 H   0  0  0  0  0  0  0  0  0  0  0  0
   10.1838   -4.6935   26.7302 H   0  0  0  0  0  0  0  0  0  0  0  0
    9.3901   -6.1251   26.0445 H   0  0  0  0  0  0  0  0  0  0  0  0
   10.7924    1.4937   21.4287 H   0  0  0  0  0  0  0  0  0  0  0  0
    9.5150    1.5942   22.6494 H   0  0  0  0  0  0  0  0  0  0  0  0
   11.1658    1.2019   23.1279 H   0  0  0  0  0  0  0  0  0  0  0  0
   11.8295   -0.6122   20.7958 H   0  0  0  0  0  0  0  0  0  0  0  0
   11.2726   -2.1738   21.4069 H   0  0  0  0  0  0  0  0  0  0  0  0
   12.2011   -1.0865   22.4518 H   0  0  0  0  0  0  0  0  0  0  0  0
    9.4895   -0.0369   20.0326 H   0  0  0  0  0  0  0  0  0  0  0  0
    8.9326   -1.6018   20.6157 H   0  0  0  0  0  0  0  0  0  0  0  0
    4.9264    1.0054   17.0866 H   0  0  0  0  0  0  0  0  0  0  0  0
    7.5175    0.1702   22.1557 H   0  0  0  0  0  0  0  0  0  0  0  0
  1  2  2  0  0  0  0
  1  4  1  0  0  0  0
  2  5  1  0  0  0  0
  3  4  2  0  0  0  0
  3  6  1  0  0  0  0
  4 16  1  0  0  0  0
  5  6  2  0  0  0  0
  5 21  1  0  0  0  0
  6 22  1  0  0  0  0
  7  8  1  0  0  0  0
  7 17  2  0  0  0  0
  8  9  2  0  0  0  0
  8 19  1  0  0  0  0
  9 10  1  0  0  0  0
  9 23  1  0  0  0  0
 10 18  1  0  0  0  0
 10 20  2  0  0  0  0
 11 12  1  0  0  0  0
 11 21  1  0  0  0  0
 12 22  1  0  0  0  0
 13 16  1  0  0  0  0
 14 16  1  0  0  0  0
 15 16  1  0  0  0  0
 15 19  1  0  0  0  0
 17 18  1  0  0  0  0
  1 24  1  0  0  0  0
  2 25  1  0  0  0  0
  3 26  1  0  0  0  0
  7 27  1  0  0  0  0
 11 28  1  0  0  0  0
 11 29  1  0  0  0  0
 12 30  1  0  0  0  0
 12 31  1  0  0  0  0
 13 32  1  0  0  0  0
 13 33  1  0  0  0  0
 13 34  1  0  0  0  0
 14 35  1  0  0  0  0
 14 36  1  0  0  0  0
 14 37  1  0  0  0  0
 15 38  1  0  0  0  0
 15 39  1  0  0  0  0
 18 40  1  0  0  0  0
 19 41  1  0  0  0  0
M  END
> <Hybrid2>
-11.543694

> <fragments>
x0107

> <site>
active-noncovalent

$$$$
top_hits_only_mpro-220_1
  -OEChem-03302021283D

 33 35  0     0  0  0  0  0  0999 V2000
   13.5791   -1.6296   23.2301 C   0  0  0  0  0  0  0  0  0  0  0  0
   13.4483   -0.2452   23.2752 C   0  0  0  0  0  0  0  0  0  0  0  0
   12.5472   -2.3997   22.7097 C   0  0  0  0  0  0  0  0  0  0  0  0
    6.7031    0.5605   20.5504 C   0  0  0  0  0  0  0  0  0  0  0  0
    8.4918   -0.1338   19.1449 C   0  0  0  0  0  0  0  0  0  0  0  0
    6.5891    0.7188   18.1801 C   0  0  0  0  0  0  0  0  0  0  0  0
    7.9797    0.0245   20.4226 C   0  0  0  0  0  0  0  0  0  0  0  0
   12.2736    0.3812   22.8237 C   0  0  0  0  0  0  0  0  0  0  0  0
   11.2053   -0.3975   22.3239 C   0  0  0  0  0  0  0  0  0  0  0  0
   11.3770   -1.7893   22.2505 C   0  0  0  0  0  0  0  0  0  0  0  0
    5.9877    0.9168   19.4125 C   0  0  0  0  0  0  0  0  0  0  0  0
    8.7674   -0.3623   21.6140 C   0  0  0  0  0  0  0  0  0  0  0  0
   12.2272    1.8893   22.8465 C   0  0  0  0  0  0  0  0  0  0  0  0
   10.8188    2.4283   22.6505 C   0  0  0  0  0  0  0  0  0  0  0  0
   10.1360    1.6750   21.5223 C   0  0  0  0  0  0  0  0  0  0  0  0
    7.8270    0.2007   18.0163 N   0  0  0  0  0  0  0  0  0  0  0  0
   10.0093    0.2516   21.8539 N   0  0  0  0  0  0  0  0  0  0  0  0
    8.3259   -1.3067   22.2717 O   0  0  0  0  0  0  0  0  0  0  0  0
   10.3883   -2.6544   21.8821 O   0  0  0  0  0  0  0  0  0  0  0  0
    4.7579    1.4353   19.5051 F   0  0  0  0  0  0  0  0  0  0  0  0
   14.4763   -2.1058   23.6147 H   0  0  0  0  0  0  0  0  0  0  0  0
   14.2699    0.3490   23.6676 H   0  0  0  0  0  0  0  0  0  0  0  0
   12.6474   -3.4817   22.6921 H   0  0  0  0  0  0  0  0  0  0  0  0
    6.2569    0.7039   21.5308 H   0  0  0  0  0  0  0  0  0  0  0  0
    9.4835   -0.5445   18.9813 H   0  0  0  0  0  0  0  0  0  0  0  0
    6.0730    0.9795   17.2620 H   0  0  0  0  0  0  0  0  0  0  0  0
   12.6279    2.2341   23.8123 H   0  0  0  0  0  0  0  0  0  0  0  0
   12.8757    2.3021   22.0590 H   0  0  0  0  0  0  0  0  0  0  0  0
   10.2494    2.3168   23.5807 H   0  0  0  0  0  0  0  0  0  0  0  0
   10.8470    3.5013   22.4191 H   0  0  0  0  0  0  0  0  0  0  0  0
    9.1319    2.0639   21.3407 H   0  0  0  0  0  0  0  0  0  0  0  0
   10.7254    1.8240   20.6186 H   0  0  0  0  0  0  0  0  0  0  0  0
   10.6832   -3.5686   22.0087 H   0  0  0  0  0  0  0  0  0  0  0  0
  1  2  1  0  0  0  0
  1  3  2  0  0  0  0
  2  8  2  0  0  0  0
  3 10  1  0  0  0  0
  4  7  1  0  0  0  0
  4 11  2  0  0  0  0
  5  7  2  0  0  0  0
  5 16  1  0  0  0  0
  6 11  1  0  0  0  0
  6 16  2  0  0  0  0
  7 12  1  0  0  0  0
  8  9  1  0  0  0  0
  8 13  1  0  0  0  0
  9 10  2  0  0  0  0
  9 17  1  0  0  0  0
 10 19  1  0  0  0  0
 11 20  1  0  0  0  0
 12 17  1  0  0  0  0
 12 18  2  0  0  0  0
 13 14  1  0  0  0  0
 14 15  1  0  0  0  0
 15 17  1  0  0  0  0
  1 21  1  0  0  0  0
  2 22  1  0  0  0  0
  3 23  1  0  0  0  0
  4 24  1  0  0  0  0
  5 25  1  0  0  0  0
  6 26  1  0  0  0  0
 13 27  1  0  0  0  0
 13 28  1  0  0  0  0
 14 29  1  0  0  0  0
 14 30  1  0  0  0  0
 15 31  1  0  0  0  0
 15 32  1  0  0  0  0
 19 33  1  0  0  0  0
M  END
> <Hybrid2>
-11.543637

> <fragments>
x0678

> <site>
active-noncovalent

$$$$
top_hits_only_mpro-390_1
  -OEChem-03302021283D

 40 43  0     0  0  0  0  0  0999 V2000
    6.2649   -4.3829   27.5242 C   0  0  0  0  0  0  0  0  0  0  0  0
    6.9969   -5.5031   27.9129 C   0  0  0  0  0  0  0  0  0  0  0  0
    5.0080    0.9224   19.0150 C   0  0  0  0  0  0  0  0  0  0  0  0
    6.7033   -3.5703   26.4723 C   0  0  0  0  0  0  0  0  0  0  0  0
    5.8077    1.0675   20.1432 C   0  0  0  0  0  0  0  0  0  0  0  0
    8.1870   -5.8467   27.2653 C   0  0  0  0  0  0  0  0  0  0  0  0
    5.6223    0.5623   17.8265 C   0  0  0  0  0  0  0  0  0  0  0  0
    7.6952    0.4939   18.8148 C   0  0  0  0  0  0  0  0  0  0  0  0
    9.7419   -4.0876   24.5078 C   0  0  0  0  0  0  0  0  0  0  0  0
    7.9003   -3.8969   25.8045 C   0  0  0  0  0  0  0  0  0  0  0  0
    8.6243   -3.3155   24.7262 C   0  0  0  0  0  0  0  0  0  0  0  0
    7.1780    0.8511   20.0496 C   0  0  0  0  0  0  0  0  0  0  0  0
    8.6131   -5.0253   26.2156 C   0  0  0  0  0  0  0  0  0  0  0  0
    7.1334   -2.0112   23.2489 C   0  0  0  0  0  0  0  0  0  0  0  0
    8.2812   -2.1016   23.9480 C   0  0  0  0  0  0  0  0  0  0  0  0
    8.0489    0.9976   21.2261 C   0  0  0  0  0  0  0  0  0  0  0  0
    6.7366   -0.8266   22.4135 C   0  0  0  0  0  0  0  0  0  0  0  0
    9.2684   -0.9592   23.9425 C   0  0  0  0  0  0  0  0  0  0  0  0
    8.6047    0.3569   23.5455 C   0  0  0  0  0  0  0  0  0  0  0  0
    6.9501    0.3435   17.6969 N   0  0  0  0  0  0  0  0  0  0  0  0
    9.7263   -5.1166   25.4108 N   0  0  0  0  0  0  0  0  0  0  0  0
    7.8040    0.1810   22.3357 N   0  0  0  0  0  0  0  0  0  0  0  0
    8.9372    1.8449   21.1449 O   0  0  0  0  0  0  0  0  0  0  0  0
    5.3414   -4.1372   28.0418 H   0  0  0  0  0  0  0  0  0  0  0  0
    6.6374   -6.1203   28.7321 H   0  0  0  0  0  0  0  0  0  0  0  0
    3.9375    1.0854   19.0643 H   0  0  0  0  0  0  0  0  0  0  0  0
    6.1198   -2.7011   26.1821 H   0  0  0  0  0  0  0  0  0  0  0  0
    5.3534    1.3501   21.0891 H   0  0  0  0  0  0  0  0  0  0  0  0
    8.7557   -6.7197   27.5677 H   0  0  0  0  0  0  0  0  0  0  0  0
    5.0427    0.4367   16.9179 H   0  0  0  0  0  0  0  0  0  0  0  0
    8.7570    0.3110   18.6799 H   0  0  0  0  0  0  0  0  0  0  0  0
   10.5498   -4.0021   23.7934 H   0  0  0  0  0  0  0  0  0  0  0  0
    6.4281   -2.8393   23.2685 H   0  0  0  0  0  0  0  0  0  0  0  0
    6.4693   -1.1718   21.4106 H   0  0  0  0  0  0  0  0  0  0  0  0
    5.8574   -0.3416   22.8518 H   0  0  0  0  0  0  0  0  0  0  0  0
    9.7121   -0.8313   24.9380 H   0  0  0  0  0  0  0  0  0  0  0  0
   10.0865   -1.1910   23.2487 H   0  0  0  0  0  0  0  0  0  0  0  0
    7.9307    0.7093   24.3363 H   0  0  0  0  0  0  0  0  0  0  0  0
    9.3673    1.1292   23.4002 H   0  0  0  0  0  0  0  0  0  0  0  0
   10.4302   -5.8388   25.4770 H   0  0  0  0  0  0  0  0  0  0  0  0
  1  2  2  0  0  0  0
  1  4  1  0  0  0  0
  2  6  1  0  0  0  0
  3  5  2  0  0  0  0
  3  7  1  0  0  0  0
  4 10  2  0  0  0  0
  5 12  1  0  0  0  0
  6 13  2  0  0  0  0
  7 20  2  0  0  0  0
  8 12  2  0  0  0  0
  8 20  1  0  0  0  0
  9 11  2  0  0  0  0
  9 21  1  0  0  0  0
 10 11  1  0  0  0  0
 10 13  1  0  0  0  0
 11 15  1  0  0  0  0
 12 16  1  0  0  0  0
 13 21  1  0  0  0  0
 14 15  2  0  0  0  0
 14 17  1  0  0  0  0
 15 18  1  0  0  0  0
 16 22  1  0  0  0  0
 16 23  2  0  0  0  0
 17 22  1  0  0  0  0
 18 19  1  0  0  0  0
 19 22  1  0  0  0  0
  1 24  1  0  0  0  0
  2 25  1  0  0  0  0
  3 26  1  0  0  0  0
  4 27  1  0  0  0  0
  5 28  1  0  0  0  0
  6 29  1  0  0  0  0
  7 30  1  0  0  0  0
  8 31  1  0  0  0  0
  9 32  1  0  0  0  0
 14 33  1  0  0  0  0
 17 34  1  0  0  0  0
 17 35  1  0  0  0  0
 18 36  1  0  0  0  0
 18 37  1  0  0  0  0
 19 38  1  0  0  0  0
 19 39  1  0  0  0  0
 21 40  1  0  0  0  0
M  END
> <Hybrid2>
-11.536157

> <fragments>
x0107

> <site>
active-noncovalent

$$$$
top_hits_only_mpro-223_1
  -OEChem-03302021283D

 39 41  0     1  0  0  0  0  0999 V2000
    6.0173    0.9635   20.4072 C   0  0  0  0  0  0  0  0  0  0  0  0
    5.7296    0.5007   18.0921 C   0  0  0  0  0  0  0  0  0  0  0  0
    7.7550    0.0380   19.0729 C   0  0  0  0  0  0  0  0  0  0  0  0
    5.2002    0.9730   19.2822 C   0  0  0  0  0  0  0  0  0  0  0  0
    7.3205    0.4888   20.3090 C   0  0  0  0  0  0  0  0  0  0  0  0
    8.1216   -3.8796   26.4369 C   0  0  0  0  0  0  0  0  0  0  0  0
    8.4349   -2.3941   26.5216 C   0  0  0  0  0  0  0  0  0  0  0  0
    9.0686   -4.6149   25.4899 C   0  0  0  0  0  0  0  0  0  0  0  0
    8.3355   -1.7043   25.1565 C   0  0  0  0  0  0  0  0  0  0  0  0
    9.7531   -3.6989   24.4735 C   0  0  0  0  0  0  0  0  0  0  0  0
    7.6645   -3.1260   23.1376 C   0  0  0  0  0  0  0  0  0  0  0  0
    7.2307   -1.9446   22.2802 C   0  0  0  0  0  0  0  0  0  0  0  0
    9.5576   -1.7068   22.9151 C   0  0  0  0  0  0  0  0  0  0  0  0
    8.8369   -2.5735   23.9682 C   0  0  0  0  0  0  0  0  0  0  0  0
    6.9905    0.0318   17.9580 N   0  0  0  0  0  0  0  0  0  0  0  0
    8.4922   -1.2131   21.9931 N   0  0  2  0  0  0  0  0  0  0  0  0
    9.6823    0.9641   21.2935 O   0  0  0  0  0  0  0  0  0  0  0  0
    7.6804    1.0887   22.8180 O   0  0  0  0  0  0  0  0  0  0  0  0
    3.9426    1.4246   19.3476 F   0  0  0  0  0  0  0  0  0  0  0  0
    8.3885    0.4605   21.7174 S   0  0  0  0  0  0  0  0  0  0  0  0
    5.6296    1.3274   21.3547 H   0  0  0  0  0  0  0  0  0  0  0  0
    5.1333    0.4876   17.1857 H   0  0  0  0  0  0  0  0  0  0  0  0
    8.7615   -0.3443   18.9333 H   0  0  0  0  0  0  0  0  0  0  0  0
    8.1803   -4.3293   27.4368 H   0  0  0  0  0  0  0  0  0  0  0  0
    7.0870   -4.0166   26.0918 H   0  0  0  0  0  0  0  0  0  0  0  0
    7.7407   -1.9122   27.2208 H   0  0  0  0  0  0  0  0  0  0  0  0
    9.4395   -2.2534   26.9379 H   0  0  0  0  0  0  0  0  0  0  0  0
    9.8341   -5.1521   26.0805 H   0  0  0  0  0  0  0  0  0  0  0  0
    8.5064   -5.3994   24.9513 H   0  0  0  0  0  0  0  0  0  0  0  0
    7.2822   -1.4377   24.9825 H   0  0  0  0  0  0  0  0  0  0  0  0
    8.8838   -0.7537   25.2067 H   0  0  0  0  0  0  0  0  0  0  0  0
   10.6632   -3.2828   24.9265 H   0  0  0  0  0  0  0  0  0  0  0  0
   10.0881   -4.3077   23.6213 H   0  0  0  0  0  0  0  0  0  0  0  0
    6.8427   -3.5121   23.7487 H   0  0  0  0  0  0  0  0  0  0  0  0
    8.0064   -3.9408   22.4863 H   0  0  0  0  0  0  0  0  0  0  0  0
    6.7593   -2.2761   21.3500 H   0  0  0  0  0  0  0  0  0  0  0  0
    6.5301   -1.3031   22.8266 H   0  0  0  0  0  0  0  0  0  0  0  0
   10.1201   -0.8786   23.3566 H   0  0  0  0  0  0  0  0  0  0  0  0
   10.2564   -2.3001   22.3123 H   0  0  0  0  0  0  0  0  0  0  0  0
  1  4  2  0  0  0  0
  1  5  1  0  0  0  0
  2  4  1  0  0  0  0
  2 15  2  0  0  0  0
  3  5  2  0  0  0  0
  3 15  1  0  0  0  0
  4 19  1  0  0  0  0
  5 20  1  0  0  0  0
  6  7  1  0  0  0  0
  6  8  1  0  0  0  0
  7  9  1  0  0  0  0
  8 10  1  0  0  0  0
  9 14  1  0  0  0  0
 10 14  1  0  0  0  0
 11 12  1  0  0  0  0
 11 14  1  0  0  0  0
 12 16  1  0  0  0  0
 13 14  1  0  0  0  0
 13 16  1  0  0  0  0
 16 20  1  0  0  0  0
 17 20  2  0  0  0  0
 18 20  2  0  0  0  0
  1 21  1  0  0  0  0
  2 22  1  0  0  0  0
  3 23  1  0  0  0  0
  6 24  1  0  0  0  0
  6 25  1  0  0  0  0
  7 26  1  0  0  0  0
  7 27  1  0  0  0  0
  8 28  1  0  0  0  0
  8 29  1  0  0  0  0
  9 30  1  0  0  0  0
  9 31  1  0  0  0  0
 10 32  1  0  0  0  0
 10 33  1  0  0  0  0
 11 34  1  0  0  0  0
 11 35  1  0  0  0  0
 12 36  1  0  0  0  0
 12 37  1  0  0  0  0
 13 38  1  0  0  0  0
 13 39  1  0  0  0  0
M  END
> <Hybrid2>
-11.533287

> <fragments>
x0107

> <site>
active-noncovalent

$$$$
top_hits_only_mpro-56_1
  -OEChem-03302021283D

 42 45  0     0  0  0  0  0  0999 V2000
   13.4781   -0.9646   23.7501 C   0  0  0  0  0  0  0  0  0  0  0  0
   13.7118    0.0627   22.8427 C   0  0  0  0  0  0  0  0  0  0  0  0
    6.2171    0.6288   19.4769 C   0  0  0  0  0  0  0  0  0  0  0  0
   12.2596   -1.6360   23.7280 C   0  0  0  0  0  0  0  0  0  0  0  0
    7.1579    0.2655   20.4340 C   0  0  0  0  0  0  0  0  0  0  0  0
    6.1364   -3.5894   24.0293 C   0  0  0  0  0  0  0  0  0  0  0  0
    7.0439   -5.1828   22.4563 C   0  0  0  0  0  0  0  0  0  0  0  0
   12.7272    0.4164   21.9154 C   0  0  0  0  0  0  0  0  0  0  0  0
    7.3955   -3.0043   24.1630 C   0  0  0  0  0  0  0  0  0  0  0  0
    8.3030   -4.5977   22.5899 C   0  0  0  0  0  0  0  0  0  0  0  0
    6.5739    0.5196   18.1425 C   0  0  0  0  0  0  0  0  0  0  0  0
    8.6678   -0.2623   18.6740 C   0  0  0  0  0  0  0  0  0  0  0  0
   11.2747   -1.2744   22.7925 C   0  0  0  0  0  0  0  0  0  0  0  0
    8.4091   -0.1895   20.0332 C   0  0  0  0  0  0  0  0  0  0  0  0
    5.9606   -4.6787   23.1760 C   0  0  0  0  0  0  0  0  0  0  0  0
   11.4989   -0.2386   21.8709 C   0  0  0  0  0  0  0  0  0  0  0  0
    8.4788   -3.5084   23.4433 C   0  0  0  0  0  0  0  0  0  0  0  0
   10.0360   -1.9052   22.7173 C   0  0  0  0  0  0  0  0  0  0  0  0
    9.4045   -0.5726   21.0003 C   0  0  0  0  0  0  0  0  0  0  0  0
    4.3860   -6.4286   24.0392 C   0  0  0  0  0  0  0  0  0  0  0  0
    4.6144   -5.3040   23.0325 C   0  0  0  0  0  0  0  0  0  0  0  0
    7.7793    0.0818   17.7149 N   0  0  0  0  0  0  0  0  0  0  0  0
   10.5640    0.1152   20.9717 N   0  0  0  0  0  0  0  0  0  0  0  0
    9.0780   -1.5763   21.8304 N   0  0  0  0  0  0  0  0  0  0  0  0
    9.7244   -2.9284   23.5747 O   0  0  0  0  0  0  0  0  0  0  0  0
   14.2417   -1.2406   24.4708 H   0  0  0  0  0  0  0  0  0  0  0  0
   14.6604    0.5920   22.8536 H   0  0  0  0  0  0  0  0  0  0  0  0
    5.2350    0.9855   19.7653 H   0  0  0  0  0  0  0  0  0  0  0  0
   12.0920   -2.4372   24.4432 H   0  0  0  0  0  0  0  0  0  0  0  0
    6.9023    0.3423   21.4879 H   0  0  0  0  0  0  0  0  0  0  0  0
    5.2981   -3.1902   24.5939 H   0  0  0  0  0  0  0  0  0  0  0  0
    6.9162   -6.0314   21.7890 H   0  0  0  0  0  0  0  0  0  0  0  0
   12.9356    1.2248   21.2168 H   0  0  0  0  0  0  0  0  0  0  0  0
    7.5262   -2.1556   24.8292 H   0  0  0  0  0  0  0  0  0  0  0  0
    9.1426   -4.9947   22.0263 H   0  0  0  0  0  0  0  0  0  0  0  0
    5.8757    0.7909   17.3571 H   0  0  0  0  0  0  0  0  0  0  0  0
    9.6248   -0.6103   18.2958 H   0  0  0  0  0  0  0  0  0  0  0  0
    5.1562   -7.2018   23.9458 H   0  0  0  0  0  0  0  0  0  0  0  0
    3.4113   -6.9000   23.8793 H   0  0  0  0  0  0  0  0  0  0  0  0
    4.4146   -6.0483   25.0660 H   0  0  0  0  0  0  0  0  0  0  0  0
    3.8238   -4.5461   23.1543 H   0  0  0  0  0  0  0  0  0  0  0  0
    4.4820   -5.7012   22.0132 H   0  0  0  0  0  0  0  0  0  0  0  0
  1  2  1  0  0  0  0
  1  4  2  0  0  0  0
  2  8  2  0  0  0  0
  3  5  2  0  0  0  0
  3 11  1  0  0  0  0
  4 13  1  0  0  0  0
  5 14  1  0  0  0  0
  6  9  2  0  0  0  0
  6 15  1  0  0  0  0
  7 10  1  0  0  0  0
  7 15  2  0  0  0  0
  8 16  1  0  0  0  0
  9 17  1  0  0  0  0
 10 17  2  0  0  0  0
 11 22  2  0  0  0  0
 12 14  2  0  0  0  0
 12 22  1  0  0  0  0
 13 16  1  0  0  0  0
 13 18  2  0  0  0  0
 14 19  1  0  0  0  0
 15 21  1  0  0  0  0
 16 23  2  0  0  0  0
 17 25  1  0  0  0  0
 18 24  1  0  0  0  0
 18 25  1  0  0  0  0
 19 23  1  0  0  0  0
 19 24  2  0  0  0  0
 20 21  1  0  0  0  0
  1 26  1  0  0  0  0
  2 27  1  0  0  0  0
  3 28  1  0  0  0  0
  4 29  1  0  0  0  0
  5 30  1  0  0  0  0
  6 31  1  0  0  0  0
  7 32  1  0  0  0  0
  8 33  1  0  0  0  0
  9 34  1  0  0  0  0
 10 35  1  0  0  0  0
 11 36  1  0  0  0  0
 12 37  1  0  0  0  0
 20 38  1  0  0  0  0
 20 39  1  0  0  0  0
 20 40  1  0  0  0  0
 21 41  1  0  0  0  0
 21 42  1  0  0  0  0
M  END
> <Hybrid2>
-11.527821

> <fragments>
x0678

> <site>
active-noncovalent

$$$$
top_hits_only_mpro-238_1
  -OEChem-03302021283D

 39 40  0     1  0  0  0  0  0999 V2000
   13.5347   -1.0136   25.8467 C   0  0  0  0  0  0  0  0  0  0  0  0
   13.0905   -0.3145   24.7283 C   0  0  0  0  0  0  0  0  0  0  0  0
   12.9706   -2.2485   26.1681 C   0  0  0  0  0  0  0  0  0  0  0  0
   12.0805   -0.8476   23.9270 C   0  0  0  0  0  0  0  0  0  0  0  0
   11.3739   -4.0419   25.6813 C   0  0  0  0  0  0  0  0  0  0  0  0
   10.3639   -4.5750   24.8800 C   0  0  0  0  0  0  0  0  0  0  0  0
   10.4838   -2.6410   23.4402 C   0  0  0  0  0  0  0  0  0  0  0  0
   11.9531   -2.8002   25.3728 C   0  0  0  0  0  0  0  0  0  0  0  0
   11.5013   -2.0893   24.2355 C   0  0  0  0  0  0  0  0  0  0  0  0
    9.9197   -3.8759   23.7616 C   0  0  0  0  0  0  0  0  0  0  0  0
    6.4901   -3.3445   21.6958 C   0  0  0  0  0  0  0  0  0  0  0  0
    5.9097   -2.1052   19.6277 C   0  0  0  0  0  0  0  0  0  0  0  0
    5.5223   -2.2187   24.3684 C   0  0  0  0  0  0  0  0  0  0  0  0
    5.9047   -4.6787   24.3572 C   0  0  0  0  0  0  0  0  0  0  0  0
    7.3953   -3.2172   22.9210 C   0  0  1  0  0  0  0  0  0  0  0  0
    6.5941   -3.3100   24.2426 C   0  0  0  0  0  0  0  0  0  0  0  0
    6.2203   -0.9105   19.0015 N   0  0  0  0  0  0  0  0  0  0  0  0
    6.5954   -2.2482   20.8378 N   0  0  0  0  0  0  0  0  0  0  0  0
    5.7794   -4.3285   21.4985 O   0  0  0  0  0  0  0  0  0  0  0  0
    5.1225   -2.9228   19.1550 O   0  0  0  0  0  0  0  0  0  0  0  0
    8.6432   -4.5516   22.7504 S   0  0  0  0  0  0  0  0  0  0  0  0
   14.3214   -0.5984   26.4701 H   0  0  0  0  0  0  0  0  0  0  0  0
   13.5311    0.6459   24.4776 H   0  0  0  0  0  0  0  0  0  0  0  0
   13.3336   -2.7773   27.0468 H   0  0  0  0  0  0  0  0  0  0  0  0
   11.7500   -0.2840   23.0570 H   0  0  0  0  0  0  0  0  0  0  0  0
   11.7054   -4.6057   26.5509 H   0  0  0  0  0  0  0  0  0  0  0  0
    9.9360   -5.5386   25.1464 H   0  0  0  0  0  0  0  0  0  0  0  0
   10.1333   -2.0968   22.5640 H   0  0  0  0  0  0  0  0  0  0  0  0
    4.8042   -2.2561   23.5440 H   0  0  0  0  0  0  0  0  0  0  0  0
    4.9700   -2.3133   25.3096 H   0  0  0  0  0  0  0  0  0  0  0  0
    5.9786   -1.2228   24.3456 H   0  0  0  0  0  0  0  0  0  0  0  0
    5.2049   -4.8393   23.5298 H   0  0  0  0  0  0  0  0  0  0  0  0
    5.3420   -4.7530   25.2943 H   0  0  0  0  0  0  0  0  0  0  0  0
    6.6312   -5.4971   24.3507 H   0  0  0  0  0  0  0  0  0  0  0  0
    7.9350   -2.2638   22.8925 H   0  0  0  0  0  0  0  0  0  0  0  0
    7.2770   -3.2146   25.0973 H   0  0  0  0  0  0  0  0  0  0  0  0
    6.8780   -0.2776   19.4441 H   0  0  0  0  0  0  0  0  0  0  0  0
    5.8079   -0.6509   18.1119 H   0  0  0  0  0  0  0  0  0  0  0  0
    7.2131   -1.4858   21.1028 H   0  0  0  0  0  0  0  0  0  0  0  0
  1  2  2  0  0  0  0
  1  3  1  0  0  0  0
  2  4  1  0  0  0  0
  3  8  2  0  0  0  0
  4  9  2  0  0  0  0
  5  6  2  0  0  0  0
  5  8  1  0  0  0  0
  6 10  1  0  0  0  0
  7  9  1  0  0  0  0
  7 10  2  0  0  0  0
  8  9  1  0  0  0  0
 10 21  1  0  0  0  0
 11 15  1  0  0  0  0
 11 18  1  0  0  0  0
 11 19  2  0  0  0  0
 12 17  1  0  0  0  0
 12 18  1  0  0  0  0
 12 20  2  0  0  0  0
 13 16  1  0  0  0  0
 14 16  1  0  0  0  0
 15 16  1  0  0  0  0
 15 21  1  0  0  0  0
  1 22  1  0  0  0  0
  2 23  1  0  0  0  0
  3 24  1  0  0  0  0
  4 25  1  0  0  0  0
  5 26  1  0  0  0  0
  6 27  1  0  0  0  0
  7 28  1  0  0  0  0
 13 29  1  0  0  0  0
 13 30  1  0  0  0  0
 13 31  1  0  0  0  0
 14 32  1  0  0  0  0
 14 33  1  0  0  0  0
 14 34  1  0  0  0  0
 15 35  1  0  0  0  0
 16 36  1  0  0  0  0
 17 37  1  0  0  0  0
 17 38  1  0  0  0  0
 18 39  1  0  0  0  0
M  END
> <Hybrid2>
-11.469629

> <fragments>
x0749

> <site>
active-covalent

$$$$
top_hits_only_mpro-231_1
  -OEChem-03302021283D

 37 40  0     0  0  0  0  0  0999 V2000
    9.3881   -0.8186   24.9813 C   0  0  0  0  0  0  0  0  0  0  0  0
    6.8138   -3.4992   25.0718 C   0  0  0  0  0  0  0  0  0  0  0  0
   13.7800   -0.1321   23.2746 C   0  0  0  0  0  0  0  0  0  0  0  0
   13.7721    0.9792   22.4390 C   0  0  0  0  0  0  0  0  0  0  0  0
    7.3405   -4.4176   24.1638 C   0  0  0  0  0  0  0  0  0  0  0  0
    6.0956    0.4183   19.5104 C   0  0  0  0  0  0  0  0  0  0  0  0
    7.4955   -2.3116   25.3375 C   0  0  0  0  0  0  0  0  0  0  0  0
   12.6990   -1.0079   23.2621 C   0  0  0  0  0  0  0  0  0  0  0  0
    7.1444    0.1659   20.3877 C   0  0  0  0  0  0  0  0  0  0  0  0
   12.6840    1.2124   21.5929 C   0  0  0  0  0  0  0  0  0  0  0  0
    8.5491   -4.1486   23.5215 C   0  0  0  0  0  0  0  0  0  0  0  0
    6.3806    0.4650   18.1553 C   0  0  0  0  0  0  0  0  0  0  0  0
    8.6085    0.0370   18.5180 C   0  0  0  0  0  0  0  0  0  0  0  0
    8.7041   -2.0425   24.6951 C   0  0  0  0  0  0  0  0  0  0  0  0
   11.6086   -0.7666   22.4084 C   0  0  0  0  0  0  0  0  0  0  0  0
    8.4279   -0.0295   19.8901 C   0  0  0  0  0  0  0  0  0  0  0  0
   11.5890    0.3523   21.5598 C   0  0  0  0  0  0  0  0  0  0  0  0
    9.2309   -2.9611   23.7871 C   0  0  0  0  0  0  0  0  0  0  0  0
   10.4973   -1.6026   22.3472 C   0  0  0  0  0  0  0  0  0  0  0  0
    9.5344   -0.2922   20.7730 C   0  0  0  0  0  0  0  0  0  0  0  0
    9.9428    0.1740   25.2134 N   0  0  0  0  0  0  0  0  0  0  0  0
    7.6144    0.2801   17.6346 N   0  0  0  0  0  0  0  0  0  0  0  0
   10.5514    0.5927   20.7392 N   0  0  0  0  0  0  0  0  0  0  0  0
    9.4421   -1.3918   21.5381 N   0  0  0  0  0  0  0  0  0  0  0  0
   10.4247   -2.7206   23.1374 O   0  0  0  0  0  0  0  0  0  0  0  0
    5.8727   -3.7088   25.5719 H   0  0  0  0  0  0  0  0  0  0  0  0
   14.6243   -0.3147   23.9322 H   0  0  0  0  0  0  0  0  0  0  0  0
   14.6122    1.6680   22.4430 H   0  0  0  0  0  0  0  0  0  0  0  0
    6.8096   -5.3423   23.9571 H   0  0  0  0  0  0  0  0  0  0  0  0
    5.0866    0.5729   19.8750 H   0  0  0  0  0  0  0  0  0  0  0  0
    7.0711   -1.6061   26.0480 H   0  0  0  0  0  0  0  0  0  0  0  0
   12.7200   -1.8726   23.9205 H   0  0  0  0  0  0  0  0  0  0  0  0
    6.9468    0.1244   21.4560 H   0  0  0  0  0  0  0  0  0  0  0  0
   12.7029    2.0903   20.9495 H   0  0  0  0  0  0  0  0  0  0  0  0
    8.9535   -4.8688   22.8153 H   0  0  0  0  0  0  0  0  0  0  0  0
    5.5972    0.6590   17.4296 H   0  0  0  0  0  0  0  0  0  0  0  0
    9.5857   -0.1075   18.0660 H   0  0  0  0  0  0  0  0  0  0  0  0
  1 14  1  0  0  0  0
  1 21  3  0  0  0  0
  2  5  1  0  0  0  0
  2  7  2  0  0  0  0
  3  4  1  0  0  0  0
  3  8  2  0  0  0  0
  4 10  2  0  0  0  0
  5 11  2  0  0  0  0
  6  9  2  0  0  0  0
  6 12  1  0  0  0  0
  7 14  1  0  0  0  0
  8 15  1  0  0  0  0
  9 16  1  0  0  0  0
 10 17  1  0  0  0  0
 11 18  1  0  0  0  0
 12 22  2  0  0  0  0
 13 16  2  0  0  0  0
 13 22  1  0  0  0  0
 14 18  2  0  0  0  0
 15 17  1  0  0  0  0
 15 19  2  0  0  0  0
 16 20  1  0  0  0  0
 17 23  2  0  0  0  0
 18 25  1  0  0  0  0
 19 24  1  0  0  0  0
 19 25  1  0  0  0  0
 20 23  1  0  0  0  0
 20 24  2  0  0  0  0
  2 26  1  0  0  0  0
  3 27  1  0  0  0  0
  4 28  1  0  0  0  0
  5 29  1  0  0  0  0
  6 30  1  0  0  0  0
  7 31  1  0  0  0  0
  8 32  1  0  0  0  0
  9 33  1  0  0  0  0
 10 34  1  0  0  0  0
 11 35  1  0  0  0  0
 12 36  1  0  0  0  0
 13 37  1  0  0  0  0
M  END
> <Hybrid2>
-11.404726

> <fragments>
x0678

> <site>
active-noncovalent

$$$$
top_hits_only_mpro-406_1
  -OEChem-03302021283D

 44 47  0     1  0  0  0  0  0999 V2000
    6.4416    0.5456   22.4620 C   0  0  0  0  0  0  0  0  0  0  0  0
    4.6921    0.8449   18.7070 C   0  0  0  0  0  0  0  0  0  0  0  0
    5.1271    0.9284   22.2782 C   0  0  0  0  0  0  0  0  0  0  0  0
    5.4651    0.5465   17.5930 C   0  0  0  0  0  0  0  0  0  0  0  0
    7.2951    0.0767   18.8821 C   0  0  0  0  0  0  0  0  0  0  0  0
    6.6011    0.3546   20.0622 C   0  0  0  0  0  0  0  0  0  0  0  0
    7.1891    0.2542   21.3307 C   0  0  0  0  0  0  0  0  0  0  0  0
    5.2553    0.7521   19.9725 C   0  0  0  0  0  0  0  0  0  0  0  0
    8.5899   -0.1528   21.5236 C   0  0  0  0  0  0  0  0  0  0  0  0
   10.0189   -2.8987   23.5287 C   0  0  0  0  0  0  0  0  0  0  0  0
    6.6398   -4.7979   23.9932 C   0  0  0  0  0  0  0  0  0  0  0  0
    7.9049   -3.3819   25.6328 C   0  0  0  0  0  0  0  0  0  0  0  0
   10.1796   -1.7795   22.5116 C   0  0  0  0  0  0  0  0  0  0  0  0
    7.8358   -2.1890   22.8660 C   0  0  0  0  0  0  0  0  0  0  0  0
    5.9889   -5.4788   25.1911 C   0  0  0  0  0  0  0  0  0  0  0  0
    7.1828   -4.1419   26.7389 C   0  0  0  0  0  0  0  0  0  0  0  0
    8.6255   -3.4491   23.2157 C   0  0  2  0  0  0  0  0  0  0  0  0
    8.0181   -4.2423   24.3692 C   0  0  0  0  0  0  0  0  0  0  0  0
    6.7564    0.1634   17.6481 N   0  0  0  0  0  0  0  0  0  0  0  0
    4.5274    1.0359   21.0694 N   0  0  0  0  0  0  0  0  0  0  0  0
    8.8286   -1.2918   22.2772 N   0  0  0  0  0  0  0  0  0  0  0  0
    9.4572    0.5393   20.9942 O   0  0  0  0  0  0  0  0  0  0  0  0
    5.8990   -4.5807   26.2965 O   0  0  0  0  0  0  0  0  0  0  0  0
    6.8614    0.4795   23.4599 H   0  0  0  0  0  0  0  0  0  0  0  0
    3.6569    1.1480   18.5797 H   0  0  0  0  0  0  0  0  0  0  0  0
    4.4947    1.1685   23.1267 H   0  0  0  0  0  0  0  0  0  0  0  0
    5.0447    0.6127   16.5946 H   0  0  0  0  0  0  0  0  0  0  0  0
    8.3357   -0.2335   18.8839 H   0  0  0  0  0  0  0  0  0  0  0  0
   10.7976   -3.6610   23.4323 H   0  0  0  0  0  0  0  0  0  0  0  0
   10.0592   -2.4904   24.5460 H   0  0  0  0  0  0  0  0  0  0  0  0
    6.7243   -5.5044   23.1611 H   0  0  0  0  0  0  0  0  0  0  0  0
    5.9978   -3.9718   23.6638 H   0  0  0  0  0  0  0  0  0  0  0  0
    7.3374   -2.4731   25.3988 H   0  0  0  0  0  0  0  0  0  0  0  0
    8.8974   -3.0737   25.9773 H   0  0  0  0  0  0  0  0  0  0  0  0
   10.8296   -0.9713   22.8602 H   0  0  0  0  0  0  0  0  0  0  0  0
   10.5673   -2.1558   21.5584 H   0  0  0  0  0  0  0  0  0  0  0  0
    7.0243   -2.3867   22.1589 H   0  0  0  0  0  0  0  0  0  0  0  0
    7.4238   -1.6942   23.7527 H   0  0  0  0  0  0  0  0  0  0  0  0
    4.9725   -5.7927   24.9331 H   0  0  0  0  0  0  0  0  0  0  0  0
    6.5454   -6.3741   25.4921 H   0  0  0  0  0  0  0  0  0  0  0  0
    7.7675   -5.0056   27.0765 H   0  0  0  0  0  0  0  0  0  0  0  0
    7.0321   -3.4869   27.6028 H   0  0  0  0  0  0  0  0  0  0  0  0
    8.6871   -4.0931   22.3276 H   0  0  0  0  0  0  0  0  0  0  0  0
    8.6823   -5.0898   24.5886 H   0  0  0  0  0  0  0  0  0  0  0  0
  1  3  2  0  0  0  0
  1  7  1  0  0  0  0
  2  4  2  0  0  0  0
  2  8  1  0  0  0  0
  3 20  1  0  0  0  0
  4 19  1  0  0  0  0
  5  6  1  0  0  0  0
  5 19  2  0  0  0  0
  6  7  2  0  0  0  0
  6  8  1  0  0  0  0
  7  9  1  0  0  0  0
  8 20  2  0  0  0  0
  9 21  1  0  0  0  0
  9 22  2  0  0  0  0
 10 13  1  0  0  0  0
 10 17  1  0  0  0  0
 11 15  1  0  0  0  0
 11 18  1  0  0  0  0
 12 16  1  0  0  0  0
 12 18  1  0  0  0  0
 13 21  1  0  0  0  0
 14 17  1  0  0  0  0
 14 21  1  0  0  0  0
 15 23  1  0  0  0  0
 16 23  1  0  0  0  0
 17 18  1  0  0  0  0
  1 24  1  0  0  0  0
  2 25  1  0  0  0  0
  3 26  1  0  0  0  0
  4 27  1  0  0  0  0
  5 28  1  0  0  0  0
 10 29  1  0  0  0  0
 10 30  1  0  0  0  0
 11 31  1  0  0  0  0
 11 32  1  0  0  0  0
 12 33  1  0  0  0  0
 12 34  1  0  0  0  0
 13 35  1  0  0  0  0
 13 36  1  0  0  0  0
 14 37  1  0  0  0  0
 14 38  1  0  0  0  0
 15 39  1  0  0  0  0
 15 40  1  0  0  0  0
 16 41  1  0  0  0  0
 16 42  1  0  0  0  0
 17 43  1  0  0  0  0
 18 44  1  0  0  0  0
M  END
> <Hybrid2>
-11.390756

> <fragments>
x0107

> <site>
active-noncovalent

$$$$
top_hits_only_mpro-173_1
  -OEChem-03302021283D

 36 39  0     0  0  0  0  0  0999 V2000
   13.3537   -0.7818   23.7679 C   0  0  0  0  0  0  0  0  0  0  0  0
   13.5733    0.2746   22.8911 C   0  0  0  0  0  0  0  0  0  0  0  0
    6.1662    0.6251   19.3090 C   0  0  0  0  0  0  0  0  0  0  0  0
   12.1641   -1.4997   23.6936 C   0  0  0  0  0  0  0  0  0  0  0  0
    7.0916    0.2767   20.2865 C   0  0  0  0  0  0  0  0  0  0  0  0
   12.6037    0.6109   21.9419 C   0  0  0  0  0  0  0  0  0  0  0  0
    8.3647   -4.5875   22.3700 C   0  0  0  0  0  0  0  0  0  0  0  0
    7.3477   -3.0673   23.9486 C   0  0  0  0  0  0  0  0  0  0  0  0
    7.1349   -5.2195   22.1862 C   0  0  0  0  0  0  0  0  0  0  0  0
    6.1178   -3.6993   23.7647 C   0  0  0  0  0  0  0  0  0  0  0  0
    6.5669    0.5608   17.9842 C   0  0  0  0  0  0  0  0  0  0  0  0
    8.6734   -0.1507   18.5626 C   0  0  0  0  0  0  0  0  0  0  0  0
   11.1940   -1.1553   22.7363 C   0  0  0  0  0  0  0  0  0  0  0  0
    8.3714   -0.1196   19.9145 C   0  0  0  0  0  0  0  0  0  0  0  0
   11.4043   -0.0904   21.8450 C   0  0  0  0  0  0  0  0  0  0  0  0
    8.4711   -3.5115   23.2512 C   0  0  0  0  0  0  0  0  0  0  0  0
    6.0114   -4.7754   22.8836 C   0  0  0  0  0  0  0  0  0  0  0  0
    9.9843   -1.8321   22.6090 C   0  0  0  0  0  0  0  0  0  0  0  0
    9.3519   -0.4858   20.9031 C   0  0  0  0  0  0  0  0  0  0  0  0
    7.8011    0.1806   17.5844 N   0  0  0  0  0  0  0  0  0  0  0  0
   10.4834    0.2474   20.9255 N   0  0  0  0  0  0  0  0  0  0  0  0
    9.0409   -1.5205   21.7005 N   0  0  0  0  0  0  0  0  0  0  0  0
    9.6881   -2.8864   23.4337 O   0  0  0  0  0  0  0  0  0  0  0  0
    4.4944   -5.5558   22.6580 Cl  0  0  0  0  0  0  0  0  0  0  0  0
   14.1057   -1.0444   24.5057 H   0  0  0  0  0  0  0  0  0  0  0  0
   14.4994    0.8402   22.9428 H   0  0  0  0  0  0  0  0  0  0  0  0
    5.1625    0.9362   19.5748 H   0  0  0  0  0  0  0  0  0  0  0  0
   12.0072   -2.3232   24.3854 H   0  0  0  0  0  0  0  0  0  0  0  0
    6.8017    0.3189   21.3334 H   0  0  0  0  0  0  0  0  0  0  0  0
   12.8006    1.4429   21.2680 H   0  0  0  0  0  0  0  0  0  0  0  0
    9.2358   -4.9387   21.8241 H   0  0  0  0  0  0  0  0  0  0  0  0
    7.4244   -2.2300   24.6366 H   0  0  0  0  0  0  0  0  0  0  0  0
    7.0667   -6.0576   21.4970 H   0  0  0  0  0  0  0  0  0  0  0  0
    5.2508   -3.3432   24.3155 H   0  0  0  0  0  0  0  0  0  0  0  0
    5.8823    0.8228   17.1838 H   0  0  0  0  0  0  0  0  0  0  0  0
    9.6544   -0.4521   18.2065 H   0  0  0  0  0  0  0  0  0  0  0  0
  1  2  1  0  0  0  0
  1  4  2  0  0  0  0
  2  6  2  0  0  0  0
  3  5  2  0  0  0  0
  3 11  1  0  0  0  0
  4 13  1  0  0  0  0
  5 14  1  0  0  0  0
  6 15  1  0  0  0  0
  7  9  2  0  0  0  0
  7 16  1  0  0  0  0
  8 10  1  0  0  0  0
  8 16  2  0  0  0  0
  9 17  1  0  0  0  0
 10 17  2  0  0  0  0
 11 20  2  0  0  0  0
 12 14  2  0  0  0  0
 12 20  1  0  0  0  0
 13 15  1  0  0  0  0
 13 18  2  0  0  0  0
 14 19  1  0  0  0  0
 15 21  2  0  0  0  0
 16 23  1  0  0  0  0
 17 24  1  0  0  0  0
 18 22  1  0  0  0  0
 18 23  1  0  0  0  0
 19 21  1  0  0  0  0
 19 22  2  0  0  0  0
  1 25  1  0  0  0  0
  2 26  1  0  0  0  0
  3 27  1  0  0  0  0
  4 28  1  0  0  0  0
  5 29  1  0  0  0  0
  6 30  1  0  0  0  0
  7 31  1  0  0  0  0
  8 32  1  0  0  0  0
  9 33  1  0  0  0  0
 10 34  1  0  0  0  0
 11 35  1  0  0  0  0
 12 36  1  0  0  0  0
M  END
> <Hybrid2>
-11.385249

> <fragments>
x0678

> <site>
active-noncovalent

$$$$
top_hits_only_mpro-484_1
  -OEChem-03302021283D

 32 33  0     0  0  0  0  0  0999 V2000
   12.8355   -1.0622   21.7082 C   0  0  0  0  0  0  0  0  0  0  0  0
   13.7191   -1.4553   22.7133 C   0  0  0  0  0  0  0  0  0  0  0  0
    6.1635    0.8468   19.9686 C   0  0  0  0  0  0  0  0  0  0  0  0
   12.6519    0.0739   24.2495 C   0  0  0  0  0  0  0  0  0  0  0  0
    6.4047    0.7396   18.6084 C   0  0  0  0  0  0  0  0  0  0  0  0
    8.6159    0.2185   18.9507 C   0  0  0  0  0  0  0  0  0  0  0  0
   11.8601   -0.1010   21.9736 C   0  0  0  0  0  0  0  0  0  0  0  0
    7.2254    0.6219   20.8375 C   0  0  0  0  0  0  0  0  0  0  0  0
   11.7683    0.4670   23.2443 C   0  0  0  0  0  0  0  0  0  0  0  0
    8.4784    0.3014   20.3270 C   0  0  0  0  0  0  0  0  0  0  0  0
   13.6273   -0.8874   23.9840 C   0  0  0  0  0  0  0  0  0  0  0  0
   10.9498    0.2913   20.9058 C   0  0  0  0  0  0  0  0  0  0  0  0
   10.7340    1.4990   23.5557 C   0  0  0  0  0  0  0  0  0  0  0  0
    6.9938    0.7314   22.3090 C   0  0  0  0  0  0  0  0  0  0  0  0
    7.6078    0.4302   18.0751 N   0  0  0  0  0  0  0  0  0  0  0  0
    9.5919    0.0628   21.1714 N   0  0  0  0  0  0  0  0  0  0  0  0
   11.3657    0.7571   19.8374 O   0  0  0  0  0  0  0  0  0  0  0  0
    6.9476   -0.5715   22.8759 O   0  0  0  0  0  0  0  0  0  0  0  0
   14.4764   -1.2645   24.9488 F   0  0  0  0  0  0  0  0  0  0  0  0
   12.9173   -1.5123   20.7221 H   0  0  0  0  0  0  0  0  0  0  0  0
   14.4783   -2.2039   22.5064 H   0  0  0  0  0  0  0  0  0  0  0  0
    5.1741    1.0988   20.3346 H   0  0  0  0  0  0  0  0  0  0  0  0
   12.5891    0.5106   25.2425 H   0  0  0  0  0  0  0  0  0  0  0  0
    5.6098    0.9056   17.8887 H   0  0  0  0  0  0  0  0  0  0  0  0
    9.5688   -0.0283   18.4919 H   0  0  0  0  0  0  0  0  0  0  0  0
   11.1249    2.5021   23.3500 H   0  0  0  0  0  0  0  0  0  0  0  0
    9.8289    1.3462   22.9552 H   0  0  0  0  0  0  0  0  0  0  0  0
   10.4309    1.4505   24.6088 H   0  0  0  0  0  0  0  0  0  0  0  0
    7.7957    1.3001   22.7976 H   0  0  0  0  0  0  0  0  0  0  0  0
    6.0471    1.2446   22.5223 H   0  0  0  0  0  0  0  0  0  0  0  0
    9.3785   -0.3237   22.0876 H   0  0  0  0  0  0  0  0  0  0  0  0
    6.7963   -0.4571   23.8280 H   0  0  0  0  0  0  0  0  0  0  0  0
  1  2  2  0  0  0  0
  1  7  1  0  0  0  0
  2 11  1  0  0  0  0
  3  5  2  0  0  0  0
  3  8  1  0  0  0  0
  4  9  1  0  0  0  0
  4 11  2  0  0  0  0
  5 15  1  0  0  0  0
  6 10  1  0  0  0  0
  6 15  2  0  0  0  0
  7  9  2  0  0  0  0
  7 12  1  0  0  0  0
  8 10  2  0  0  0  0
  8 14  1  0  0  0  0
  9 13  1  0  0  0  0
 10 16  1  0  0  0  0
 11 19  1  0  0  0  0
 12 16  1  0  0  0  0
 12 17  2  0  0  0  0
 14 18  1  0  0  0  0
  1 20  1  0  0  0  0
  2 21  1  0  0  0  0
  3 22  1  0  0  0  0
  4 23  1  0  0  0  0
  5 24  1  0  0  0  0
  6 25  1  0  0  0  0
 13 26  1  0  0  0  0
 13 27  1  0  0  0  0
 13 28  1  0  0  0  0
 14 29  1  0  0  0  0
 14 30  1  0  0  0  0
 16 31  1  0  0  0  0
 18 32  1  0  0  0  0
M  END
> <Hybrid2>
-11.376863

> <fragments>
x0678

> <site>
active-noncovalent

$$$$
top_hits_only_mpro-193_1
  -OEChem-03302021283D

 26 27  0     0  0  0  0  0  0999 V2000
    5.7011    1.2406   18.4406 C   0  0  0  0  0  0  0  0  0  0  0  0
    6.0877    0.7905   19.6981 C   0  0  0  0  0  0  0  0  0  0  0  0
   12.3150   -1.1527   23.1068 C   0  0  0  0  0  0  0  0  0  0  0  0
    6.5352    0.9662   17.3688 C   0  0  0  0  0  0  0  0  0  0  0  0
    8.0431   -0.1334   18.7087 C   0  0  0  0  0  0  0  0  0  0  0  0
   13.1676   -1.8998   21.1614 C   0  0  0  0  0  0  0  0  0  0  0  0
    7.2798    0.0897   19.8433 C   0  0  0  0  0  0  0  0  0  0  0  0
   13.4872   -1.6362   22.4750 C   0  0  0  0  0  0  0  0  0  0  0  0
   11.3146   -1.1358   22.1600 C   0  0  0  0  0  0  0  0  0  0  0  0
    9.8996   -0.7125   22.3203 C   0  0  0  0  0  0  0  0  0  0  0  0
    7.7203   -0.4053   21.1749 C   0  0  0  0  0  0  0  0  0  0  0  0
    7.7004    0.2884   17.4708 N   0  0  0  0  0  0  0  0  0  0  0  0
   11.8443   -1.5922   20.9814 N   0  0  0  0  0  0  0  0  0  0  0  0
    9.1072   -0.8017   21.1851 N   0  0  0  0  0  0  0  0  0  0  0  0
    9.5174   -0.2975   23.4113 O   0  0  0  0  0  0  0  0  0  0  0  0
   14.6782   -1.8041   23.0436 F   0  0  0  0  0  0  0  0  0  0  0  0
    4.7759    1.7887   18.3037 H   0  0  0  0  0  0  0  0  0  0  0  0
    5.4544    0.9901   20.5583 H   0  0  0  0  0  0  0  0  0  0  0  0
   12.2161   -0.8500   24.1403 H   0  0  0  0  0  0  0  0  0  0  0  0
    6.2785    1.2961   16.3675 H   0  0  0  0  0  0  0  0  0  0  0  0
    8.9829   -0.6744   18.7602 H   0  0  0  0  0  0  0  0  0  0  0  0
   13.7616   -2.2774   20.3411 H   0  0  0  0  0  0  0  0  0  0  0  0
    7.5950    0.3659   21.9499 H   0  0  0  0  0  0  0  0  0  0  0  0
    7.1317   -1.2758   21.5006 H   0  0  0  0  0  0  0  0  0  0  0  0
   11.3386   -1.6898   20.1115 H   0  0  0  0  0  0  0  0  0  0  0  0
    9.5124   -1.0963   20.3012 H   0  0  0  0  0  0  0  0  0  0  0  0
  1  2  2  0  0  0  0
  1  4  1  0  0  0  0
  2  7  1  0  0  0  0
  3  8  1  0  0  0  0
  3  9  2  0  0  0  0
  4 12  2  0  0  0  0
  5  7  2  0  0  0  0
  5 12  1  0  0  0  0
  6  8  2  0  0  0  0
  6 13  1  0  0  0  0
  7 11  1  0  0  0  0
  8 16  1  0  0  0  0
  9 10  1  0  0  0  0
  9 13  1  0  0  0  0
 10 14  1  0  0  0  0
 10 15  2  0  0  0  0
 11 14  1  0  0  0  0
  1 17  1  0  0  0  0
  2 18  1  0  0  0  0
  3 19  1  0  0  0  0
  4 20  1  0  0  0  0
  5 21  1  0  0  0  0
  6 22  1  0  0  0  0
 11 23  1  0  0  0  0
 11 24  1  0  0  0  0
 13 25  1  0  0  0  0
 14 26  1  0  0  0  0
M  END
> <Hybrid2>
-11.334950

> <fragments>
x0678

> <site>
active-noncovalent

$$$$
top_hits_only_mpro-77_1
  -OEChem-03302021283D

 38 41  0     1  0  0  0  0  0999 V2000
   14.2123   -0.9604   21.7360 C   0  0  0  0  0  0  0  0  0  0  0  0
   14.1725    0.4316   21.8237 C   0  0  0  0  0  0  0  0  0  0  0  0
   13.2545   -1.7296   22.3869 C   0  0  0  0  0  0  0  0  0  0  0  0
   11.7098    4.5435   23.0937 C   0  0  0  0  0  0  0  0  0  0  0  0
   12.7809    5.3725   22.7755 C   0  0  0  0  0  0  0  0  0  0  0  0
   13.1797    1.0865   22.5727 C   0  0  0  0  0  0  0  0  0  0  0  0
   13.0800    2.5633   22.6526 C   0  0  0  0  0  0  0  0  0  0  0  0
   11.8563    3.1486   23.0514 C   0  0  0  0  0  0  0  0  0  0  0  0
   12.2533   -1.1158   23.1465 C   0  0  0  0  0  0  0  0  0  0  0  0
   12.2133    0.2887   23.2365 C   0  0  0  0  0  0  0  0  0  0  0  0
   14.0002    4.8140   22.4091 C   0  0  0  0  0  0  0  0  0  0  0  0
   14.1482    3.4253   22.3476 C   0  0  0  0  0  0  0  0  0  0  0  0
   10.6799    2.2612   23.3983 C   0  0  0  0  0  0  0  0  0  0  0  0
   11.1867   -1.9692   23.7779 C   0  0  0  0  0  0  0  0  0  0  0  0
   10.4413   -1.2712   24.9038 C   0  0  0  0  0  0  0  0  0  0  0  0
   11.1582    0.9754   24.0925 C   0  0  1  0  0  0  0  0  0  0  0  0
    8.9995    0.6811   25.4111 C   0  0  0  0  0  0  0  0  0  0  0  0
    9.9623    0.0796   24.4184 N   0  3  2  0  0  0  0  0  0  0  0  0
   15.0468    5.6403   22.1241 O   0  0  0  0  0  0  0  0  0  0  0  0
   15.4080    2.9750   22.0679 O   0  0  0  0  0  0  0  0  0  0  0  0
   14.9784   -1.4440   21.1361 H   0  0  0  0  0  0  0  0  0  0  0  0
   14.9078    0.9627   21.2305 H   0  0  0  0  0  0  0  0  0  0  0  0
   13.2856   -2.8117   22.2894 H   0  0  0  0  0  0  0  0  0  0  0  0
   10.7613    4.9893   23.3816 H   0  0  0  0  0  0  0  0  0  0  0  0
   12.6595    6.4511   22.8218 H   0  0  0  0  0  0  0  0  0  0  0  0
   10.0081    2.8204   24.0578 H   0  0  0  0  0  0  0  0  0  0  0  0
   10.1362    2.0323   22.4726 H   0  0  0  0  0  0  0  0  0  0  0  0
   10.4768   -2.2667   22.9959 H   0  0  0  0  0  0  0  0  0  0  0  0
   11.6367   -2.8858   24.1779 H   0  0  0  0  0  0  0  0  0  0  0  0
    9.5643   -1.8576   25.1978 H   0  0  0  0  0  0  0  0  0  0  0  0
   11.0763   -1.1005   25.7811 H   0  0  0  0  0  0  0  0  0  0  0  0
   11.6236    1.2166   25.0587 H   0  0  0  0  0  0  0  0  0  0  0  0
    9.5430    0.8518   26.3421 H   0  0  0  0  0  0  0  0  0  0  0  0
    8.6319    1.6202   24.9932 H   0  0  0  0  0  0  0  0  0  0  0  0
    8.1836   -0.0293   25.5576 H   0  0  0  0  0  0  0  0  0  0  0  0
    9.4355   -0.0749   23.5478 H   0  0  0  0  0  0  0  0  0  0  0  0
   14.7775    6.5665   22.2232 H   0  0  0  0  0  0  0  0  0  0  0  0
   15.9941    3.7242   21.8855 H   0  0  0  0  0  0  0  0  0  0  0  0
  1  2  2  0  0  0  0
  1  3  1  0  0  0  0
  2  6  1  0  0  0  0
  3  9  2  0  0  0  0
  4  5  2  0  0  0  0
  4  8  1  0  0  0  0
  5 11  1  0  0  0  0
  6  7  1  0  0  0  0
  6 10  2  0  0  0  0
  7  8  2  0  0  0  0
  7 12  1  0  0  0  0
  8 13  1  0  0  0  0
  9 10  1  0  0  0  0
  9 14  1  0  0  0  0
 10 16  1  0  0  0  0
 11 12  2  0  0  0  0
 11 19  1  0  0  0  0
 12 20  1  0  0  0  0
 13 16  1  0  0  0  0
 14 15  1  0  0  0  0
 15 18  1  0  0  0  0
 16 18  1  0  0  0  0
 17 18  1  0  0  0  0
  1 21  1  0  0  0  0
  2 22  1  0  0  0  0
  3 23  1  0  0  0  0
  4 24  1  0  0  0  0
  5 25  1  0  0  0  0
 13 26  1  0  0  0  0
 13 27  1  0  0  0  0
 14 28  1  0  0  0  0
 14 29  1  0  0  0  0
 15 30  1  0  0  0  0
 15 31  1  0  0  0  0
 16 32  1  0  0  0  0
 17 33  1  0  0  0  0
 17 34  1  0  0  0  0
 17 35  1  0  0  0  0
 18 36  1  0  0  0  0
 19 37  1  0  0  0  0
 20 38  1  0  0  0  0
M  CHG  1  18   1
M  END
> <Hybrid2>
-11.281105

> <fragments>
x0195

> <site>
active-noncovalent

$$$$
top_hits_only_mpro-157_1
  -OEChem-03302021283D

 36 38  0     1  0  0  0  0  0999 V2000
   12.9813   -2.2821   23.2283 C   0  0  0  0  0  0  0  0  0  0  0  0
   14.2556   -1.9231   23.6441 C   0  0  0  0  0  0  0  0  0  0  0  0
   13.6476    0.3435   23.7229 C   0  0  0  0  0  0  0  0  0  0  0  0
    6.8990    0.6806   18.8437 C   0  0  0  0  0  0  0  0  0  0  0  0
   12.3576    0.0434   23.3090 C   0  0  0  0  0  0  0  0  0  0  0  0
   12.0253   -1.2849   23.0604 C   0  0  0  0  0  0  0  0  0  0  0  0
    8.0429   -0.3624   20.2440 C   0  0  0  0  0  0  0  0  0  0  0  0
    8.9341   -3.3015   22.5584 C   0  0  0  0  0  0  0  0  0  0  0  0
    8.0132   -2.3737   21.7708 C   0  0  0  0  0  0  0  0  0  0  0  0
    9.9200   -2.5456   23.4438 C   0  0  0  0  0  0  0  0  0  0  0  0
   10.1903   -1.0979   21.3924 C   0  0  0  0  0  0  0  0  0  0  0  0
    8.6550   -1.0088   21.4742 C   0  0  1  0  0  0  0  0  0  0  0  0
   11.3677    1.1459   23.1406 C   0  0  0  0  0  0  0  0  0  0  0  0
    6.9684    0.3887   20.1759 N   0  0  0  0  0  0  0  0  0  0  0  0
    7.8631    0.1573   18.0833 N   0  0  0  0  0  0  0  0  0  0  0  0
    8.5811   -0.5049   19.0031 N   0  0  0  0  0  0  0  0  0  0  0  0
   14.5487   -0.6364   23.8766 N   0  3  0  0  0  0  0  0  0  0  0  0
   10.7418   -1.6336   22.6431 N   0  0  3  0  0  0  0  0  0  0  0  0
   12.7461   -3.3255   23.0418 H   0  0  0  0  0  0  0  0  0  0  0  0
   15.0591   -2.6292   23.8015 H   0  0  0  0  0  0  0  0  0  0  0  0
   14.0005    1.3423   23.9416 H   0  0  0  0  0  0  0  0  0  0  0  0
    6.1214    1.2940   18.4135 H   0  0  0  0  0  0  0  0  0  0  0  0
    8.3261   -3.9763   23.1816 H   0  0  0  0  0  0  0  0  0  0  0  0
    9.4887   -3.9456   21.8599 H   0  0  0  0  0  0  0  0  0  0  0  0
    7.7197   -2.8695   20.8236 H   0  0  0  0  0  0  0  0  0  0  0  0
    7.0679   -2.2352   22.3310 H   0  0  0  0  0  0  0  0  0  0  0  0
    9.3561   -1.9860   24.2009 H   0  0  0  0  0  0  0  0  0  0  0  0
   10.5652   -3.2593   23.9725 H   0  0  0  0  0  0  0  0  0  0  0  0
   10.4943   -1.7373   20.5510 H   0  0  0  0  0  0  0  0  0  0  0  0
   10.5980   -0.0956   21.1988 H   0  0  0  0  0  0  0  0  0  0  0  0
    8.3995   -0.3246   22.3307 H   0  0  0  0  0  0  0  0  0  0  0  0
   11.4032    1.5381   22.1168 H   0  0  0  0  0  0  0  0  0  0  0  0
   10.3464    0.7993   23.3451 H   0  0  0  0  0  0  0  0  0  0  0  0
   11.5682    1.9712   23.8364 H   0  0  0  0  0  0  0  0  0  0  0  0
    9.4052   -1.0180   18.7124 H   0  0  0  0  0  0  0  0  0  0  0  0
   15.4910   -0.3944   24.1815 H   0  0  0  0  0  0  0  0  0  0  0  0
  1  2  2  0  0  0  0
  1  6  1  0  0  0  0
  2 17  1  0  0  0  0
  3  5  1  0  0  0  0
  3 17  2  0  0  0  0
  4 14  1  0  0  0  0
  4 15  2  0  0  0  0
  5  6  2  0  0  0  0
  5 13  1  0  0  0  0
  6 18  1  0  0  0  0
  7 12  1  0  0  0  0
  7 14  2  0  0  0  0
  7 16  1  0  0  0  0
  8  9  1  0  0  0  0
  8 10  1  0  0  0  0
  9 12  1  0  0  0  0
 10 18  1  0  0  0  0
 11 12  1  0  0  0  0
 11 18  1  0  0  0  0
 15 16  1  0  0  0  0
  1 19  1  0  0  0  0
  2 20  1  0  0  0  0
  3 21  1  0  0  0  0
  4 22  1  0  0  0  0
  8 23  1  0  0  0  0
  8 24  1  0  0  0  0
  9 25  1  0  0  0  0
  9 26  1  0  0  0  0
 10 27  1  0  0  0  0
 10 28  1  0  0  0  0
 11 29  1  0  0  0  0
 11 30  1  0  0  0  0
 12 31  1  0  0  0  0
 13 32  1  0  0  0  0
 13 33  1  0  0  0  0
 13 34  1  0  0  0  0
 16 35  1  0  0  0  0
 17 36  1  0  0  0  0
M  CHG  1  17   1
M  END
> <Hybrid2>
-11.254924

> <fragments>
x0678

> <site>
active-noncovalent

$$$$
top_hits_only_mpro-234_1
  -OEChem-03302021283D

 42 44  0     1  0  0  0  0  0999 V2000
    4.5767    1.8374   19.3601 C   0  0  0  0  0  0  0  0  0  0  0  0
   14.6062   -1.1125   24.2513 C   0  0  0  0  0  0  0  0  0  0  0  0
   13.5475   -0.2328   24.4767 C   0  0  0  0  0  0  0  0  0  0  0  0
   14.6153   -1.9153   23.1106 C   0  0  0  0  0  0  0  0  0  0  0  0
   12.4978   -0.1559   23.5614 C   0  0  0  0  0  0  0  0  0  0  0  0
   13.5656   -1.8384   22.1953 C   0  0  0  0  0  0  0  0  0  0  0  0
    6.2364    0.8785   17.8284 C   0  0  0  0  0  0  0  0  0  0  0  0
    8.0217   -0.2665   18.6835 C   0  0  0  0  0  0  0  0  0  0  0  0
    5.7724    1.1084   19.1049 C   0  0  0  0  0  0  0  0  0  0  0  0
   12.5068   -0.9587   22.4207 C   0  0  0  0  0  0  0  0  0  0  0  0
    7.5582   -0.0359   19.9601 C   0  0  0  0  0  0  0  0  0  0  0  0
    7.8327   -0.3144   22.4053 C   0  0  0  0  0  0  0  0  0  0  0  0
    9.0722   -1.7680   20.8107 C   0  0  0  0  0  0  0  0  0  0  0  0
    8.9986   -0.3719   23.3824 C   0  0  0  0  0  0  0  0  0  0  0  0
   10.2579   -1.8630   21.7749 C   0  0  1  0  0  0  0  0  0  0  0  0
    9.1211   -2.8480   23.8041 C   0  0  0  0  0  0  0  0  0  0  0  0
   11.3753   -0.8765   21.4336 C   0  0  0  0  0  0  0  0  0  0  0  0
    3.6019    2.4318   19.5683 N   0  0  0  0  0  0  0  0  0  0  0  0
    7.3693    0.1868   17.5948 N   0  0  0  0  0  0  0  0  0  0  0  0
    6.4250    0.6554   20.1936 N   0  0  0  0  0  0  0  0  0  0  0  0
    8.2969   -0.5413   21.0352 N   0  0  1  0  0  0  0  0  0  0  0  0
    9.7964   -1.6403   23.2052 N   0  3  2  0  0  0  0  0  0  0  0  0
   15.4242   -1.1713   24.9634 H   0  0  0  0  0  0  0  0  0  0  0  0
   13.5408    0.3931   25.3642 H   0  0  0  0  0  0  0  0  0  0  0  0
   15.4400   -2.5995   22.9343 H   0  0  0  0  0  0  0  0  0  0  0  0
   11.6769    0.5323   23.7453 H   0  0  0  0  0  0  0  0  0  0  0  0
   13.5810   -2.4677   21.3094 H   0  0  0  0  0  0  0  0  0  0  0  0
    5.7197    1.2381   16.9458 H   0  0  0  0  0  0  0  0  0  0  0  0
    8.9313   -0.8214   18.4843 H   0  0  0  0  0  0  0  0  0  0  0  0
    7.1026   -1.0840   22.6907 H   0  0  0  0  0  0  0  0  0  0  0  0
    7.3258    0.6584   22.4771 H   0  0  0  0  0  0  0  0  0  0  0  0
    9.4194   -1.7977   19.7675 H   0  0  0  0  0  0  0  0  0  0  0  0
    8.4240   -2.6430   20.9599 H   0  0  0  0  0  0  0  0  0  0  0  0
    9.6789    0.4757   23.2028 H   0  0  0  0  0  0  0  0  0  0  0  0
    8.6580   -0.3297   24.4304 H   0  0  0  0  0  0  0  0  0  0  0  0
   10.6834   -2.9012   21.7559 H   0  0  0  0  0  0  0  0  0  0  0  0
    8.1961   -3.0218   23.2512 H   0  0  0  0  0  0  0  0  0  0  0  0
    9.8025   -3.6951   23.7054 H   0  0  0  0  0  0  0  0  0  0  0  0
    8.9156   -2.6297   24.8538 H   0  0  0  0  0  0  0  0  0  0  0  0
   10.9695    0.1398   21.4136 H   0  0  0  0  0  0  0  0  0  0  0  0
   11.7445   -1.0804   20.4236 H   0  0  0  0  0  0  0  0  0  0  0  0
   10.6844   -1.5176   23.7770 H   0  0  0  0  0  0  0  0  0  0  0  0
  1  9  1  0  0  0  0
  1 18  3  0  0  0  0
  2  3  1  0  0  0  0
  2  4  2  0  0  0  0
  3  5  2  0  0  0  0
  4  6  1  0  0  0  0
  5 10  1  0  0  0  0
  6 10  2  0  0  0  0
  7  9  1  0  0  0  0
  7 19  2  0  0  0  0
  8 11  2  0  0  0  0
  8 19  1  0  0  0  0
  9 20  2  0  0  0  0
 10 17  1  0  0  0  0
 11 20  1  0  0  0  0
 11 21  1  0  0  0  0
 12 14  1  0  0  0  0
 12 21  1  0  0  0  0
 13 15  1  0  0  0  0
 13 21  1  0  0  0  0
 14 22  1  0  0  0  0
 15 17  1  0  0  0  0
 15 22  1  0  0  0  0
 16 22  1  0  0  0  0
  2 23  1  0  0  0  0
  3 24  1  0  0  0  0
  4 25  1  0  0  0  0
  5 26  1  0  0  0  0
  6 27  1  0  0  0  0
  7 28  1  0  0  0  0
  8 29  1  0  0  0  0
 12 30  1  0  0  0  0
 12 31  1  0  0  0  0
 13 32  1  0  0  0  0
 13 33  1  0  0  0  0
 14 34  1  0  0  0  0
 14 35  1  0  0  0  0
 15 36  1  0  0  0  0
 16 37  1  0  0  0  0
 16 38  1  0  0  0  0
 16 39  1  0  0  0  0
 17 40  1  0  0  0  0
 17 41  1  0  0  0  0
 22 42  1  0  0  0  0
M  CHG  1  22   1
M  END
> <Hybrid2>
-11.246244

> <fragments>
x0678

> <site>
active-noncovalent

$$$$
top_hits_only_mpro-125_1
  -OEChem-03302021283D

 33 36  0     0  0  0  0  0  0999 V2000
   13.0260   -2.6863   23.1196 C   0  0  0  0  0  0  0  0  0  0  0  0
   14.2909   -2.2020   23.4471 C   0  0  0  0  0  0  0  0  0  0  0  0
   11.9494   -1.8112   22.9354 C   0  0  0  0  0  0  0  0  0  0  0  0
   14.5205   -0.8317   23.6006 C   0  0  0  0  0  0  0  0  0  0  0  0
    6.0301    0.8918   17.7668 C   0  0  0  0  0  0  0  0  0  0  0  0
    5.5374    1.3781   18.9577 C   0  0  0  0  0  0  0  0  0  0  0  0
    7.9669    0.2804   18.8178 C   0  0  0  0  0  0  0  0  0  0  0  0
    8.8747    0.5921   23.5555 C   0  0  0  0  0  0  0  0  0  0  0  0
   12.1567   -0.4255   23.0851 C   0  0  0  0  0  0  0  0  0  0  0  0
   11.3192    0.7197   22.9760 C   0  0  0  0  0  0  0  0  0  0  0  0
   13.4349    0.0313   23.4136 C   0  0  0  0  0  0  0  0  0  0  0  0
    7.4745    0.7674   20.0086 C   0  0  0  0  0  0  0  0  0  0  0  0
    9.9091    0.6891   22.6485 C   0  0  0  0  0  0  0  0  0  0  0  0
   12.0906    1.8289   23.2358 C   0  0  0  0  0  0  0  0  0  0  0  0
    8.2300    0.7157   21.2378 C   0  0  0  0  0  0  0  0  0  0  0  0
   11.7507    3.2654   23.2635 C   0  0  0  0  0  0  0  0  0  0  0  0
    7.2537    0.3341   17.6755 N   0  0  0  0  0  0  0  0  0  0  0  0
    6.2508    1.3247   20.1000 N   0  0  0  0  0  0  0  0  0  0  0  0
    9.5414    0.7597   21.3190 N   0  0  0  0  0  0  0  0  0  0  0  0
   13.3652    1.4036   23.4984 N   0  0  0  0  0  0  0  0  0  0  0  0
    7.3763    0.5903   22.7212 S   0  0  0  0  0  0  0  0  0  0  0  0
   12.8722   -3.7560   23.0049 H   0  0  0  0  0  0  0  0  0  0  0  0
   15.1131   -2.8996   23.5854 H   0  0  0  0  0  0  0  0  0  0  0  0
   10.9706   -2.2071   22.6799 H   0  0  0  0  0  0  0  0  0  0  0  0
   15.5057   -0.4556   23.8553 H   0  0  0  0  0  0  0  0  0  0  0  0
    5.4567    0.9357   16.8491 H   0  0  0  0  0  0  0  0  0  0  0  0
    4.5533    1.8247   19.0305 H   0  0  0  0  0  0  0  0  0  0  0  0
    8.9492   -0.1706   18.7327 H   0  0  0  0  0  0  0  0  0  0  0  0
    8.9174    0.5249   24.6338 H   0  0  0  0  0  0  0  0  0  0  0  0
   11.4288    3.5778   24.2703 H   0  0  0  0  0  0  0  0  0  0  0  0
   12.6064    3.8984   22.9734 H   0  0  0  0  0  0  0  0  0  0  0  0
   10.9372    3.5113   22.5598 H   0  0  0  0  0  0  0  0  0  0  0  0
   14.1456    2.0061   23.7212 H   0  0  0  0  0  0  0  0  0  0  0  0
  1  2  2  0  0  0  0
  1  3  1  0  0  0  0
  2  4  1  0  0  0  0
  3  9  2  0  0  0  0
  4 11  2  0  0  0  0
  5  6  2  0  0  0  0
  5 17  1  0  0  0  0
  6 18  1  0  0  0  0
  7 12  1  0  0  0  0
  7 17  2  0  0  0  0
  8 13  2  0  0  0  0
  8 21  1  0  0  0  0
  9 10  1  0  0  0  0
  9 11  1  0  0  0  0
 10 13  1  0  0  0  0
 10 14  2  0  0  0  0
 11 20  1  0  0  0  0
 12 15  1  0  0  0  0
 12 18  2  0  0  0  0
 13 19  1  0  0  0  0
 14 16  1  0  0  0  0
 14 20  1  0  0  0  0
 15 19  2  0  0  0  0
 15 21  1  0  0  0  0
  1 22  1  0  0  0  0
  2 23  1  0  0  0  0
  3 24  1  0  0  0  0
  4 25  1  0  0  0  0
  5 26  1  0  0  0  0
  6 27  1  0  0  0  0
  7 28  1  0  0  0  0
  8 29  1  0  0  0  0
 16 30  1  0  0  0  0
 16 31  1  0  0  0  0
 16 32  1  0  0  0  0
 20 33  1  0  0  0  0
M  END
> <Hybrid2>
-11.233297

> <fragments>
x0678

> <site>
active-noncovalent

$$$$
top_hits_only_mpro-418_1
  -OEChem-03302021283D

 34 36  0     0  0  0  0  0  0999 V2000
   11.9409   -2.8728   24.1644 C   0  0  0  0  0  0  0  0  0  0  0  0
   10.6589   -3.4055   24.0292 C   0  0  0  0  0  0  0  0  0  0  0  0
    6.8447   -4.8469   22.9791 C   0  0  0  0  0  0  0  0  0  0  0  0
   11.4989   -1.3470   22.3441 C   0  0  0  0  0  0  0  0  0  0  0  0
    6.4739   -3.5659   22.5281 C   0  0  0  0  0  0  0  0  0  0  0  0
    6.3925    0.6175   17.8644 C   0  0  0  0  0  0  0  0  0  0  0  0
    6.1533    0.8215   19.2056 C   0  0  0  0  0  0  0  0  0  0  0  0
    8.5348   -0.0229   18.3439 C   0  0  0  0  0  0  0  0  0  0  0  0
    8.1896   -4.7437   23.2381 C   0  0  0  0  0  0  0  0  0  0  0  0
   12.3609   -1.8435   23.3219 C   0  0  0  0  0  0  0  0  0  0  0  0
    9.7969   -2.9090   23.0515 C   0  0  0  0  0  0  0  0  0  0  0  0
   10.2169   -1.8797   22.2089 C   0  0  0  0  0  0  0  0  0  0  0  0
    8.2959    0.1817   19.6850 C   0  0  0  0  0  0  0  0  0  0  0  0
    9.3399   -0.0566   20.6964 C   0  0  0  0  0  0  0  0  0  0  0  0
   13.7321   -1.2750   23.4672 C   0  0  0  0  0  0  0  0  0  0  0  0
    7.5876    0.1916   17.4095 N   0  0  0  0  0  0  0  0  0  0  0  0
    7.1007    0.6073   20.1399 N   0  0  0  0  0  0  0  0  0  0  0  0
    7.5002   -2.7116   22.5013 N   0  0  0  0  0  0  0  0  0  0  0  0
    8.5292   -3.4572   22.9386 N   0  0  0  0  0  0  0  0  0  0  0  0
    9.3736   -1.3626   21.2203 N   0  0  0  0  0  0  0  0  0  0  0  0
   10.0879    0.8489   21.0590 O   0  0  0  0  0  0  0  0  0  0  0  0
   14.4634   -1.8573   24.4632 F   0  0  0  0  0  0  0  0  0  0  0  0
   14.4980   -1.4006   22.3433 F   0  0  0  0  0  0  0  0  0  0  0  0
   13.7196    0.0592   23.7545 F   0  0  0  0  0  0  0  0  0  0  0  0
   12.6063   -3.2662   24.9286 H   0  0  0  0  0  0  0  0  0  0  0  0
   10.3464   -4.2080   24.6934 H   0  0  0  0  0  0  0  0  0  0  0  0
    6.2241   -5.7224   23.1002 H   0  0  0  0  0  0  0  0  0  0  0  0
   11.8296   -0.5440   21.6886 H   0  0  0  0  0  0  0  0  0  0  0  0
    5.4986   -3.2187   22.2180 H   0  0  0  0  0  0  0  0  0  0  0  0
    5.6311    0.7902   17.1138 H   0  0  0  0  0  0  0  0  0  0  0  0
    5.1919    1.1620   19.5705 H   0  0  0  0  0  0  0  0  0  0  0  0
    9.4926   -0.3659   17.9702 H   0  0  0  0  0  0  0  0  0  0  0  0
    8.9097   -5.4641   23.6032 H   0  0  0  0  0  0  0  0  0  0  0  0
    8.6921   -2.0193   20.8265 H   0  0  0  0  0  0  0  0  0  0  0  0
  1  2  2  0  0  0  0
  1 10  1  0  0  0  0
  2 11  1  0  0  0  0
  3  5  1  0  0  0  0
  3  9  2  0  0  0  0
  4 10  2  0  0  0  0
  4 12  1  0  0  0  0
  5 18  2  0  0  0  0
  6  7  2  0  0  0  0
  6 16  1  0  0  0  0
  7 17  1  0  0  0  0
  8 13  1  0  0  0  0
  8 16  2  0  0  0  0
  9 19  1  0  0  0  0
 10 15  1  0  0  0  0
 11 12  2  0  0  0  0
 11 19  1  0  0  0  0
 12 20  1  0  0  0  0
 13 14  1  0  0  0  0
 13 17  2  0  0  0  0
 14 20  1  0  0  0  0
 14 21  2  0  0  0  0
 15 22  1  0  0  0  0
 15 23  1  0  0  0  0
 15 24  1  0  0  0  0
 18 19  1  0  0  0  0
  1 25  1  0  0  0  0
  2 26  1  0  0  0  0
  3 27  1  0  0  0  0
  4 28  1  0  0  0  0
  5 29  1  0  0  0  0
  6 30  1  0  0  0  0
  7 31  1  0  0  0  0
  8 32  1  0  0  0  0
  9 33  1  0  0  0  0
 20 34  1  0  0  0  0
M  END
> <Hybrid2>
-11.214674

> <fragments>
x0678

> <site>
active-noncovalent

$$$$
top_hits_only_mpro-33_1
  -OEChem-03302021283D

 31 32  0     1  0  0  0  0  0999 V2000
   13.8478   -1.6837   22.8815 C   0  0  0  0  0  0  0  0  0  0  0  0
   13.9198   -0.4734   23.5711 C   0  0  0  0  0  0  0  0  0  0  0  0
   12.6104   -2.1807   22.4721 C   0  0  0  0  0  0  0  0  0  0  0  0
    6.0723    0.4599   19.9380 C   0  0  0  0  0  0  0  0  0  0  0  0
    7.1022    0.6223   20.8578 C   0  0  0  0  0  0  0  0  0  0  0  0
   12.7544    0.2399   23.8515 C   0  0  0  0  0  0  0  0  0  0  0  0
   11.4450   -1.4674   22.7526 C   0  0  0  0  0  0  0  0  0  0  0  0
    6.4136    0.2802   18.6072 C   0  0  0  0  0  0  0  0  0  0  0  0
    8.6595    0.4141   19.0724 C   0  0  0  0  0  0  0  0  0  0  0  0
    8.4234    0.6003   20.4249 C   0  0  0  0  0  0  0  0  0  0  0  0
   11.5169   -0.2571   23.4423 C   0  0  0  0  0  0  0  0  0  0  0  0
    9.5446    0.7715   21.3844 C   0  0  0  0  0  0  0  0  0  0  0  0
    9.6361    0.1247   25.0881 C   0  0  0  0  0  0  0  0  0  0  0  0
   10.2704    0.5050   23.7420 C   0  0  2  0  0  0  0  0  0  0  0  0
    7.6852    0.2530   18.1491 N   0  0  0  0  0  0  0  0  0  0  0  0
    9.2839    0.3774   22.6827 N   0  0  0  0  0  0  0  0  0  0  0  0
   10.6019    1.2573   20.9912 O   0  0  0  0  0  0  0  0  0  0  0  0
   14.7555   -2.2383   22.6620 H   0  0  0  0  0  0  0  0  0  0  0  0
   14.8833   -0.0858   23.8889 H   0  0  0  0  0  0  0  0  0  0  0  0
   12.5541   -3.1224   21.9342 H   0  0  0  0  0  0  0  0  0  0  0  0
    5.0351    0.4729   20.2525 H   0  0  0  0  0  0  0  0  0  0  0  0
    6.8645    0.7659   21.9085 H   0  0  0  0  0  0  0  0  0  0  0  0
   12.8201    1.1819   24.3896 H   0  0  0  0  0  0  0  0  0  0  0  0
   10.4853   -1.8624   22.4299 H   0  0  0  0  0  0  0  0  0  0  0  0
    5.6472    0.1494   17.8504 H   0  0  0  0  0  0  0  0  0  0  0  0
    9.6697    0.3870   18.6749 H   0  0  0  0  0  0  0  0  0  0  0  0
    9.3941   -0.9434   25.1138 H   0  0  0  0  0  0  0  0  0  0  0  0
   10.3144    0.3391   25.9218 H   0  0  0  0  0  0  0  0  0  0  0  0
    8.7126    0.6850   25.2726 H   0  0  0  0  0  0  0  0  0  0  0  0
   10.4863    1.5871   23.7873 H   0  0  0  0  0  0  0  0  0  0  0  0
    8.3686    0.0430   22.9530 H   0  0  0  0  0  0  0  0  0  0  0  0
  1  2  1  0  0  0  0
  1  3  2  0  0  0  0
  2  6  2  0  0  0  0
  3  7  1  0  0  0  0
  4  5  2  0  0  0  0
  4  8  1  0  0  0  0
  5 10  1  0  0  0  0
  6 11  1  0  0  0  0
  7 11  2  0  0  0  0
  8 15  2  0  0  0  0
  9 10  2  0  0  0  0
  9 15  1  0  0  0  0
 10 12  1  0  0  0  0
 11 14  1  0  0  0  0
 12 16  1  0  0  0  0
 12 17  2  0  0  0  0
 13 14  1  0  0  0  0
 14 16  1  0  0  0  0
  1 18  1  0  0  0  0
  2 19  1  0  0  0  0
  3 20  1  0  0  0  0
  4 21  1  0  0  0  0
  5 22  1  0  0  0  0
  6 23  1  0  0  0  0
  7 24  1  0  0  0  0
  8 25  1  0  0  0  0
  9 26  1  0  0  0  0
 13 27  1  0  0  0  0
 13 28  1  0  0  0  0
 13 29  1  0  0  0  0
 14 30  1  0  0  0  0
 16 31  1  0  0  0  0
M  END
> <Hybrid2>
-11.206646

> <fragments>
x0678

> <site>
active-noncovalent

$$$$
top_hits_only_mpro-417_1
  -OEChem-03302021283D

 40 43  0     0  0  0  0  0  0999 V2000
    6.4632    2.6924   25.7081 C   0  0  0  0  0  0  0  0  0  0  0  0
    6.4107    1.3577   25.3062 C   0  0  0  0  0  0  0  0  0  0  0  0
    7.6717    3.3875   25.6624 C   0  0  0  0  0  0  0  0  0  0  0  0
    7.5666    0.7181   24.8587 C   0  0  0  0  0  0  0  0  0  0  0  0
    8.8277    2.7478   25.2149 C   0  0  0  0  0  0  0  0  0  0  0  0
    6.2827    0.0118   18.1264 C   0  0  0  0  0  0  0  0  0  0  0  0
    6.0816    0.1466   19.4824 C   0  0  0  0  0  0  0  0  0  0  0  0
    8.5330    0.2789   18.4334 C   0  0  0  0  0  0  0  0  0  0  0  0
    8.7752    1.4131   24.8131 C   0  0  0  0  0  0  0  0  0  0  0  0
    9.9618    0.7568   24.3540 C   0  0  0  0  0  0  0  0  0  0  0  0
    8.3320    0.4146   19.7894 C   0  0  0  0  0  0  0  0  0  0  0  0
   10.1341    0.2019   23.1085 C   0  0  0  0  0  0  0  0  0  0  0  0
   11.9490   -0.0382   24.3657 C   0  0  0  0  0  0  0  0  0  0  0  0
   13.3449   -1.3894   22.3374 C   0  0  0  0  0  0  0  0  0  0  0  0
   13.9480   -1.1272   23.6339 C   0  0  0  0  0  0  0  0  0  0  0  0
   12.0908   -0.9760   22.1043 C   0  0  0  0  0  0  0  0  0  0  0  0
   13.2957   -0.4776   24.6279 C   0  0  0  0  0  0  0  0  0  0  0  0
    9.4567    0.6366   20.7142 C   0  0  0  0  0  0  0  0  0  0  0  0
   13.9858   -0.2422   25.9464 C   0  0  0  0  0  0  0  0  0  0  0  0
    7.5120    0.0754   17.5775 N   0  0  0  0  0  0  0  0  0  0  0  0
    7.1027    0.3505   20.3383 N   0  0  0  0  0  0  0  0  0  0  0  0
   11.0849    0.6058   25.1259 N   0  0  0  0  0  0  0  0  0  0  0  0
   11.4069   -0.3084   23.1125 N   0  0  0  0  0  0  0  0  0  0  0  0
    9.2883    0.1226   22.0323 N   0  0  0  0  0  0  0  0  0  0  0  0
   10.4551    1.2589   20.3582 O   0  0  0  0  0  0  0  0  0  0  0  0
    5.5630    3.1910   26.0555 H   0  0  0  0  0  0  0  0  0  0  0  0
    5.4696    0.8168   25.3405 H   0  0  0  0  0  0  0  0  0  0  0  0
    7.7121    4.4270   25.9741 H   0  0  0  0  0  0  0  0  0  0  0  0
    7.5094   -0.3228   24.5488 H   0  0  0  0  0  0  0  0  0  0  0  0
    9.7621    3.3036   25.1853 H   0  0  0  0  0  0  0  0  0  0  0  0
    5.4619   -0.1516   17.4389 H   0  0  0  0  0  0  0  0  0  0  0  0
    5.0935    0.0934   19.9229 H   0  0  0  0  0  0  0  0  0  0  0  0
    9.5182    0.3281   17.9844 H   0  0  0  0  0  0  0  0  0  0  0  0
   13.9228   -1.9142   21.5864 H   0  0  0  0  0  0  0  0  0  0  0  0
   14.9649   -1.4839   23.7688 H   0  0  0  0  0  0  0  0  0  0  0  0
   11.5895   -1.1426   21.1588 H   0  0  0  0  0  0  0  0  0  0  0  0
   13.7892   -1.0814   26.6061 H   0  0  0  0  0  0  0  0  0  0  0  0
   13.6061    0.6735   26.3893 H   0  0  0  0  0  0  0  0  0  0  0  0
   15.0540   -0.1467   25.7773 H   0  0  0  0  0  0  0  0  0  0  0  0
    8.3992   -0.3836   22.2019 H   0  0  0  0  0  0  0  0  0  0  0  0
  1  2  1  0  0  0  0
  1  3  2  0  0  0  0
  2  4  2  0  0  0  0
  3  5  1  0  0  0  0
  4  9  1  0  0  0  0
  5  9  2  0  0  0  0
  6  7  2  0  0  0  0
  6 20  1  0  0  0  0
  7 21  1  0  0  0  0
  8 11  1  0  0  0  0
  8 20  2  0  0  0  0
  9 10  1  0  0  0  0
 10 12  2  0  0  0  0
 10 22  1  0  0  0  0
 11 18  1  0  0  0  0
 11 21  2  0  0  0  0
 12 23  1  0  0  0  0
 12 24  1  0  0  0  0
 13 17  1  0  0  0  0
 13 22  2  0  0  0  0
 13 23  1  0  0  0  0
 14 15  1  0  0  0  0
 14 16  2  0  0  0  0
 15 17  2  0  0  0  0
 16 23  1  0  0  0  0
 17 19  1  0  0  0  0
 18 24  1  0  0  0  0
 18 25  2  0  0  0  0
  1 26  1  0  0  0  0
  2 27  1  0  0  0  0
  3 28  1  0  0  0  0
  4 29  1  0  0  0  0
  5 30  1  0  0  0  0
  6 31  1  0  0  0  0
  7 32  1  0  0  0  0
  8 33  1  0  0  0  0
 14 34  1  0  0  0  0
 15 35  1  0  0  0  0
 16 36  1  0  0  0  0
 19 37  1  0  0  0  0
 19 38  1  0  0  0  0
 19 39  1  0  0  0  0
 24 40  1  0  0  0  0
M  END
> <Hybrid2>
-11.175940

> <fragments>
x0678

> <site>
active-noncovalent

$$$$
top_hits_only_mpro-335_1
  -OEChem-03302021283D

 40 42  0     1  0  0  0  0  0999 V2000
    9.5436    7.1194   25.3331 C   0  0  0  0  0  0  0  0  0  0  0  0
   10.5981    7.5397   26.1469 C   0  0  0  0  0  0  0  0  0  0  0  0
   13.9306   -2.1640   23.4016 C   0  0  0  0  0  0  0  0  0  0  0  0
   12.5685   -2.3940   23.2086 C   0  0  0  0  0  0  0  0  0  0  0  0
    9.7854    6.4413   24.1318 C   0  0  0  0  0  0  0  0  0  0  0  0
   11.9295    7.2989   25.7919 C   0  0  0  0  0  0  0  0  0  0  0  0
   14.4541   -0.8836   23.2217 C   0  0  0  0  0  0  0  0  0  0  0  0
   12.2533   -0.0633   22.6556 C   0  0  0  0  0  0  0  0  0  0  0  0
   11.7298   -1.3437   22.8356 C   0  0  0  0  0  0  0  0  0  0  0  0
   11.1170    6.1911   23.7594 C   0  0  0  0  0  0  0  0  0  0  0  0
   12.1465    6.6221   24.5912 C   0  0  0  0  0  0  0  0  0  0  0  0
   13.6154    0.1667   22.8486 C   0  0  0  0  0  0  0  0  0  0  0  0
   12.9254    5.5941   22.7937 C   0  0  0  0  0  0  0  0  0  0  0  0
   13.4633    2.6274   22.2986 C   0  0  0  0  0  0  0  0  0  0  0  0
   13.4937    5.0545   20.3899 C   0  0  0  0  0  0  0  0  0  0  0  0
   13.9338    5.0445   21.8683 C   0  0  2  0  0  0  0  0  0  0  0  0
   10.2736   -1.5902   22.6295 C   0  0  0  0  0  0  0  0  0  0  0  0
   11.6200    5.5546   22.6479 N   0  0  0  0  0  0  0  0  0  0  0  0
   13.2919    6.2269   23.9489 N   0  0  0  0  0  0  0  0  0  0  0  0
   14.1465    1.4650   22.6669 N   0  0  0  0  0  0  0  0  0  0  0  0
   14.3529    3.6940   22.2297 N   0  0  0  0  0  0  0  0  0  0  0  0
   12.2613    2.7275   22.0644 O   0  0  0  0  0  0  0  0  0  0  0  0
    9.9025   -2.8878   22.8403 F   0  0  0  0  0  0  0  0  0  0  0  0
    9.4720   -0.8525   23.4536 F   0  0  0  0  0  0  0  0  0  0  0  0
    9.8652   -1.2944   21.3610 F   0  0  0  0  0  0  0  0  0  0  0  0
    8.5193    7.3209   25.6365 H   0  0  0  0  0  0  0  0  0  0  0  0
   10.3808    8.0654   27.0736 H   0  0  0  0  0  0  0  0  0  0  0  0
   14.5837   -2.9817   23.6925 H   0  0  0  0  0  0  0  0  0  0  0  0
   12.1702   -3.3948   23.3506 H   0  0  0  0  0  0  0  0  0  0  0  0
    8.9587    6.1182   23.5073 H   0  0  0  0  0  0  0  0  0  0  0  0
   12.7491    7.6235   26.4228 H   0  0  0  0  0  0  0  0  0  0  0  0
   15.5173   -0.7160   23.3746 H   0  0  0  0  0  0  0  0  0  0  0  0
   11.5973    0.7540   22.3639 H   0  0  0  0  0  0  0  0  0  0  0  0
   12.5631    4.4900   20.2655 H   0  0  0  0  0  0  0  0  0  0  0  0
   13.3247    6.0727   20.0219 H   0  0  0  0  0  0  0  0  0  0  0  0
   14.2532    4.6006   19.7434 H   0  0  0  0  0  0  0  0  0  0  0  0
   14.8750    5.6317   21.9105 H   0  0  0  0  0  0  0  0  0  0  0  0
   14.2376    6.3774   24.2747 H   0  0  0  0  0  0  0  0  0  0  0  0
   15.1466    1.5591   22.8251 H   0  0  0  0  0  0  0  0  0  0  0  0
   15.3255    3.5280   22.4376 H   0  0  0  0  0  0  0  0  0  0  0  0
  1  2  2  0  0  0  0
  1  5  1  0  0  0  0
  2  6  1  0  0  0  0
  3  4  1  0  0  0  0
  3  7  2  0  0  0  0
  4  9  2  0  0  0  0
  5 10  2  0  0  0  0
  6 11  2  0  0  0  0
  7 12  1  0  0  0  0
  8  9  1  0  0  0  0
  8 12  2  0  0  0  0
  9 17  1  0  0  0  0
 10 11  1  0  0  0  0
 10 18  1  0  0  0  0
 11 19  1  0  0  0  0
 12 20  1  0  0  0  0
 13 16  1  0  0  0  0
 13 18  2  0  0  0  0
 13 19  1  0  0  0  0
 14 20  1  0  0  0  0
 14 21  1  0  0  0  0
 14 22  2  0  0  0  0
 15 16  1  0  0  0  0
 16 21  1  0  0  0  0
 17 23  1  0  0  0  0
 17 24  1  0  0  0  0
 17 25  1  0  0  0  0
  1 26  1  0  0  0  0
  2 27  1  0  0  0  0
  3 28  1  0  0  0  0
  4 29  1  0  0  0  0
  5 30  1  0  0  0  0
  6 31  1  0  0  0  0
  7 32  1  0  0  0  0
  8 33  1  0  0  0  0
 15 34  1  0  0  0  0
 15 35  1  0  0  0  0
 15 36  1  0  0  0  0
 16 37  1  0  0  0  0
 19 38  1  0  0  0  0
 20 39  1  0  0  0  0
 21 40  1  0  0  0  0
M  END
> <Hybrid2>
-11.156880

> <fragments>
x0195

> <site>
active-noncovalent

$$$$
-12.224361419677734_1
  -OEChem-03302021283D

 46 49  0     1  0  0  0  0  0999 V2000
   14.0143   -0.9029   23.7302 C   0  0  0  0  0  0  0  0  0  0  0  0
   12.9606    0.0111   23.7218 C   0  0  0  0  0  0  0  0  0  0  0  0
   13.8401   -2.1732   23.1808 C   0  0  0  0  0  0  0  0  0  0  0  0
   11.7327   -0.3452   23.1642 C   0  0  0  0  0  0  0  0  0  0  0  0
   12.6122   -2.5295   22.6232 C   0  0  0  0  0  0  0  0  0  0  0  0
   11.5585   -1.6155   22.6149 C   0  0  0  0  0  0  0  0  0  0  0  0
    7.9428    0.4613   18.1498 C   0  0  0  0  0  0  0  0  0  0  0  0
    6.4473   -0.6910   19.2213 C   0  0  0  0  0  0  0  0  0  0  0  0
    9.2588    0.1611   20.9479 C   0  0  0  0  0  0  0  0  0  0  0  0
    7.8062   -4.5701   24.7801 C   0  0  0  0  0  0  0  0  0  0  0  0
    7.6461   -4.7365   23.2719 C   0  0  0  0  0  0  0  0  0  0  0  0
    8.0396   -3.1092   25.1533 C   0  0  0  0  0  0  0  0  0  0  0  0
    8.8428   -4.1639   22.5161 C   0  0  0  0  0  0  0  0  0  0  0  0
    9.2358   -2.5223   24.4046 C   0  0  0  0  0  0  0  0  0  0  0  0
    8.0422   -1.6967   22.2632 C   0  0  0  0  0  0  0  0  0  0  0  0
   10.1602   -2.0213   21.9789 C   0  0  1  0  0  0  0  0  0  0  0  0
    9.0632   -2.6878   22.8839 C   0  0  0  0  0  0  0  0  0  0  0  0
    7.9315    0.7972   20.6314 C   0  0  0  0  0  0  0  0  0  0  0  0
    7.3533   -0.1846   17.1963 N   0  0  0  0  0  0  0  0  0  0  0  0
    6.4012   -0.9238   17.8386 N   0  0  0  0  0  0  0  0  0  0  0  0
    7.4723    0.2261   19.4009 N   0  0  0  0  0  0  0  0  0  0  0  0
    9.1718   -0.9796   21.7032 N   0  0  0  0  0  0  0  0  0  0  0  0
    5.7293   -1.1963   20.0712 O   0  0  0  0  0  0  0  0  0  0  0  0
   10.3134    0.6487   20.5443 O   0  0  0  0  0  0  0  0  0  0  0  0
   14.9708   -0.6255   24.1634 H   0  0  0  0  0  0  0  0  0  0  0  0
   13.0969    1.0004   24.1490 H   0  0  0  0  0  0  0  0  0  0  0  0
   14.6613   -2.8841   23.1872 H   0  0  0  0  0  0  0  0  0  0  0  0
   10.9165    0.3721   23.1609 H   0  0  0  0  0  0  0  0  0  0  0  0
   12.4845   -3.5209   22.1968 H   0  0  0  0  0  0  0  0  0  0  0  0
    8.7741    1.1689   18.0354 H   0  0  0  0  0  0  0  0  0  0  0  0
    6.9103   -4.9424   25.2894 H   0  0  0  0  0  0  0  0  0  0  0  0
    8.6498   -5.1780   25.1292 H   0  0  0  0  0  0  0  0  0  0  0  0
    7.5338   -5.7991   23.0302 H   0  0  0  0  0  0  0  0  0  0  0  0
    6.7259   -4.2365   22.9488 H   0  0  0  0  0  0  0  0  0  0  0  0
    7.1374   -2.5277   24.9266 H   0  0  0  0  0  0  0  0  0  0  0  0
    8.2087   -3.0289   26.2334 H   0  0  0  0  0  0  0  0  0  0  0  0
    9.7401   -4.7451   22.7626 H   0  0  0  0  0  0  0  0  0  0  0  0
    8.6743   -4.2807   21.4388 H   0  0  0  0  0  0  0  0  0  0  0  0
    9.3388   -1.4649   24.6755 H   0  0  0  0  0  0  0  0  0  0  0  0
   10.1539   -3.0271   24.7309 H   0  0  0  0  0  0  0  0  0  0  0  0
    7.3670   -2.1110   21.5101 H   0  0  0  0  0  0  0  0  0  0  0  0
    7.4747   -1.0821   22.9691 H   0  0  0  0  0  0  0  0  0  0  0  0
   10.3525   -2.6182   21.0619 H   0  0  0  0  0  0  0  0  0  0  0  0
    8.0812    1.8692   20.5347 H   0  0  0  0  0  0  0  0  0  0  0  0
    7.2455    0.5791   21.4456 H   0  0  0  0  0  0  0  0  0  0  0  0
    5.7529   -1.5517   17.3810 H   0  0  0  0  0  0  0  0  0  0  0  0
  1  2  1  0  0  0  0
  1  3  2  0  0  0  0
  2  4  2  0  0  0  0
  3  5  1  0  0  0  0
  4  6  1  0  0  0  0
  5  6  2  0  0  0  0
  6 16  1  0  0  0  0
  7 19  2  0  0  0  0
  7 21  1  0  0  0  0
  8 20  1  0  0  0  0
  8 21  1  0  0  0  0
  8 23  2  0  0  0  0
  9 18  1  0  0  0  0
  9 22  1  0  0  0  0
  9 24  2  0  0  0  0
 10 11  1  0  0  0  0
 10 12  1  0  0  0  0
 11 13  1  0  0  0  0
 12 14  1  0  0  0  0
 13 17  1  0  0  0  0
 14 17  1  0  0  0  0
 15 17  1  0  0  0  0
 15 22  1  0  0  0  0
 16 17  1  0  0  0  0
 16 22  1  0  0  0  0
 18 21  1  0  0  0  0
 19 20  1  0  0  0  0
  1 25  1  0  0  0  0
  2 26  1  0  0  0  0
  3 27  1  0  0  0  0
  4 28  1  0  0  0  0
  5 29  1  0  0  0  0
  7 30  1  0  0  0  0
 10 31  1  0  0  0  0
 10 32  1  0  0  0  0
 11 33  1  0  0  0  0
 11 34  1  0  0  0  0
 12 35  1  0  0  0  0
 12 36  1  0  0  0  0
 13 37  1  0  0  0  0
 13 38  1  0  0  0  0
 14 39  1  0  0  0  0
 14 40  1  0  0  0  0
 15 41  1  0  0  0  0
 15 42  1  0  0  0  0
 16 43  1  0  0  0  0
 18 44  1  0  0  0  0
 18 45  1  0  0  0  0
 20 46  1  0  0  0  0
M  END
> <Hybrid2>
-11.152248

> <fragments>
x0678

> <site>
active-noncovalent

$$$$
top_hits_only_mpro-233_1
  -OEChem-03302021283D

 39 41  0     1  0  0  0  0  0999 V2000
    4.0896    1.6148   19.7051 C   0  0  0  0  0  0  0  0  0  0  0  0
    9.0641   -3.1256   24.7348 C   0  0  0  0  0  0  0  0  0  0  0  0
    7.5229   -3.1497   22.8745 C   0  0  0  0  0  0  0  0  0  0  0  0
    7.7585   -5.1054   24.2734 C   0  0  0  0  0  0  0  0  0  0  0  0
    5.7387    0.7908   18.0858 C   0  0  0  0  0  0  0  0  0  0  0  0
    7.6735   -0.1644   18.8432 C   0  0  0  0  0  0  0  0  0  0  0  0
    5.3322    0.9982   19.3855 C   0  0  0  0  0  0  0  0  0  0  0  0
    8.4719   -2.4818   23.6484 C   0  0  0  0  0  0  0  0  0  0  0  0
    8.7075   -4.4374   25.0473 C   0  0  0  0  0  0  0  0  0  0  0  0
    7.1662   -4.4615   23.1869 C   0  0  0  0  0  0  0  0  0  0  0  0
    7.2675    0.0437   20.1430 C   0  0  0  0  0  0  0  0  0  0  0  0
   10.0411   -1.0059   22.3309 C   0  0  0  0  0  0  0  0  0  0  0  0
    9.3954   -1.0059   20.9478 C   0  0  0  0  0  0  0  0  0  0  0  0
    7.7924   -0.2140   22.5836 C   0  0  0  0  0  0  0  0  0  0  0  0
    8.8606   -1.0528   23.3088 C   0  0  1  0  0  0  0  0  0  0  0  0
    9.3401   -5.1263   26.2091 C   0  0  0  0  0  0  0  0  0  0  0  0
    6.1514   -5.1753   22.3591 C   0  0  0  0  0  0  0  0  0  0  0  0
    3.0766    2.1176   19.9655 N   0  0  0  0  0  0  0  0  0  0  0  0
    6.9166    0.2057   17.7913 N   0  0  0  0  0  0  0  0  0  0  0  0
    6.0894    0.6284   20.4375 N   0  0  0  0  0  0  0  0  0  0  0  0
    8.1024   -0.3644   21.1620 N   0  0  3  0  0  0  0  0  0  0  0  0
    9.2264   -0.3575   24.4296 F   0  0  0  0  0  0  0  0  0  0  0  0
    9.8044   -2.6055   25.3384 H   0  0  0  0  0  0  0  0  0  0  0  0
    7.0612   -2.6475   22.0274 H   0  0  0  0  0  0  0  0  0  0  0  0
    7.4802   -6.1280   24.5167 H   0  0  0  0  0  0  0  0  0  0  0  0
    5.1380    1.0841   17.2324 H   0  0  0  0  0  0  0  0  0  0  0  0
    8.6185   -0.6339   18.5951 H   0  0  0  0  0  0  0  0  0  0  0  0
   10.6876   -1.8925   22.4423 H   0  0  0  0  0  0  0  0  0  0  0  0
   10.6659   -0.1122   22.4804 H   0  0  0  0  0  0  0  0  0  0  0  0
    9.9894   -0.4164   20.2405 H   0  0  0  0  0  0  0  0  0  0  0  0
    9.2908   -2.0254   20.5625 H   0  0  0  0  0  0  0  0  0  0  0  0
    6.7737   -0.5848   22.7737 H   0  0  0  0  0  0  0  0  0  0  0  0
    7.8487    0.8405   22.8914 H   0  0  0  0  0  0  0  0  0  0  0  0
    8.7549   -4.9533   27.1205 H   0  0  0  0  0  0  0  0  0  0  0  0
    9.4100   -6.2087   26.0407 H   0  0  0  0  0  0  0  0  0  0  0  0
   10.3627   -4.7645   26.3781 H   0  0  0  0  0  0  0  0  0  0  0  0
    6.6386   -5.7075   21.5329 H   0  0  0  0  0  0  0  0  0  0  0  0
    5.5891   -5.9031   22.9583 H   0  0  0  0  0  0  0  0  0  0  0  0
    5.4176   -4.4759   21.9380 H   0  0  0  0  0  0  0  0  0  0  0  0
  1  7  1  0  0  0  0
  1 18  3  0  0  0  0
  2  8  1  0  0  0  0
  2  9  2  0  0  0  0
  3  8  2  0  0  0  0
  3 10  1  0  0  0  0
  4  9  1  0  0  0  0
  4 10  2  0  0  0  0
  5  7  1  0  0  0  0
  5 19  2  0  0  0  0
  6 11  2  0  0  0  0
  6 19  1  0  0  0  0
  7 20  2  0  0  0  0
  8 15  1  0  0  0  0
  9 16  1  0  0  0  0
 10 17  1  0  0  0  0
 11 20  1  0  0  0  0
 11 21  1  0  0  0  0
 12 13  1  0  0  0  0
 12 15  1  0  0  0  0
 13 21  1  0  0  0  0
 14 15  1  0  0  0  0
 14 21  1  0  0  0  0
 15 22  1  0  0  0  0
  2 23  1  0  0  0  0
  3 24  1  0  0  0  0
  4 25  1  0  0  0  0
  5 26  1  0  0  0  0
  6 27  1  0  0  0  0
 12 28  1  0  0  0  0
 12 29  1  0  0  0  0
 13 30  1  0  0  0  0
 13 31  1  0  0  0  0
 14 32  1  0  0  0  0
 14 33  1  0  0  0  0
 16 34  1  0  0  0  0
 16 35  1  0  0  0  0
 16 36  1  0  0  0  0
 17 37  1  0  0  0  0
 17 38  1  0  0  0  0
 17 39  1  0  0  0  0
M  END
> <Hybrid2>
-11.107542

> <fragments>
x0107

> <site>
active-noncovalent

$$$$
top_hits_only_mpro-11_1
  -OEChem-03302021283D

 44 48  0     0  0  0  0  0  0999 V2000
    8.5965   -0.2247   20.8834 C   0  0  0  0  0  0  0  0  0  0  0  0
    7.4862    0.2703   19.1712 C   0  0  0  0  0  0  0  0  0  0  0  0
    4.8416    1.1535   19.0437 C   0  0  0  0  0  0  0  0  0  0  0  0
    5.3863    0.8843   20.2342 C   0  0  0  0  0  0  0  0  0  0  0  0
    5.7496    0.9400   17.8878 C   0  0  0  0  0  0  0  0  0  0  0  0
    6.6626   -3.4167   26.7848 C   0  0  0  0  0  0  0  0  0  0  0  0
    7.8335   -5.5917   26.3535 C   0  0  0  0  0  0  0  0  0  0  0  0
    5.6671   -5.0832   25.1976 C   0  0  0  0  0  0  0  0  0  0  0  0
    8.8049   -3.4505   25.4811 C   0  0  0  0  0  0  0  0  0  0  0  0
    6.6337   -2.9407   24.3227 C   0  0  0  0  0  0  0  0  0  0  0  0
    7.8069   -5.1207   23.8902 C   0  0  0  0  0  0  0  0  0  0  0  0
    8.0353   -4.0958   26.6469 C   0  0  0  0  0  0  0  0  0  0  0  0
    5.8582   -3.5848   25.4851 C   0  0  0  0  0  0  0  0  0  0  0  0
    7.0348   -5.7707   25.0517 C   0  0  0  0  0  0  0  0  0  0  0  0
    8.0180   -3.6117   24.1589 C   0  0  0  0  0  0  0  0  0  0  0  0
    8.7865   -2.9685   23.0016 C   0  0  0  0  0  0  0  0  0  0  0  0
    9.0357   -1.4926   23.2736 C   0  0  0  0  0  0  0  0  0  0  0  0
    8.6823   -0.1517   19.5292 N   0  0  0  0  0  0  0  0  0  0  0  0
    7.4259    0.1222   21.4122 N   0  0  0  0  0  0  0  0  0  0  0  0
    6.9811    0.5300   17.9296 N   0  0  0  0  0  0  0  0  0  0  0  0
    6.7010    0.4440   20.3143 N   0  0  0  0  0  0  0  0  0  0  0  0
    9.9486   -0.7466   21.8932 S   0  0  0  0  0  0  0  0  0  0  0  0
    3.8292    1.4993   18.8963 H   0  0  0  0  0  0  0  0  0  0  0  0
    4.8408    0.9950   21.1635 H   0  0  0  0  0  0  0  0  0  0  0  0
    5.3033    1.1611   16.9042 H   0  0  0  0  0  0  0  0  0  0  0  0
    6.1110   -3.8548   27.6258 H   0  0  0  0  0  0  0  0  0  0  0  0
    6.7925   -2.3510   27.0101 H   0  0  0  0  0  0  0  0  0  0  0  0
    8.8062   -6.0915   26.2682 H   0  0  0  0  0  0  0  0  0  0  0  0
    7.3027   -6.0684   27.1868 H   0  0  0  0  0  0  0  0  0  0  0  0
    5.0979   -5.5507   26.0105 H   0  0  0  0  0  0  0  0  0  0  0  0
    5.0806   -5.2172   24.2803 H   0  0  0  0  0  0  0  0  0  0  0  0
    8.9735   -2.3871   25.6951 H   0  0  0  0  0  0  0  0  0  0  0  0
    9.7956   -3.9146   25.3922 H   0  0  0  0  0  0  0  0  0  0  0  0
    6.0537   -3.0360   23.3956 H   0  0  0  0  0  0  0  0  0  0  0  0
    6.7528   -1.8658   24.5102 H   0  0  0  0  0  0  0  0  0  0  0  0
    8.7750   -5.6229   23.7647 H   0  0  0  0  0  0  0  0  0  0  0  0
    7.2535   -5.2655   22.9535 H   0  0  0  0  0  0  0  0  0  0  0  0
    8.6029   -3.9746   27.5763 H   0  0  0  0  0  0  0  0  0  0  0  0
    4.8807   -3.1009   25.5900 H   0  0  0  0  0  0  0  0  0  0  0  0
    6.8925   -6.8381   24.8490 H   0  0  0  0  0  0  0  0  0  0  0  0
    8.2021   -3.1015   22.0865 H   0  0  0  0  0  0  0  0  0  0  0  0
    9.7313   -3.5054   22.8773 H   0  0  0  0  0  0  0  0  0  0  0  0
    8.0904   -0.9540   23.3952 H   0  0  0  0  0  0  0  0  0  0  0  0
    9.6213   -1.3589   24.1887 H   0  0  0  0  0  0  0  0  0  0  0  0
  1 18  1  0  0  0  0
  1 19  2  0  0  0  0
  1 22  1  0  0  0  0
  2 18  2  0  0  0  0
  2 20  1  0  0  0  0
  2 21  1  0  0  0  0
  3  4  2  0  0  0  0
  3  5  1  0  0  0  0
  4 21  1  0  0  0  0
  5 20  2  0  0  0  0
  6 12  1  0  0  0  0
  6 13  1  0  0  0  0
  7 12  1  0  0  0  0
  7 14  1  0  0  0  0
  8 13  1  0  0  0  0
  8 14  1  0  0  0  0
  9 12  1  0  0  0  0
  9 15  1  0  0  0  0
 10 13  1  0  0  0  0
 10 15  1  0  0  0  0
 11 14  1  0  0  0  0
 11 15  1  0  0  0  0
 15 16  1  0  0  0  0
 16 17  1  0  0  0  0
 17 22  1  0  0  0  0
 19 21  1  0  0  0  0
  3 23  1  0  0  0  0
  4 24  1  0  0  0  0
  5 25  1  0  0  0  0
  6 26  1  0  0  0  0
  6 27  1  0  0  0  0
  7 28  1  0  0  0  0
  7 29  1  0  0  0  0
  8 30  1  0  0  0  0
  8 31  1  0  0  0  0
  9 32  1  0  0  0  0
  9 33  1  0  0  0  0
 10 34  1  0  0  0  0
 10 35  1  0  0  0  0
 11 36  1  0  0  0  0
 11 37  1  0  0  0  0
 12 38  1  0  0  0  0
 13 39  1  0  0  0  0
 14 40  1  0  0  0  0
 16 41  1  0  0  0  0
 16 42  1  0  0  0  0
 17 43  1  0  0  0  0
 17 44  1  0  0  0  0
M  END
> <Hybrid2>
-11.106500

> <fragments>
x0107

> <site>
active-noncovalent

$$$$
top_hits_only_mpro-205_1
  -OEChem-03302021283D

 34 36  0     1  0  0  0  0  0999 V2000
    7.2559   -2.5789   25.1878 C   0  0  0  0  0  0  0  0  0  0  0  0
    9.4060   -3.4107   24.4652 C   0  0  0  0  0  0  0  0  0  0  0  0
    7.1233   -3.6689   26.0480 C   0  0  0  0  0  0  0  0  0  0  0  0
    9.2735   -4.5006   25.3255 C   0  0  0  0  0  0  0  0  0  0  0  0
    8.3972   -2.4498   24.3963 C   0  0  0  0  0  0  0  0  0  0  0  0
    8.1322   -4.6297   26.1169 C   0  0  0  0  0  0  0  0  0  0  0  0
    7.4851   -0.1561   18.8905 C   0  0  0  0  0  0  0  0  0  0  0  0
    7.2687    0.0489   20.3383 C   0  0  0  0  0  0  0  0  0  0  0  0
    6.1459    0.7071   20.6458 C   0  0  0  0  0  0  0  0  0  0  0  0
    5.2188    1.1767   19.5838 C   0  0  0  0  0  0  0  0  0  0  0  0
    9.6142   -0.0107   21.1286 C   0  0  0  0  0  0  0  0  0  0  0  0
    7.9585   -1.5740   22.0777 C   0  0  0  0  0  0  0  0  0  0  0  0
   10.1262    0.2285   22.5431 C   0  0  0  0  0  0  0  0  0  0  0  0
    8.5420   -1.2672   23.4634 C   0  0  2  0  0  0  0  0  0  0  0  0
    6.7148    0.2295   17.9290 N   0  0  0  0  0  0  0  0  0  0  0  0
    5.5913    0.8912   18.2896 N   0  0  0  0  0  0  0  0  0  0  0  0
    8.2192   -0.4458   21.1823 N   0  0  3  0  0  0  0  0  0  0  0  0
    4.1844    1.7827   19.8577 O   0  0  0  0  0  0  0  0  0  0  0  0
    9.9319   -0.9319   23.3523 O   0  0  0  0  0  0  0  0  0  0  0  0
    8.0062   -5.6750   26.9450 F   0  0  0  0  0  0  0  0  0  0  0  0
    5.7054    1.0508   22.2783 Cl  0  0  0  0  0  0  0  0  0  0  0  0
    6.4642   -1.8358   25.1404 H   0  0  0  0  0  0  0  0  0  0  0  0
   10.2990   -3.3183   23.8525 H   0  0  0  0  0  0  0  0  0  0  0  0
    6.2353   -3.7691   26.6647 H   0  0  0  0  0  0  0  0  0  0  0  0
   10.0585   -5.2491   25.3791 H   0  0  0  0  0  0  0  0  0  0  0  0
    8.4070   -0.6977   18.6190 H   0  0  0  0  0  0  0  0  0  0  0  0
    9.7309    0.9052   20.5381 H   0  0  0  0  0  0  0  0  0  0  0  0
   10.2049   -0.7986   20.6457 H   0  0  0  0  0  0  0  0  0  0  0  0
    8.4289   -2.4685   21.6484 H   0  0  0  0  0  0  0  0  0  0  0  0
    6.8843   -1.7821   22.1623 H   0  0  0  0  0  0  0  0  0  0  0  0
   11.1999    0.4399   22.5186 H   0  0  0  0  0  0  0  0  0  0  0  0
    9.6312    1.0891   23.0088 H   0  0  0  0  0  0  0  0  0  0  0  0
    8.0053   -0.4150   23.9289 H   0  0  0  0  0  0  0  0  0  0  0  0
    5.0062    1.1816   17.5127 H   0  0  0  0  0  0  0  0  0  0  0  0
  1  3  2  0  0  0  0
  1  5  1  0  0  0  0
  2  4  1  0  0  0  0
  2  5  2  0  0  0  0
  3  6  1  0  0  0  0
  4  6  2  0  0  0  0
  5 14  1  0  0  0  0
  6 20  1  0  0  0  0
  7  8  1  0  0  0  0
  7 15  2  0  0  0  0
  8  9  2  0  0  0  0
  8 17  1  0  0  0  0
  9 10  1  0  0  0  0
  9 21  1  0  0  0  0
 10 16  1  0  0  0  0
 10 18  2  0  0  0  0
 11 13  1  0  0  0  0
 11 17  1  0  0  0  0
 12 14  1  0  0  0  0
 12 17  1  0  0  0  0
 13 19  1  0  0  0  0
 14 19  1  0  0  0  0
 15 16  1  0  0  0  0
  1 22  1  0  0  0  0
  2 23  1  0  0  0  0
  3 24  1  0  0  0  0
  4 25  1  0  0  0  0
  7 26  1  0  0  0  0
 11 27  1  0  0  0  0
 11 28  1  0  0  0  0
 12 29  1  0  0  0  0
 12 30  1  0  0  0  0
 13 31  1  0  0  0  0
 13 32  1  0  0  0  0
 14 33  1  0  0  0  0
 16 34  1  0  0  0  0
M  END
> <Hybrid2>
-11.097708

> <fragments>
x0107

> <site>
active-noncovalent

$$$$
top_hits_only_mpro-219_1
  -OEChem-03302021283D

 43 45  0     1  0  0  0  0  0999 V2000
   13.8098   -2.0895   23.3749 C   0  0  0  0  0  0  0  0  0  0  0  0
   14.2354   -1.0205   24.1633 C   0  0  0  0  0  0  0  0  0  0  0  0
   12.9132   -1.8711   22.3288 C   0  0  0  0  0  0  0  0  0  0  0  0
   13.7644    0.2670   23.9058 C   0  0  0  0  0  0  0  0  0  0  0  0
   12.4422   -0.5836   22.0713 C   0  0  0  0  0  0  0  0  0  0  0  0
    6.4017    1.2241   20.0269 C   0  0  0  0  0  0  0  0  0  0  0  0
    8.1886    0.3781   18.7049 C   0  0  0  0  0  0  0  0  0  0  0  0
    6.2544    1.0452   17.6600 C   0  0  0  0  0  0  0  0  0  0  0  0
    7.6889    0.7032   19.9556 C   0  0  0  0  0  0  0  0  0  0  0  0
   12.8678    0.4854   22.8598 C   0  0  0  0  0  0  0  0  0  0  0  0
    5.6639    1.4014   18.8618 C   0  0  0  0  0  0  0  0  0  0  0  0
    8.4884    0.5077   21.1591 C   0  0  0  0  0  0  0  0  0  0  0  0
    8.7684    3.8440   22.7930 C   0  0  0  0  0  0  0  0  0  0  0  0
    9.6822    2.9654   23.6390 C   0  0  0  0  0  0  0  0  0  0  0  0
    7.9073    2.8281   22.0580 C   0  0  0  0  0  0  0  0  0  0  0  0
    9.9779    1.7773   22.7201 C   0  0  2  0  0  0  0  0  0  0  0  0
   13.1557    2.9374   23.1146 C   0  0  0  0  0  0  0  0  0  0  0  0
   11.2060    2.0242   21.8445 C   0  0  0  0  0  0  0  0  0  0  0  0
    7.5021    0.5362   17.5511 N   0  0  0  0  0  0  0  0  0  0  0  0
    8.7593    1.6462   21.9163 N   0  0  0  0  0  0  0  0  0  0  0  0
   12.3908    1.7888   22.5987 N   0  0  3  0  0  0  0  0  0  0  0  0
    8.8998   -0.6151   21.4467 O   0  0  0  0  0  0  0  0  0  0  0  0
    4.4234    1.9010   18.9000 F   0  0  0  0  0  0  0  0  0  0  0  0
   14.1764   -3.0920   23.5756 H   0  0  0  0  0  0  0  0  0  0  0  0
   14.9332   -1.1907   24.9776 H   0  0  0  0  0  0  0  0  0  0  0  0
   12.5819   -2.7037   21.7149 H   0  0  0  0  0  0  0  0  0  0  0  0
   14.1020    1.0932   24.5261 H   0  0  0  0  0  0  0  0  0  0  0  0
   11.7439   -0.4254   21.2533 H   0  0  0  0  0  0  0  0  0  0  0  0
    5.9645    1.4941   20.9845 H   0  0  0  0  0  0  0  0  0  0  0  0
    9.1877   -0.0300   18.5849 H   0  0  0  0  0  0  0  0  0  0  0  0
    5.7208    1.1630   16.7226 H   0  0  0  0  0  0  0  0  0  0  0  0
    8.1733    4.5299   23.4025 H   0  0  0  0  0  0  0  0  0  0  0  0
    9.3557    4.4351   22.0811 H   0  0  0  0  0  0  0  0  0  0  0  0
   10.5809    3.4977   23.9644 H   0  0  0  0  0  0  0  0  0  0  0  0
    9.1442    2.6225   24.5313 H   0  0  0  0  0  0  0  0  0  0  0  0
    7.0318    2.5412   22.6510 H   0  0  0  0  0  0  0  0  0  0  0  0
    7.5739    3.1872   21.0799 H   0  0  0  0  0  0  0  0  0  0  0  0
   10.1322    0.8610   23.2987 H   0  0  0  0  0  0  0  0  0  0  0  0
   12.6532    3.8725   22.8263 H   0  0  0  0  0  0  0  0  0  0  0  0
   13.2144    2.8759   24.2113 H   0  0  0  0  0  0  0  0  0  0  0  0
   14.1710    2.9215   22.6915 H   0  0  0  0  0  0  0  0  0  0  0  0
   11.1447    1.3377   21.0018 H   0  0  0  0  0  0  0  0  0  0  0  0
   11.1621    3.0599   21.5121 H   0  0  0  0  0  0  0  0  0  0  0  0
  1  2  1  0  0  0  0
  1  3  2  0  0  0  0
  2  4  2  0  0  0  0
  3  5  1  0  0  0  0
  4 10  1  0  0  0  0
  5 10  2  0  0  0  0
  6  9  1  0  0  0  0
  6 11  2  0  0  0  0
  7  9  2  0  0  0  0
  7 19  1  0  0  0  0
  8 11  1  0  0  0  0
  8 19  2  0  0  0  0
  9 12  1  0  0  0  0
 10 21  1  0  0  0  0
 11 23  1  0  0  0  0
 12 20  1  0  0  0  0
 12 22  2  0  0  0  0
 13 14  1  0  0  0  0
 13 15  1  0  0  0  0
 14 16  1  0  0  0  0
 15 20  1  0  0  0  0
 16 18  1  0  0  0  0
 16 20  1  0  0  0  0
 17 21  1  0  0  0  0
 18 21  1  0  0  0  0
  1 24  1  0  0  0  0
  2 25  1  0  0  0  0
  3 26  1  0  0  0  0
  4 27  1  0  0  0  0
  5 28  1  0  0  0  0
  6 29  1  0  0  0  0
  7 30  1  0  0  0  0
  8 31  1  0  0  0  0
 13 32  1  0  0  0  0
 13 33  1  0  0  0  0
 14 34  1  0  0  0  0
 14 35  1  0  0  0  0
 15 36  1  0  0  0  0
 15 37  1  0  0  0  0
 16 38  1  0  0  0  0
 17 39  1  0  0  0  0
 17 40  1  0  0  0  0
 17 41  1  0  0  0  0
 18 42  1  0  0  0  0
 18 43  1  0  0  0  0
M  END
> <Hybrid2>
-11.060928

> <fragments>
x0678

> <site>
active-noncovalent

$$$$
top_hits_only_mpro-61_1
  -OEChem-03302021283D

 31 32  0     0  0  0  0  0  0999 V2000
   13.1749    1.1851   23.0694 C   0  0  0  0  0  0  0  0  0  0  0  0
   13.7522   -0.0067   23.5075 C   0  0  0  0  0  0  0  0  0  0  0  0
   12.1348   -1.2618   22.2245 C   0  0  0  0  0  0  0  0  0  0  0  0
    8.6807    0.2724   18.4892 C   0  0  0  0  0  0  0  0  0  0  0  0
    6.5199   -0.2249   17.9885 C   0  0  0  0  0  0  0  0  0  0  0  0
    8.3652    0.4404   19.8221 C   0  0  0  0  0  0  0  0  0  0  0  0
   11.5575   -0.0699   21.7864 C   0  0  0  0  0  0  0  0  0  0  0  0
   12.0776    1.1535   22.2088 C   0  0  0  0  0  0  0  0  0  0  0  0
   13.2321   -1.2301   23.0851 C   0  0  0  0  0  0  0  0  0  0  0  0
    7.0395    0.2443   20.1511 C   0  0  0  0  0  0  0  0  0  0  0  0
    9.3994    0.8031   20.8062 C   0  0  0  0  0  0  0  0  0  0  0  0
    5.8515    1.7143   21.7986 C   0  0  0  0  0  0  0  0  0  0  0  0
    6.5792    0.3941   21.5643 C   0  0  0  0  0  0  0  0  0  0  0  0
    7.7798   -0.0613   17.5420 N   0  0  0  0  0  0  0  0  0  0  0  0
    6.0866   -0.0901   19.2564 N   0  0  0  0  0  0  0  0  0  0  0  0
   10.4591   -0.1172   20.9246 N   0  0  0  0  0  0  0  0  0  0  0  0
    9.2980    1.8239   21.4834 O   0  0  0  0  0  0  0  0  0  0  0  0
   11.5284    2.3296   21.7925 O   0  0  0  0  0  0  0  0  0  0  0  0
   13.9441   -2.7002   23.6272 Cl  0  0  0  0  0  0  0  0  0  0  0  0
   13.5849    2.1347   23.4024 H   0  0  0  0  0  0  0  0  0  0  0  0
   14.6066    0.0332   24.1783 H   0  0  0  0  0  0  0  0  0  0  0  0
   11.7273   -2.2148   21.8938 H   0  0  0  0  0  0  0  0  0  0  0  0
    9.6955    0.4030   18.1259 H   0  0  0  0  0  0  0  0  0  0  0  0
    5.7757   -0.4939   17.2490 H   0  0  0  0  0  0  0  0  0  0  0  0
    6.4869    2.5663   21.5340 H   0  0  0  0  0  0  0  0  0  0  0  0
    5.5674    1.8171   22.8506 H   0  0  0  0  0  0  0  0  0  0  0  0
    4.9403    1.7741   21.1937 H   0  0  0  0  0  0  0  0  0  0  0  0
    5.9141   -0.4391   21.8395 H   0  0  0  0  0  0  0  0  0  0  0  0
    7.4350    0.3256   22.2537 H   0  0  0  0  0  0  0  0  0  0  0  0
   10.4190   -0.9272   20.2966 H   0  0  0  0  0  0  0  0  0  0  0  0
   12.0092    3.0782   22.1784 H   0  0  0  0  0  0  0  0  0  0  0  0
  1  2  2  0  0  0  0
  1  8  1  0  0  0  0
  2  9  1  0  0  0  0
  3  7  1  0  0  0  0
  3  9  2  0  0  0  0
  4  6  1  0  0  0  0
  4 14  2  0  0  0  0
  5 14  1  0  0  0  0
  5 15  2  0  0  0  0
  6 10  2  0  0  0  0
  6 11  1  0  0  0  0
  7  8  2  0  0  0  0
  7 16  1  0  0  0  0
  8 18  1  0  0  0  0
  9 19  1  0  0  0  0
 10 13  1  0  0  0  0
 10 15  1  0  0  0  0
 11 16  1  0  0  0  0
 11 17  2  0  0  0  0
 12 13  1  0  0  0  0
  1 20  1  0  0  0  0
  2 21  1  0  0  0  0
  3 22  1  0  0  0  0
  4 23  1  0  0  0  0
  5 24  1  0  0  0  0
 12 25  1  0  0  0  0
 12 26  1  0  0  0  0
 12 27  1  0  0  0  0
 13 28  1  0  0  0  0
 13 29  1  0  0  0  0
 16 30  1  0  0  0  0
 18 31  1  0  0  0  0
M  END
> <Hybrid2>
-11.008365

> <fragments>
x0678

> <site>
active-noncovalent

$$$$
top_hits_only_mpro-209_1
  -OEChem-03302021283D

 34 37  0     0  0  0  0  0  0999 V2000
    8.6676    1.9905   24.7548 C   0  0  0  0  0  0  0  0  0  0  0  0
   10.6249    1.1686   23.6014 C   0  0  0  0  0  0  0  0  0  0  0  0
    9.1097    3.3007   24.5714 C   0  0  0  0  0  0  0  0  0  0  0  0
   11.0670    2.4787   23.4179 C   0  0  0  0  0  0  0  0  0  0  0  0
    5.6091    0.6469   18.0908 C   0  0  0  0  0  0  0  0  0  0  0  0
    5.1708    0.9441   19.3624 C   0  0  0  0  0  0  0  0  0  0  0  0
    7.6373    0.0151   18.9373 C   0  0  0  0  0  0  0  0  0  0  0  0
    9.4253    0.9244   24.2699 C   0  0  0  0  0  0  0  0  0  0  0  0
   10.3093    3.5448   23.9029 C   0  0  0  0  0  0  0  0  0  0  0  0
    8.9703   -0.4243   24.4590 C   0  0  0  0  0  0  0  0  0  0  0  0
    7.1994    0.3130   20.2090 C   0  0  0  0  0  0  0  0  0  0  0  0
    8.1586   -1.1186   23.5765 C   0  0  0  0  0  0  0  0  0  0  0  0
    8.6949   -2.3147   25.3338 C   0  0  0  0  0  0  0  0  0  0  0  0
    7.3400   -3.5100   23.8856 C   0  0  0  0  0  0  0  0  0  0  0  0
    7.5301   -4.4216   24.8546 C   0  0  0  0  0  0  0  0  0  0  0  0
    8.0698    0.1315   21.3833 C   0  0  0  0  0  0  0  0  0  0  0  0
    6.8501    0.1769   17.8554 N   0  0  0  0  0  0  0  0  0  0  0  0
    5.9582    0.7826   20.4443 N   0  0  0  0  0  0  0  0  0  0  0  0
    9.3043   -1.1851   25.5643 N   0  0  0  0  0  0  0  0  0  0  0  0
    7.9966   -2.3352   24.1651 N   0  0  0  0  0  0  0  0  0  0  0  0
    7.5954   -0.7746   22.3776 N   0  0  0  0  0  0  0  0  0  0  0  0
    9.1212    0.7584   21.4945 O   0  0  0  0  0  0  0  0  0  0  0  0
   10.7337    4.8030   23.7267 F   0  0  0  0  0  0  0  0  0  0  0  0
    8.5564   -3.8290   26.1733 S   0  0  0  0  0  0  0  0  0  0  0  0
    7.7306    1.8169   25.2786 H   0  0  0  0  0  0  0  0  0  0  0  0
   11.2269    0.3485   23.2170 H   0  0  0  0  0  0  0  0  0  0  0  0
    8.5203    4.1307   24.9496 H   0  0  0  0  0  0  0  0  0  0  0  0
   12.0007    2.6698   22.8972 H   0  0  0  0  0  0  0  0  0  0  0  0
    4.9763    0.7772   17.2216 H   0  0  0  0  0  0  0  0  0  0  0  0
    4.1726    1.3199   19.5509 H   0  0  0  0  0  0  0  0  0  0  0  0
    8.6333   -0.3638   18.7398 H   0  0  0  0  0  0  0  0  0  0  0  0
    6.7577   -3.6313   22.9849 H   0  0  0  0  0  0  0  0  0  0  0  0
    7.1163   -5.4200   24.8618 H   0  0  0  0  0  0  0  0  0  0  0  0
    6.6931   -1.2401   22.1605 H   0  0  0  0  0  0  0  0  0  0  0  0
  1  3  2  0  0  0  0
  1  8  1  0  0  0  0
  2  4  1  0  0  0  0
  2  8  2  0  0  0  0
  3  9  1  0  0  0  0
  4  9  2  0  0  0  0
  5  6  2  0  0  0  0
  5 17  1  0  0  0  0
  6 18  1  0  0  0  0
  7 11  1  0  0  0  0
  7 17  2  0  0  0  0
  8 10  1  0  0  0  0
  9 23  1  0  0  0  0
 10 12  2  0  0  0  0
 10 19  1  0  0  0  0
 11 16  1  0  0  0  0
 11 18  2  0  0  0  0
 12 20  1  0  0  0  0
 12 21  1  0  0  0  0
 13 19  2  0  0  0  0
 13 20  1  0  0  0  0
 13 24  1  0  0  0  0
 14 15  2  0  0  0  0
 14 20  1  0  0  0  0
 15 24  1  0  0  0  0
 16 21  1  0  0  0  0
 16 22  2  0  0  0  0
  1 25  1  0  0  0  0
  2 26  1  0  0  0  0
  3 27  1  0  0  0  0
  4 28  1  0  0  0  0
  5 29  1  0  0  0  0
  6 30  1  0  0  0  0
  7 31  1  0  0  0  0
 14 32  1  0  0  0  0
 15 33  1  0  0  0  0
 21 34  1  0  0  0  0
M  END
> <Hybrid2>
-11.000914

> <fragments>
x0107

> <site>
active-noncovalent

$$$$
top_hits_only_mpro-137_1
  -OEChem-03302021283D

 41 44  0     0  0  0  0  0  0999 V2000
    7.7345   -3.7759   23.6298 C   0  0  0  0  0  0  0  0  0  0  0  0
    8.2842   -2.7684   25.7558 C   0  0  0  0  0  0  0  0  0  0  0  0
    6.7885   -2.7767   23.4009 C   0  0  0  0  0  0  0  0  0  0  0  0
    7.3382   -1.7692   25.5269 C   0  0  0  0  0  0  0  0  0  0  0  0
    7.7102   -0.3525   19.4158 C   0  0  0  0  0  0  0  0  0  0  0  0
    9.8168   -1.3805   22.1338 C   0  0  0  0  0  0  0  0  0  0  0  0
    6.4739    0.2871   19.5931 C   0  0  0  0  0  0  0  0  0  0  0  0
    8.4823   -3.7717   24.8073 C   0  0  0  0  0  0  0  0  0  0  0  0
    6.5903   -1.7734   24.3494 C   0  0  0  0  0  0  0  0  0  0  0  0
    6.6900    0.2253   22.0088 C   0  0  0  0  0  0  0  0  0  0  0  0
    7.9317   -0.4167   21.8579 C   0  0  0  0  0  0  0  0  0  0  0  0
    5.9557    0.5798   20.8645 C   0  0  0  0  0  0  0  0  0  0  0  0
    8.4049   -0.6862   20.5783 C   0  0  0  0  0  0  0  0  0  0  0  0
    5.6774    0.6723   18.4091 C   0  0  0  0  0  0  0  0  0  0  0  0
    4.0229    1.5559   19.9931 C   0  0  0  0  0  0  0  0  0  0  0  0
    9.4939   -4.8396   25.0529 C   0  0  0  0  0  0  0  0  0  0  0  0
    5.5677   -0.6916   24.1002 C   0  0  0  0  0  0  0  0  0  0  0  0
    6.1443    0.5337   23.3690 C   0  0  0  0  0  0  0  0  0  0  0  0
    8.8213   -0.8549   22.8119 N   0  0  0  0  0  0  0  0  0  0  0  0
    4.7159    1.2215   21.0444 N   0  0  0  0  0  0  0  0  0  0  0  0
    9.6125   -1.3031   20.7844 N   0  0  0  0  0  0  0  0  0  0  0  0
    4.4770    1.2956   18.7067 N   0  0  0  0  0  0  0  0  0  0  0  0
    2.8073    2.1813   20.0797 N   0  0  0  0  0  0  0  0  0  0  0  0
    6.0703    0.4469   17.2704 O   0  0  0  0  0  0  0  0  0  0  0  0
    7.8817   -4.5541   22.8855 H   0  0  0  0  0  0  0  0  0  0  0  0
    8.8634   -2.7569   26.6755 H   0  0  0  0  0  0  0  0  0  0  0  0
    6.2115   -2.7870   22.4801 H   0  0  0  0  0  0  0  0  0  0  0  0
    7.1900   -0.9913   26.2713 H   0  0  0  0  0  0  0  0  0  0  0  0
    8.1148   -0.5822   18.4365 H   0  0  0  0  0  0  0  0  0  0  0  0
   10.7055   -1.8296   22.5540 H   0  0  0  0  0  0  0  0  0  0  0  0
   10.4716   -4.5379   24.6574 H   0  0  0  0  0  0  0  0  0  0  0  0
    9.6016   -5.0476   26.1254 H   0  0  0  0  0  0  0  0  0  0  0  0
    9.2012   -5.7834   24.5743 H   0  0  0  0  0  0  0  0  0  0  0  0
    4.7519   -1.1212   23.5042 H   0  0  0  0  0  0  0  0  0  0  0  0
    5.1104   -0.3855   25.0498 H   0  0  0  0  0  0  0  0  0  0  0  0
    6.9505    0.9608   23.9862 H   0  0  0  0  0  0  0  0  0  0  0  0
    5.3813    1.3255   23.3061 H   0  0  0  0  0  0  0  0  0  0  0  0
   10.2397   -1.6404   20.0665 H   0  0  0  0  0  0  0  0  0  0  0  0
    3.8898    1.5819   17.9289 H   0  0  0  0  0  0  0  0  0  0  0  0
    2.4451    2.3852   20.9827 H   0  0  0  0  0  0  0  0  0  0  0  0
    2.3323    2.4081   19.2364 H   0  0  0  0  0  0  0  0  0  0  0  0
  1  3  2  0  0  0  0
  1  8  1  0  0  0  0
  2  4  1  0  0  0  0
  2  8  2  0  0  0  0
  3  9  1  0  0  0  0
  4  9  2  0  0  0  0
  5  7  2  0  0  0  0
  5 13  1  0  0  0  0
  6 19  2  0  0  0  0
  6 21  1  0  0  0  0
  7 12  1  0  0  0  0
  7 14  1  0  0  0  0
  8 16  1  0  0  0  0
  9 17  1  0  0  0  0
 10 11  1  0  0  0  0
 10 12  2  0  0  0  0
 10 18  1  0  0  0  0
 11 13  2  0  0  0  0
 11 19  1  0  0  0  0
 12 20  1  0  0  0  0
 13 21  1  0  0  0  0
 14 22  1  0  0  0  0
 14 24  2  0  0  0  0
 15 20  2  0  0  0  0
 15 22  1  0  0  0  0
 15 23  1  0  0  0  0
 17 18  1  0  0  0  0
  1 25  1  0  0  0  0
  2 26  1  0  0  0  0
  3 27  1  0  0  0  0
  4 28  1  0  0  0  0
  5 29  1  0  0  0  0
  6 30  1  0  0  0  0
 16 31  1  0  0  0  0
 16 32  1  0  0  0  0
 16 33  1  0  0  0  0
 17 34  1  0  0  0  0
 17 35  1  0  0  0  0
 18 36  1  0  0  0  0
 18 37  1  0  0  0  0
 21 38  1  0  0  0  0
 22 39  1  0  0  0  0
 23 40  1  0  0  0  0
 23 41  1  0  0  0  0
M  END
> <Hybrid2>
-10.971066

> <fragments>
x0107

> <site>
active-noncovalent

$$$$
top_hits_only_mpro-217_1
  -OEChem-03302021283D

 38 40  0     1  0  0  0  0  0999 V2000
   13.7783   -1.3108   21.4820 C   0  0  0  0  0  0  0  0  0  0  0  0
   14.7254   -1.4575   22.4954 C   0  0  0  0  0  0  0  0  0  0  0  0
   12.4226   -1.2313   21.8006 C   0  0  0  0  0  0  0  0  0  0  0  0
   14.3169   -1.5248   23.8274 C   0  0  0  0  0  0  0  0  0  0  0  0
    5.7651    0.4864   20.0945 C   0  0  0  0  0  0  0  0  0  0  0  0
    7.4574   -0.4682   18.7979 C   0  0  0  0  0  0  0  0  0  0  0  0
    6.1423    1.1886   17.9657 C   0  0  0  0  0  0  0  0  0  0  0  0
    6.7881   -0.4354   20.0042 C   0  0  0  0  0  0  0  0  0  0  0  0
   12.0141   -1.2985   23.1326 C   0  0  0  0  0  0  0  0  0  0  0  0
   12.9612   -1.4453   24.1460 C   0  0  0  0  0  0  0  0  0  0  0  0
    8.6722   -0.6736   24.5661 C   0  0  0  0  0  0  0  0  0  0  0  0
   10.0939   -0.1823   24.2957 C   0  0  0  0  0  0  0  0  0  0  0  0
    9.6664   -2.1737   22.9809 C   0  0  0  0  0  0  0  0  0  0  0  0
    8.3347   -1.5229   23.3499 C   0  0  2  0  0  0  0  0  0  0  0  0
    7.1502   -1.3421   21.1435 C   0  0  0  0  0  0  0  0  0  0  0  0
    5.4140    1.3172   19.0912 N   0  0  0  0  0  0  0  0  0  0  0  0
    7.1597    0.3322   17.7534 N   0  0  0  0  0  0  0  0  0  0  0  0
   10.6731   -1.2197   23.4450 N   0  0  3  0  0  0  0  0  0  0  0  0
    7.8910   -0.6429   22.2349 N   0  3  0  0  0  0  0  0  0  0  0  0
   12.5796   -1.5112   25.4294 F   0  0  0  0  0  0  0  0  0  0  0  0
   14.0966   -1.2586   20.4450 H   0  0  0  0  0  0  0  0  0  0  0  0
   15.7809   -1.5192   22.2467 H   0  0  0  0  0  0  0  0  0  0  0  0
   11.6929   -1.1162   21.0029 H   0  0  0  0  0  0  0  0  0  0  0  0
   15.0541   -1.6390   24.6164 H   0  0  0  0  0  0  0  0  0  0  0  0
    5.1778    0.5910   21.0015 H   0  0  0  0  0  0  0  0  0  0  0  0
    8.2776   -1.1583   18.6259 H   0  0  0  0  0  0  0  0  0  0  0  0
    5.8806    1.8433   17.1436 H   0  0  0  0  0  0  0  0  0  0  0  0
    8.6032   -1.2430   25.5062 H   0  0  0  0  0  0  0  0  0  0  0  0
    7.9920    0.1916   24.6502 H   0  0  0  0  0  0  0  0  0  0  0  0
   10.0792    0.7989   23.8074 H   0  0  0  0  0  0  0  0  0  0  0  0
   10.6682   -0.1062   25.2263 H   0  0  0  0  0  0  0  0  0  0  0  0
    9.7822   -3.1543   23.4653 H   0  0  0  0  0  0  0  0  0  0  0  0
    9.7646   -2.3104   21.8925 H   0  0  0  0  0  0  0  0  0  0  0  0
    7.5606   -2.2380   23.5406 H   0  0  0  0  0  0  0  0  0  0  0  0
    6.2563   -1.7799   21.6005 H   0  0  0  0  0  0  0  0  0  0  0  0
    7.7897   -2.1649   20.8062 H   0  0  0  0  0  0  0  0  0  0  0  0
    7.2914    0.1151   22.6026 H   0  0  0  0  0  0  0  0  0  0  0  0
    8.7074   -0.1628   21.8199 H   0  0  0  0  0  0  0  0  0  0  0  0
  1  2  1  0  0  0  0
  1  3  2  0  0  0  0
  2  4  2  0  0  0  0
  3  9  1  0  0  0  0
  4 10  1  0  0  0  0
  5  8  1  0  0  0  0
  5 16  2  0  0  0  0
  6  8  2  0  0  0  0
  6 17  1  0  0  0  0
  7 16  1  0  0  0  0
  7 17  2  0  0  0  0
  8 15  1  0  0  0  0
  9 10  2  0  0  0  0
  9 18  1  0  0  0  0
 10 20  1  0  0  0  0
 11 12  1  0  0  0  0
 11 14  1  0  0  0  0
 12 18  1  0  0  0  0
 13 14  1  0  0  0  0
 13 18  1  0  0  0  0
 14 19  1  0  0  0  0
 15 19  1  0  0  0  0
  1 21  1  0  0  0  0
  2 22  1  0  0  0  0
  3 23  1  0  0  0  0
  4 24  1  0  0  0  0
  5 25  1  0  0  0  0
  6 26  1  0  0  0  0
  7 27  1  0  0  0  0
 11 28  1  0  0  0  0
 11 29  1  0  0  0  0
 12 30  1  0  0  0  0
 12 31  1  0  0  0  0
 13 32  1  0  0  0  0
 13 33  1  0  0  0  0
 14 34  1  0  0  0  0
 15 35  1  0  0  0  0
 15 36  1  0  0  0  0
 19 37  1  0  0  0  0
 19 38  1  0  0  0  0
M  CHG  1  19   1
M  END
> <Hybrid2>
-10.958323

> <fragments>
x0678

> <site>
active-noncovalent

$$$$
top_hits_only_mpro-55_1
  -OEChem-03302021283D

 26 28  0     0  0  0  0  0  0999 V2000
   12.5689   -0.3458   24.4653 C   0  0  0  0  0  0  0  0  0  0  0  0
    7.4535    0.5442   18.8465 C   0  0  0  0  0  0  0  0  0  0  0  0
   11.5529   -0.1369   23.4911 C   0  0  0  0  0  0  0  0  0  0  0  0
   13.6715   -0.9719   23.9268 C   0  0  0  0  0  0  0  0  0  0  0  0
   11.9119   -0.6098   22.2423 C   0  0  0  0  0  0  0  0  0  0  0  0
    9.0853    0.1202   20.0771 C   0  0  0  0  0  0  0  0  0  0  0  0
   10.2501    0.4815   23.6528 C   0  0  0  0  0  0  0  0  0  0  0  0
    9.9995    0.0015   21.2421 C   0  0  0  0  0  0  0  0  0  0  0  0
   14.9960   -2.8628   24.9048 C   0  0  0  0  0  0  0  0  0  0  0  0
   14.9278   -1.3633   24.6020 C   0  0  0  0  0  0  0  0  0  0  0  0
    7.8956    0.6723   20.1321 N   0  0  0  0  0  0  0  0  0  0  0  0
    8.2950   -0.0525   17.9995 N   0  0  0  0  0  0  0  0  0  0  0  0
   11.1677   -0.5621   21.1034 N   0  0  0  0  0  0  0  0  0  0  0  0
    9.3305   -0.3137   18.8117 N   0  0  0  0  0  0  0  0  0  0  0  0
    9.5251    0.5100   22.4608 N   0  0  0  0  0  0  0  0  0  0  0  0
    9.8419    0.9227   24.7217 O   0  0  0  0  0  0  0  0  0  0  0  0
   13.4748   -1.3019   22.2584 S   0  0  0  0  0  0  0  0  0  0  0  0
   12.4968   -0.0545   25.5058 H   0  0  0  0  0  0  0  0  0  0  0  0
    6.4876    0.8971   18.5165 H   0  0  0  0  0  0  0  0  0  0  0  0
   14.1387   -3.1769   25.5099 H   0  0  0  0  0  0  0  0  0  0  0  0
   15.9088   -3.1139   25.4541 H   0  0  0  0  0  0  0  0  0  0  0  0
   14.9857   -3.4474   23.9787 H   0  0  0  0  0  0  0  0  0  0  0  0
   15.8084   -1.0883   23.9915 H   0  0  0  0  0  0  0  0  0  0  0  0
   15.0583   -0.8077   25.5498 H   0  0  0  0  0  0  0  0  0  0  0  0
   10.1490   -0.7790   18.4374 H   0  0  0  0  0  0  0  0  0  0  0  0
    8.5968    0.9243   22.4763 H   0  0  0  0  0  0  0  0  0  0  0  0
  1  3  1  0  0  0  0
  1  4  2  0  0  0  0
  2 11  1  0  0  0  0
  2 12  2  0  0  0  0
  3  5  2  0  0  0  0
  3  7  1  0  0  0  0
  4 10  1  0  0  0  0
  4 17  1  0  0  0  0
  5 13  1  0  0  0  0
  5 17  1  0  0  0  0
  6  8  1  0  0  0  0
  6 11  2  0  0  0  0
  6 14  1  0  0  0  0
  7 15  1  0  0  0  0
  7 16  2  0  0  0  0
  8 13  2  0  0  0  0
  8 15  1  0  0  0  0
  9 10  1  0  0  0  0
 12 14  1  0  0  0  0
  1 18  1  0  0  0  0
  2 19  1  0  0  0  0
  9 20  1  0  0  0  0
  9 21  1  0  0  0  0
  9 22  1  0  0  0  0
 10 23  1  0  0  0  0
 10 24  1  0  0  0  0
 14 25  1  0  0  0  0
 15 26  1  0  0  0  0
M  END
> <Hybrid2>
-10.948576

> <fragments>
x0678

> <site>
active-noncovalent

$$$$
top_hits_only_mpro-460_1
  -OEChem-03302021283D

 33 35  0     0  0  0  0  0  0999 V2000
   14.3077   -1.7051   23.5745 C   0  0  0  0  0  0  0  0  0  0  0  0
   14.4288   -0.7794   24.6090 C   0  0  0  0  0  0  0  0  0  0  0  0
   13.0621   -1.9733   22.9954 C   0  0  0  0  0  0  0  0  0  0  0  0
   13.3127   -0.0937   25.0969 C   0  0  0  0  0  0  0  0  0  0  0  0
    9.8930   -0.4226   23.9507 C   0  0  0  0  0  0  0  0  0  0  0  0
   11.9226   -1.2943   23.4707 C   0  0  0  0  0  0  0  0  0  0  0  0
   10.5414   -1.3155   23.1290 C   0  0  0  0  0  0  0  0  0  0  0  0
   12.0739   -0.3720   24.5084 C   0  0  0  0  0  0  0  0  0  0  0  0
    7.9629   -0.2472   18.7577 C   0  0  0  0  0  0  0  0  0  0  0  0
    7.7354    0.1243   20.1703 C   0  0  0  0  0  0  0  0  0  0  0  0
    6.6258    0.8386   20.3864 C   0  0  0  0  0  0  0  0  0  0  0  0
    5.7224    1.2072   19.2656 C   0  0  0  0  0  0  0  0  0  0  0  0
    9.9064   -2.1438   22.0837 C   0  0  0  0  0  0  0  0  0  0  0  0
    9.5504   -1.3708   20.8009 C   0  0  0  0  0  0  0  0  0  0  0  0
    7.2132    0.0456   17.7484 N   0  0  0  0  0  0  0  0  0  0  0  0
   10.8257    0.1417   24.7790 N   0  0  0  0  0  0  0  0  0  0  0  0
    6.1023    0.7695   18.0170 N   0  0  0  0  0  0  0  0  0  0  0  0
    8.6426   -0.2847   21.0566 N   0  0  0  0  0  0  0  0  0  0  0  0
    4.7002    1.8639   19.4555 O   0  0  0  0  0  0  0  0  0  0  0  0
    6.1756    1.3737   21.9638 Cl  0  0  0  0  0  0  0  0  0  0  0  0
   15.1902   -2.2253   23.2117 H   0  0  0  0  0  0  0  0  0  0  0  0
   15.4059   -0.5865   25.0443 H   0  0  0  0  0  0  0  0  0  0  0  0
   12.9844   -2.6971   22.1890 H   0  0  0  0  0  0  0  0  0  0  0  0
   13.4077    0.6259   25.9029 H   0  0  0  0  0  0  0  0  0  0  0  0
    8.8525   -0.1365   24.0200 H   0  0  0  0  0  0  0  0  0  0  0  0
    8.8743   -0.8371   18.5614 H   0  0  0  0  0  0  0  0  0  0  0  0
    8.9756   -2.6004   22.4742 H   0  0  0  0  0  0  0  0  0  0  0  0
   10.5456   -3.0075   21.8104 H   0  0  0  0  0  0  0  0  0  0  0  0
   10.4445   -0.9341   20.3449 H   0  0  0  0  0  0  0  0  0  0  0  0
    9.0784   -2.0293   20.0643 H   0  0  0  0  0  0  0  0  0  0  0  0
   10.6273    0.8350   25.4871 H   0  0  0  0  0  0  0  0  0  0  0  0
    5.5332    0.9842   17.2043 H   0  0  0  0  0  0  0  0  0  0  0  0
    8.6785    0.2093   21.9515 H   0  0  0  0  0  0  0  0  0  0  0  0
  1  2  2  0  0  0  0
  1  3  1  0  0  0  0
  2  4  1  0  0  0  0
  3  6  2  0  0  0  0
  4  8  2  0  0  0  0
  5  7  2  0  0  0  0
  5 16  1  0  0  0  0
  6  7  1  0  0  0  0
  6  8  1  0  0  0  0
  7 13  1  0  0  0  0
  8 16  1  0  0  0  0
  9 10  1  0  0  0  0
  9 15  2  0  0  0  0
 10 11  2  0  0  0  0
 10 18  1  0  0  0  0
 11 12  1  0  0  0  0
 11 20  1  0  0  0  0
 12 17  1  0  0  0  0
 12 19  2  0  0  0  0
 13 14  1  0  0  0  0
 14 18  1  0  0  0  0
 15 17  1  0  0  0  0
  1 21  1  0  0  0  0
  2 22  1  0  0  0  0
  3 23  1  0  0  0  0
  4 24  1  0  0  0  0
  5 25  1  0  0  0  0
  9 26  1  0  0  0  0
 13 27  1  0  0  0  0
 13 28  1  0  0  0  0
 14 29  1  0  0  0  0
 14 30  1  0  0  0  0
 16 31  1  0  0  0  0
 17 32  1  0  0  0  0
 18 33  1  0  0  0  0
M  END
> <Hybrid2>
-10.918921

> <fragments>
x0678

> <site>
active-noncovalent

$$$$
top_hits_only_mpro-121_1
  -OEChem-03302021283D

 47 49  0     0  0  0  0  0  0999 V2000
    8.1618   -0.5092   18.8083 C   0  0  0  0  0  0  0  0  0  0  0  0
    6.3868    0.6774   17.9892 C   0  0  0  0  0  0  0  0  0  0  0  0
    7.6846   -0.3388   20.0892 C   0  0  0  0  0  0  0  0  0  0  0  0
    5.9091    0.8472   19.2700 C   0  0  0  0  0  0  0  0  0  0  0  0
    8.3954   -0.8922   21.2528 C   0  0  0  0  0  0  0  0  0  0  0  0
   14.8881   -1.5848   23.8934 C   0  0  0  0  0  0  0  0  0  0  0  0
   13.8049   -0.7664   24.5832 C   0  0  0  0  0  0  0  0  0  0  0  0
   14.3647   -2.2692   22.6380 C   0  0  0  0  0  0  0  0  0  0  0  0
   11.1493    1.7036   21.7232 C   0  0  0  0  0  0  0  0  0  0  0  0
   13.1393    0.2268   23.6282 C   0  0  0  0  0  0  0  0  0  0  0  0
   13.7228   -1.2651   21.6819 C   0  0  0  0  0  0  0  0  0  0  0  0
   12.2168    0.6945   21.2932 C   0  0  0  0  0  0  0  0  0  0  0  0
   11.3731   -1.3419   22.6166 C   0  0  0  0  0  0  0  0  0  0  0  0
    9.7160    1.2567   21.4438 C   0  0  0  0  0  0  0  0  0  0  0  0
   10.0741   -0.6529   23.0354 C   0  0  0  0  0  0  0  0  0  0  0  0
   12.5850   -0.4141   22.3243 C   0  0  0  0  0  0  0  0  0  0  0  0
    4.0990    2.0785   18.3412 C   0  0  0  0  0  0  0  0  0  0  0  0
    7.5215   -0.0041   17.7353 N   0  0  0  0  0  0  0  0  0  0  0  0
    6.5497    0.3424   20.3431 N   0  0  0  0  0  0  0  0  0  0  0  0
    9.3662   -0.0967   21.8835 N   0  0  0  0  0  0  0  0  0  0  0  0
    8.0768   -2.0308   21.5945 O   0  0  0  0  0  0  0  0  0  0  0  0
    4.7572    1.5486   19.4879 O   0  0  0  0  0  0  0  0  0  0  0  0
    9.0721   -1.0571   18.5947 H   0  0  0  0  0  0  0  0  0  0  0  0
    5.8762    1.0823   17.1236 H   0  0  0  0  0  0  0  0  0  0  0  0
   15.7337   -0.9374   23.6363 H   0  0  0  0  0  0  0  0  0  0  0  0
   15.2680   -2.3431   24.5888 H   0  0  0  0  0  0  0  0  0  0  0  0
   13.0421   -1.4437   24.9883 H   0  0  0  0  0  0  0  0  0  0  0  0
   14.2315   -0.2337   25.4423 H   0  0  0  0  0  0  0  0  0  0  0  0
   15.1793   -2.8035   22.1395 H   0  0  0  0  0  0  0  0  0  0  0  0
   13.6250   -3.0267   22.9191 H   0  0  0  0  0  0  0  0  0  0  0  0
   11.2709    1.9654   22.7790 H   0  0  0  0  0  0  0  0  0  0  0  0
   11.3272    2.6293   21.1636 H   0  0  0  0  0  0  0  0  0  0  0  0
   12.3110    0.7145   24.1636 H   0  0  0  0  0  0  0  0  0  0  0  0
   13.8610    1.0210   23.4045 H   0  0  0  0  0  0  0  0  0  0  0  0
   14.5011   -0.6102   21.2718 H   0  0  0  0  0  0  0  0  0  0  0  0
   13.3183   -1.8306   20.8319 H   0  0  0  0  0  0  0  0  0  0  0  0
   11.8755    0.2177   20.3702 H   0  0  0  0  0  0  0  0  0  0  0  0
   13.1022    1.2694   21.0221 H   0  0  0  0  0  0  0  0  0  0  0  0
   11.6296   -2.0223   23.4338 H   0  0  0  0  0  0  0  0  0  0  0  0
   11.1841   -1.9827   21.7521 H   0  0  0  0  0  0  0  0  0  0  0  0
    9.0307    1.9718   21.9551 H   0  0  0  0  0  0  0  0  0  0  0  0
    9.4539    1.3622   20.3640 H   0  0  0  0  0  0  0  0  0  0  0  0
    9.4184   -1.3734   23.4922 H   0  0  0  0  0  0  0  0  0  0  0  0
   10.2983    0.1231   23.7410 H   0  0  0  0  0  0  0  0  0  0  0  0
    3.1978    2.6129   18.6519 H   0  0  0  0  0  0  0  0  0  0  0  0
    3.8363    1.2638   17.6617 H   0  0  0  0  0  0  0  0  0  0  0  0
    4.7735    2.7713   17.8326 H   0  0  0  0  0  0  0  0  0  0  0  0
  1  3  2  0  0  0  0
  1 18  1  0  0  0  0
  2  4  1  0  0  0  0
  2 18  2  0  0  0  0
  3  5  1  0  0  0  0
  3 19  1  0  0  0  0
  4 19  2  0  0  0  0
  4 22  1  0  0  0  0
  5 20  1  0  0  0  0
  5 21  2  0  0  0  0
  6  7  1  0  0  0  0
  6  8  1  0  0  0  0
  7 10  1  0  0  0  0
  8 11  1  0  0  0  0
  9 12  1  0  0  0  0
  9 14  1  0  0  0  0
 10 16  1  0  0  0  0
 11 16  1  0  0  0  0
 12 16  1  0  0  0  0
 13 15  1  0  0  0  0
 13 16  1  0  0  0  0
 14 20  1  0  0  0  0
 15 20  1  0  0  0  0
 17 22  1  0  0  0  0
  1 23  1  0  0  0  0
  2 24  1  0  0  0  0
  6 25  1  0  0  0  0
  6 26  1  0  0  0  0
  7 27  1  0  0  0  0
  7 28  1  0  0  0  0
  8 29  1  0  0  0  0
  8 30  1  0  0  0  0
  9 31  1  0  0  0  0
  9 32  1  0  0  0  0
 10 33  1  0  0  0  0
 10 34  1  0  0  0  0
 11 35  1  0  0  0  0
 11 36  1  0  0  0  0
 12 37  1  0  0  0  0
 12 38  1  0  0  0  0
 13 39  1  0  0  0  0
 13 40  1  0  0  0  0
 14 41  1  0  0  0  0
 14 42  1  0  0  0  0
 15 43  1  0  0  0  0
 15 44  1  0  0  0  0
 17 45  1  0  0  0  0
 17 46  1  0  0  0  0
 17 47  1  0  0  0  0
M  END
> <Hybrid2>
-10.877776

> <fragments>
x0678

> <site>
active-noncovalent

$$$$
top_hits_only_mpro-501_1
  -OEChem-03302021283D

 39 41  0     0  0  0  0  0  0999 V2000
    5.2767    1.0039   19.4052 C   0  0  0  0  0  0  0  0  0  0  0  0
    5.9841    0.4603   20.4718 C   0  0  0  0  0  0  0  0  0  0  0  0
    9.6027   -1.0227   22.7698 C   0  0  0  0  0  0  0  0  0  0  0  0
    5.8626    0.9630   18.1503 C   0  0  0  0  0  0  0  0  0  0  0  0
    7.7360   -0.0913   18.9609 C   0  0  0  0  0  0  0  0  0  0  0  0
    8.5585   -1.9488   23.0129 C   0  0  0  0  0  0  0  0  0  0  0  0
    7.2380   -0.0996   20.2539 C   0  0  0  0  0  0  0  0  0  0  0  0
    9.2141   -0.2337   21.7097 C   0  0  0  0  0  0  0  0  0  0  0  0
    7.5637   -1.6977   22.0939 C   0  0  0  0  0  0  0  0  0  0  0  0
    5.3977   -5.6433   26.9083 C   0  0  0  0  0  0  0  0  0  0  0  0
    6.4824   -6.2759   27.3748 C   0  0  0  0  0  0  0  0  0  0  0  0
    7.9922   -5.0225   26.0227 C   0  0  0  0  0  0  0  0  0  0  0  0
    7.0168   -4.2971   25.4567 C   0  0  0  0  0  0  0  0  0  0  0  0
    5.6048   -4.5747   25.8818 C   0  0  0  0  0  0  0  0  0  0  0  0
    8.5109   -3.0065   24.0550 C   0  0  0  0  0  0  0  0  0  0  0  0
    9.9338    0.8822   21.0579 C   0  0  0  0  0  0  0  0  0  0  0  0
    6.2576   -2.3696   21.9043 C   0  0  0  0  0  0  0  0  0  0  0  0
    7.0783    0.4275   17.8997 N   0  0  0  0  0  0  0  0  0  0  0  0
    7.9732   -0.6532   21.3068 N   0  0  0  0  0  0  0  0  0  0  0  0
    7.7538   -5.9917   26.9592 N   0  0  0  0  0  0  0  0  0  0  0  0
    7.2438   -3.3316   24.5251 N   0  0  0  0  0  0  0  0  0  0  0  0
    4.6505   -3.9604   25.4169 O   0  0  0  0  0  0  0  0  0  0  0  0
    9.5571   -3.5397   24.4157 O   0  0  0  0  0  0  0  0  0  0  0  0
    4.2976    1.4451   19.5531 H   0  0  0  0  0  0  0  0  0  0  0  0
    5.5472    0.4796   21.4669 H   0  0  0  0  0  0  0  0  0  0  0  0
   10.5371   -0.9386   23.3083 H   0  0  0  0  0  0  0  0  0  0  0  0
    5.3520    1.3737   17.2854 H   0  0  0  0  0  0  0  0  0  0  0  0
    8.7086   -0.5143   18.7261 H   0  0  0  0  0  0  0  0  0  0  0  0
    4.3937   -5.8727   27.2406 H   0  0  0  0  0  0  0  0  0  0  0  0
    6.4235   -7.0612   28.1178 H   0  0  0  0  0  0  0  0  0  0  0  0
    9.0415   -4.8975   25.7834 H   0  0  0  0  0  0  0  0  0  0  0  0
   10.5619    0.5163   20.2306 H   0  0  0  0  0  0  0  0  0  0  0  0
    9.2403    1.6346   20.6482 H   0  0  0  0  0  0  0  0  0  0  0  0
   10.5865    1.4190   21.7657 H   0  0  0  0  0  0  0  0  0  0  0  0
    5.4754   -1.8842   22.5075 H   0  0  0  0  0  0  0  0  0  0  0  0
    5.9359   -2.3482   20.8510 H   0  0  0  0  0  0  0  0  0  0  0  0
    6.2986   -3.4319   22.1932 H   0  0  0  0  0  0  0  0  0  0  0  0
    8.5313   -6.5064   27.3521 H   0  0  0  0  0  0  0  0  0  0  0  0
    6.4301   -2.8450   24.1640 H   0  0  0  0  0  0  0  0  0  0  0  0
  1  2  2  0  0  0  0
  1  4  1  0  0  0  0
  2  7  1  0  0  0  0
  3  6  1  0  0  0  0
  3  8  2  0  0  0  0
  4 18  2  0  0  0  0
  5  7  2  0  0  0  0
  5 18  1  0  0  0  0
  6  9  2  0  0  0  0
  6 15  1  0  0  0  0
  7 19  1  0  0  0  0
  8 16  1  0  0  0  0
  8 19  1  0  0  0  0
  9 17  1  0  0  0  0
  9 19  1  0  0  0  0
 10 11  2  0  0  0  0
 10 14  1  0  0  0  0
 11 20  1  0  0  0  0
 12 13  2  0  0  0  0
 12 20  1  0  0  0  0
 13 14  1  0  0  0  0
 13 21  1  0  0  0  0
 14 22  2  0  0  0  0
 15 21  1  0  0  0  0
 15 23  2  0  0  0  0
  1 24  1  0  0  0  0
  2 25  1  0  0  0  0
  3 26  1  0  0  0  0
  4 27  1  0  0  0  0
  5 28  1  0  0  0  0
 10 29  1  0  0  0  0
 11 30  1  0  0  0  0
 12 31  1  0  0  0  0
 16 32  1  0  0  0  0
 16 33  1  0  0  0  0
 16 34  1  0  0  0  0
 17 35  1  0  0  0  0
 17 36  1  0  0  0  0
 17 37  1  0  0  0  0
 20 38  1  0  0  0  0
 21 39  1  0  0  0  0
M  END
> <Hybrid2>
-10.871468

> <fragments>
x0107

> <site>
active-noncovalent

$$$$
top_hits_only_mpro-509_1
  -OEChem-03302021283D

 42 46  0     1  0  0  0  0  0999 V2000
   14.2473   -1.5707   22.4399 C   0  0  0  0  0  0  0  0  0  0  0  0
   13.7100   -1.3617   23.7100 C   0  0  0  0  0  0  0  0  0  0  0  0
   13.4097   -1.6035   21.3250 C   0  0  0  0  0  0  0  0  0  0  0  0
   12.3350   -1.1856   23.8652 C   0  0  0  0  0  0  0  0  0  0  0  0
   12.0347   -1.4274   21.4802 C   0  0  0  0  0  0  0  0  0  0  0  0
    6.3536    0.7408   18.0471 C   0  0  0  0  0  0  0  0  0  0  0  0
   11.4973   -1.2184   22.7503 C   0  0  0  0  0  0  0  0  0  0  0  0
    7.0754    0.5264   20.0839 C   0  0  0  0  0  0  0  0  0  0  0  0
    4.9221    1.5419   21.3157 C   0  0  0  0  0  0  0  0  0  0  0  0
    4.9017    1.4819   19.9717 C   0  0  0  0  0  0  0  0  0  0  0  0
    7.0512    0.6116   21.5307 C   0  0  0  0  0  0  0  0  0  0  0  0
    8.0029   -0.7397   25.8126 C   0  0  0  0  0  0  0  0  0  0  0  0
    9.4804   -0.8288   25.4336 C   0  0  0  0  0  0  0  0  0  0  0  0
    7.2741   -0.5866   24.4857 C   0  0  0  0  0  0  0  0  0  0  0  0
    9.3132   -0.3789   21.7110 C   0  0  0  0  0  0  0  0  0  0  0  0
   10.0088   -1.0281   22.9177 C   0  0  2  0  0  0  0  0  0  0  0  0
    9.6099   -0.1064   24.0872 C   0  0  1  0  0  0  0  0  0  0  0  0
    8.1910    0.3515   23.7143 C   0  0  1  0  0  0  0  0  0  0  0  0
    7.5573    0.2062   17.9968 N   0  0  0  0  0  0  0  0  0  0  0  0
    8.0193    0.0688   19.2971 N   0  0  0  0  0  0  0  0  0  0  0  0
    5.9779    1.1160   22.1113 N   0  0  0  0  0  0  0  0  0  0  0  0
    6.0102    0.9595   19.3452 N   0  0  0  0  0  0  0  0  0  0  0  0
    8.0938    0.1890   22.2727 N   0  0  0  0  0  0  0  0  0  0  0  0
   15.3181   -1.7065   22.3191 H   0  0  0  0  0  0  0  0  0  0  0  0
   14.3621   -1.3350   24.5781 H   0  0  0  0  0  0  0  0  0  0  0  0
   13.8278   -1.7651   20.3359 H   0  0  0  0  0  0  0  0  0  0  0  0
   11.9251   -1.0235   24.8587 H   0  0  0  0  0  0  0  0  0  0  0  0
   11.3898   -1.4546   20.6059 H   0  0  0  0  0  0  0  0  0  0  0  0
    5.7181    0.9784   17.2058 H   0  0  0  0  0  0  0  0  0  0  0  0
    4.0704    1.9459   21.8525 H   0  0  0  0  0  0  0  0  0  0  0  0
    4.0702    1.8184   19.3664 H   0  0  0  0  0  0  0  0  0  0  0  0
    7.6674   -1.6177   26.3719 H   0  0  0  0  0  0  0  0  0  0  0  0
    7.8322    0.1446   26.4386 H   0  0  0  0  0  0  0  0  0  0  0  0
   10.1014   -0.3541   26.2007 H   0  0  0  0  0  0  0  0  0  0  0  0
    9.7969   -1.8755   25.3649 H   0  0  0  0  0  0  0  0  0  0  0  0
    7.1876   -1.5636   23.9946 H   0  0  0  0  0  0  0  0  0  0  0  0
    6.2671   -0.1769   24.6105 H   0  0  0  0  0  0  0  0  0  0  0  0
    9.9191    0.4200   21.2665 H   0  0  0  0  0  0  0  0  0  0  0  0
    9.0963   -1.1223   20.9358 H   0  0  0  0  0  0  0  0  0  0  0  0
    9.5637   -2.0455   23.0693 H   0  0  0  0  0  0  0  0  0  0  0  0
   10.2864    0.7546   24.1598 H   0  0  0  0  0  0  0  0  0  0  0  0
    8.0327    1.3950   24.0134 H   0  0  0  0  0  0  0  0  0  0  0  0
  1  2  1  0  0  0  0
  1  3  2  0  0  0  0
  2  4  2  0  0  0  0
  3  5  1  0  0  0  0
  4  7  1  0  0  0  0
  5  7  2  0  0  0  0
  6 19  2  0  0  0  0
  6 22  1  0  0  0  0
  7 16  1  0  0  0  0
  8 11  1  0  0  0  0
  8 20  2  0  0  0  0
  8 22  1  0  0  0  0
  9 10  2  0  0  0  0
  9 21  1  0  0  0  0
 10 22  1  0  0  0  0
 11 21  2  0  0  0  0
 11 23  1  0  0  0  0
 12 13  1  0  0  0  0
 12 14  1  0  0  0  0
 13 17  1  0  0  0  0
 14 18  1  0  0  0  0
 15 16  1  0  0  0  0
 15 23  1  0  0  0  0
 16 17  1  0  0  0  0
 17 18  1  0  0  0  0
 18 23  1  0  0  0  0
 19 20  1  0  0  0  0
  1 24  1  0  0  0  0
  2 25  1  0  0  0  0
  3 26  1  0  0  0  0
  4 27  1  0  0  0  0
  5 28  1  0  0  0  0
  6 29  1  0  0  0  0
  9 30  1  0  0  0  0
 10 31  1  0  0  0  0
 12 32  1  0  0  0  0
 12 33  1  0  0  0  0
 13 34  1  0  0  0  0
 13 35  1  0  0  0  0
 14 36  1  0  0  0  0
 14 37  1  0  0  0  0
 15 38  1  0  0  0  0
 15 39  1  0  0  0  0
 16 40  1  0  0  0  0
 17 41  1  0  0  0  0
 18 42  1  0  0  0  0
M  END
> <Hybrid2>
-10.869295

> <fragments>
x0678

> <site>
active-noncovalent

$$$$
top_hits_only_mpro-450_1
  -OEChem-03302021283D

 50 54  0     1  0  0  0  0  0999 V2000
   14.1990   -1.6089   22.4200 C   0  0  0  0  0  0  0  0  0  0  0  0
   13.9661   -1.7098   23.7915 C   0  0  0  0  0  0  0  0  0  0  0  0
   13.1457   -1.3170   21.5533 C   0  0  0  0  0  0  0  0  0  0  0  0
    5.2841    1.8980   21.3916 C   0  0  0  0  0  0  0  0  0  0  0  0
    5.3558    1.4382   20.0769 C   0  0  0  0  0  0  0  0  0  0  0  0
   12.6799   -1.5189   24.2964 C   0  0  0  0  0  0  0  0  0  0  0  0
   11.8595   -1.1261   22.0582 C   0  0  0  0  0  0  0  0  0  0  0  0
    6.4102    1.8492   22.2100 C   0  0  0  0  0  0  0  0  0  0  0  0
    8.8946    0.3573   19.8726 C   0  0  0  0  0  0  0  0  0  0  0  0
    8.9029   -0.0843   18.5583 C   0  0  0  0  0  0  0  0  0  0  0  0
    6.6889    0.4507   18.2632 C   0  0  0  0  0  0  0  0  0  0  0  0
    6.5610    0.9241   19.5706 C   0  0  0  0  0  0  0  0  0  0  0  0
    7.7033    0.8730   20.3959 C   0  0  0  0  0  0  0  0  0  0  0  0
   11.6266   -1.2271   23.4298 C   0  0  0  0  0  0  0  0  0  0  0  0
    7.6132    1.3404   21.7173 C   0  0  0  0  0  0  0  0  0  0  0  0
    9.4278   -3.4135   23.1764 C   0  0  0  0  0  0  0  0  0  0  0  0
    9.0652   -2.7618   25.5762 C   0  0  0  0  0  0  0  0  0  0  0  0
    8.0887   -1.2444   23.6831 C   0  0  0  0  0  0  0  0  0  0  0  0
    8.3304   -4.4554   23.3712 C   0  0  0  0  0  0  0  0  0  0  0  0
    7.9846   -3.8357   25.6264 C   0  0  0  0  0  0  0  0  0  0  0  0
   10.1653   -1.0093   24.0033 C   0  0  2  0  0  0  0  0  0  0  0  0
    9.1957   -2.2412   24.1419 C   0  0  0  0  0  0  0  0  0  0  0  0
    7.8301   -0.0508   17.7393 N   0  0  0  0  0  0  0  0  0  0  0  0
    9.1422   -0.3491   23.1007 N   0  0  2  0  0  0  0  0  0  0  0  0
   10.1434    1.8088   22.1066 O   0  0  0  0  0  0  0  0  0  0  0  0
    8.5608    1.9703   24.0603 O   0  0  0  0  0  0  0  0  0  0  0  0
    8.3004   -4.9024   24.7287 O   0  0  0  0  0  0  0  0  0  0  0  0
    8.9847    1.3199   22.8329 S   0  0  0  0  0  0  0  0  0  0  0  0
   15.2005   -1.7565   22.0265 H   0  0  0  0  0  0  0  0  0  0  0  0
   14.7867   -1.9364   24.4662 H   0  0  0  0  0  0  0  0  0  0  0  0
   13.3280   -1.2379   20.4854 H   0  0  0  0  0  0  0  0  0  0  0  0
    4.3492    2.2938   21.7771 H   0  0  0  0  0  0  0  0  0  0  0  0
    4.4675    1.4847   19.4512 H   0  0  0  0  0  0  0  0  0  0  0  0
   12.5060   -1.5987   25.3661 H   0  0  0  0  0  0  0  0  0  0  0  0
   11.0443   -0.8985   21.3766 H   0  0  0  0  0  0  0  0  0  0  0  0
    6.3371    2.2121   23.2321 H   0  0  0  0  0  0  0  0  0  0  0  0
    9.8104    0.2886   20.4502 H   0  0  0  0  0  0  0  0  0  0  0  0
    9.8072   -0.4907   18.1169 H   0  0  0  0  0  0  0  0  0  0  0  0
    5.8477    0.4609   17.5756 H   0  0  0  0  0  0  0  0  0  0  0  0
   10.3981   -3.8761   23.3950 H   0  0  0  0  0  0  0  0  0  0  0  0
    9.4453   -3.0801   22.1329 H   0  0  0  0  0  0  0  0  0  0  0  0
    8.8205   -1.9545   26.2755 H   0  0  0  0  0  0  0  0  0  0  0  0
   10.0232   -3.1934   25.8919 H   0  0  0  0  0  0  0  0  0  0  0  0
    7.3824   -1.6018   22.9295 H   0  0  0  0  0  0  0  0  0  0  0  0
    7.5381   -0.7500   24.4912 H   0  0  0  0  0  0  0  0  0  0  0  0
    7.3436   -4.0671   23.0948 H   0  0  0  0  0  0  0  0  0  0  0  0
    8.5309   -5.3267   22.7396 H   0  0  0  0  0  0  0  0  0  0  0  0
    7.9264   -4.2568   26.6350 H   0  0  0  0  0  0  0  0  0  0  0  0
    6.9967   -3.4305   25.3777 H   0  0  0  0  0  0  0  0  0  0  0  0
   10.2344   -0.4350   24.9457 H   0  0  0  0  0  0  0  0  0  0  0  0
  1  2  1  0  0  0  0
  1  3  2  0  0  0  0
  2  6  2  0  0  0  0
  3  7  1  0  0  0  0
  4  5  1  0  0  0  0
  4  8  2  0  0  0  0
  5 12  2  0  0  0  0
  6 14  1  0  0  0  0
  7 14  2  0  0  0  0
  8 15  1  0  0  0  0
  9 10  2  0  0  0  0
  9 13  1  0  0  0  0
 10 23  1  0  0  0  0
 11 12  1  0  0  0  0
 11 23  2  0  0  0  0
 12 13  1  0  0  0  0
 13 15  2  0  0  0  0
 14 21  1  0  0  0  0
 15 28  1  0  0  0  0
 16 19  1  0  0  0  0
 16 22  1  0  0  0  0
 17 20  1  0  0  0  0
 17 22  1  0  0  0  0
 18 22  1  0  0  0  0
 18 24  1  0  0  0  0
 19 27  1  0  0  0  0
 20 27  1  0  0  0  0
 21 22  1  0  0  0  0
 21 24  1  0  0  0  0
 24 28  1  0  0  0  0
 25 28  2  0  0  0  0
 26 28  2  0  0  0  0
  1 29  1  0  0  0  0
  2 30  1  0  0  0  0
  3 31  1  0  0  0  0
  4 32  1  0  0  0  0
  5 33  1  0  0  0  0
  6 34  1  0  0  0  0
  7 35  1  0  0  0  0
  8 36  1  0  0  0  0
  9 37  1  0  0  0  0
 10 38  1  0  0  0  0
 11 39  1  0  0  0  0
 16 40  1  0  0  0  0
 16 41  1  0  0  0  0
 17 42  1  0  0  0  0
 17 43  1  0  0  0  0
 18 44  1  0  0  0  0
 18 45  1  0  0  0  0
 19 46  1  0  0  0  0
 19 47  1  0  0  0  0
 20 48  1  0  0  0  0
 20 49  1  0  0  0  0
 21 50  1  0  0  0  0
M  END
> <Hybrid2>
-10.851897

> <fragments>
x0678

> <site>
active-noncovalent

$$$$
top_hits_only_mpro-479_1
  -OEChem-03302021283D

 37 39  0     1  0  0  0  0  0999 V2000
   12.8565    0.2373   24.1305 C   0  0  0  0  0  0  0  0  0  0  0  0
   13.0837    1.1845   23.1383 C   0  0  0  0  0  0  0  0  0  0  0  0
    5.8766    0.7546   19.1776 C   0  0  0  0  0  0  0  0  0  0  0  0
   11.7009   -0.5365   24.0891 C   0  0  0  0  0  0  0  0  0  0  0  0
    6.7595    0.5723   20.2361 C   0  0  0  0  0  0  0  0  0  0  0  0
   12.1556    1.3558   22.1070 C   0  0  0  0  0  0  0  0  0  0  0  0
    6.3515    0.5435   17.8932 C   0  0  0  0  0  0  0  0  0  0  0  0
    8.4485    0.0040   18.6612 C   0  0  0  0  0  0  0  0  0  0  0  0
   10.7725   -0.3582   23.0487 C   0  0  0  0  0  0  0  0  0  0  0  0
    8.0719    0.1900   19.9815 C   0  0  0  0  0  0  0  0  0  0  0  0
   10.9909    0.5951   22.0408 C   0  0  0  0  0  0  0  0  0  0  0  0
    9.5981   -1.0990   22.9487 C   0  0  0  0  0  0  0  0  0  0  0  0
    9.0097   -0.0062   21.0561 C   0  0  0  0  0  0  0  0  0  0  0  0
    9.7613   -3.4422   23.7506 C   0  0  0  0  0  0  0  0  0  0  0  0
    8.5741   -1.7222   25.1220 C   0  0  0  0  0  0  0  0  0  0  0  0
    7.5997   -0.6034   24.8022 C   0  0  0  0  0  0  0  0  0  0  0  0
    7.6193    0.1716   17.6067 N   0  0  0  0  0  0  0  0  0  0  0  0
   10.1097    0.7738   21.0411 N   0  0  0  0  0  0  0  0  0  0  0  0
    8.6949   -0.9458   21.9621 N   0  0  0  0  0  0  0  0  0  0  0  0
    9.3097   -2.0804   23.9298 N   0  0  3  0  0  0  0  0  0  0  0  0
    8.3216    0.5412   24.3654 O   0  0  0  0  0  0  0  0  0  0  0  0
   13.5759    0.1044   24.9327 H   0  0  0  0  0  0  0  0  0  0  0  0
   13.9832    1.7931   23.1634 H   0  0  0  0  0  0  0  0  0  0  0  0
    4.8488    1.0516   19.3516 H   0  0  0  0  0  0  0  0  0  0  0  0
   11.5456   -1.2699   24.8760 H   0  0  0  0  0  0  0  0  0  0  0  0
    6.4112    0.7318   21.2536 H   0  0  0  0  0  0  0  0  0  0  0  0
   12.3567    2.1046   21.3431 H   0  0  0  0  0  0  0  0  0  0  0  0
    5.7025    0.6729   17.0330 H   0  0  0  0  0  0  0  0  0  0  0  0
    9.4583   -0.2956   18.3953 H   0  0  0  0  0  0  0  0  0  0  0  0
    9.4434   -4.0505   24.6102 H   0  0  0  0  0  0  0  0  0  0  0  0
    9.3256   -3.8545   22.8286 H   0  0  0  0  0  0  0  0  0  0  0  0
   10.8587   -3.4576   23.6764 H   0  0  0  0  0  0  0  0  0  0  0  0
    9.2924   -1.4156   25.8890 H   0  0  0  0  0  0  0  0  0  0  0  0
    8.0353   -2.6087   25.4697 H   0  0  0  0  0  0  0  0  0  0  0  0
    7.0389   -0.3266   25.7004 H   0  0  0  0  0  0  0  0  0  0  0  0
    6.8947   -0.8957   24.0171 H   0  0  0  0  0  0  0  0  0  0  0  0
    7.6646    1.2292   24.1724 H   0  0  0  0  0  0  0  0  0  0  0  0
  1  2  1  0  0  0  0
  1  4  2  0  0  0  0
  2  6  2  0  0  0  0
  3  5  2  0  0  0  0
  3  7  1  0  0  0  0
  4  9  1  0  0  0  0
  5 10  1  0  0  0  0
  6 11  1  0  0  0  0
  7 17  2  0  0  0  0
  8 10  2  0  0  0  0
  8 17  1  0  0  0  0
  9 11  1  0  0  0  0
  9 12  2  0  0  0  0
 10 13  1  0  0  0  0
 11 18  2  0  0  0  0
 12 19  1  0  0  0  0
 12 20  1  0  0  0  0
 13 18  1  0  0  0  0
 13 19  2  0  0  0  0
 14 20  1  0  0  0  0
 15 16  1  0  0  0  0
 15 20  1  0  0  0  0
 16 21  1  0  0  0  0
  1 22  1  0  0  0  0
  2 23  1  0  0  0  0
  3 24  1  0  0  0  0
  4 25  1  0  0  0  0
  5 26  1  0  0  0  0
  6 27  1  0  0  0  0
  7 28  1  0  0  0  0
  8 29  1  0  0  0  0
 14 30  1  0  0  0  0
 14 31  1  0  0  0  0
 14 32  1  0  0  0  0
 15 33  1  0  0  0  0
 15 34  1  0  0  0  0
 16 35  1  0  0  0  0
 16 36  1  0  0  0  0
 21 37  1  0  0  0  0
M  END
> <Hybrid2>
-10.837656

> <fragments>
x0678

> <site>
active-noncovalent

$$$$
top_hits_only_mpro-249_1
  -OEChem-03302021283D

 44 46  0     1  0  0  0  0  0999 V2000
    6.3339    0.4103   20.5050 C   0  0  0  0  0  0  0  0  0  0  0  0
    5.7698    0.7363   19.2842 C   0  0  0  0  0  0  0  0  0  0  0  0
   13.7636   -0.1395   23.6119 C   0  0  0  0  0  0  0  0  0  0  0  0
   14.5517   -1.0638   22.9411 C   0  0  0  0  0  0  0  0  0  0  0  0
   12.9314   -1.3019   21.2584 C   0  0  0  0  0  0  0  0  0  0  0  0
   12.1012   -0.3838   21.8855 C   0  0  0  0  0  0  0  0  0  0  0  0
   12.5259    0.2012   23.0747 C   0  0  0  0  0  0  0  0  0  0  0  0
    7.6448   -0.0220   20.5162 C   0  0  0  0  0  0  0  0  0  0  0  0
    6.5542    0.6089   18.1554 C   0  0  0  0  0  0  0  0  0  0  0  0
   10.8043   -0.0591   21.2764 C   0  0  0  0  0  0  0  0  0  0  0  0
    8.4597   -2.7845   22.1085 C   0  0  0  0  0  0  0  0  0  0  0  0
    7.6325   -1.5748   22.5288 C   0  0  0  0  0  0  0  0  0  0  0  0
    9.8703   -2.2278   22.0145 C   0  0  0  0  0  0  0  0  0  0  0  0
    8.3124   -0.3905   21.8289 C   0  0  1  0  0  0  0  0  0  0  0  0
   11.2704    0.8840   25.1038 C   0  0  0  0  0  0  0  0  0  0  0  0
   11.3362    2.3793   23.1018 C   0  0  0  0  0  0  0  0  0  0  0  0
    8.3889   -0.1372   19.3958 N   0  0  0  0  0  0  0  0  0  0  0  0
    7.8346    0.1836   18.1960 N   0  0  0  0  0  0  0  0  0  0  0  0
   14.1184   -1.6119   21.7976 N   0  3  0  0  0  0  0  0  0  0  0  0
    9.7066   -0.8279   21.6450 N   0  0  0  0  0  0  0  0  0  0  0  0
    5.9758    0.9391   16.9076 N   0  0  0  0  0  0  0  0  0  0  0  0
   11.7169    1.1412   23.7502 N   0  0  0  0  0  0  0  0  0  0  0  0
   10.7774    0.8851   20.4895 O   0  0  0  0  0  0  0  0  0  0  0  0
    5.7548    0.4929   21.4184 H   0  0  0  0  0  0  0  0  0  0  0  0
    4.7415    1.0791   19.2315 H   0  0  0  0  0  0  0  0  0  0  0  0
   14.1170    0.3031   24.5381 H   0  0  0  0  0  0  0  0  0  0  0  0
   15.5248   -1.3874   23.2837 H   0  0  0  0  0  0  0  0  0  0  0  0
   12.6926   -1.8096   20.3335 H   0  0  0  0  0  0  0  0  0  0  0  0
    8.3816   -3.6099   22.8217 H   0  0  0  0  0  0  0  0  0  0  0  0
    8.1297   -3.1438   21.1267 H   0  0  0  0  0  0  0  0  0  0  0  0
    6.5733   -1.6957   22.2797 H   0  0  0  0  0  0  0  0  0  0  0  0
    7.7142   -1.4495   23.6159 H   0  0  0  0  0  0  0  0  0  0  0  0
   10.3775   -2.2577   22.9854 H   0  0  0  0  0  0  0  0  0  0  0  0
   10.4915   -2.7497   21.2805 H   0  0  0  0  0  0  0  0  0  0  0  0
    8.2978    0.5162   22.4794 H   0  0  0  0  0  0  0  0  0  0  0  0
   10.6560    1.7265   25.4542 H   0  0  0  0  0  0  0  0  0  0  0  0
   10.6721   -0.0389   25.1233 H   0  0  0  0  0  0  0  0  0  0  0  0
   12.1439    0.7686   25.7623 H   0  0  0  0  0  0  0  0  0  0  0  0
   10.7110    2.9739   23.7841 H   0  0  0  0  0  0  0  0  0  0  0  0
   12.2400    2.9499   22.8419 H   0  0  0  0  0  0  0  0  0  0  0  0
   10.7688    2.1545   22.1867 H   0  0  0  0  0  0  0  0  0  0  0  0
   14.7132   -2.2889   21.3208 H   0  0  0  0  0  0  0  0  0  0  0  0
    5.0146    1.2057   16.8752 H   0  0  0  0  0  0  0  0  0  0  0  0
    6.5122    0.8083   16.0762 H   0  0  0  0  0  0  0  0  0  0  0  0
  1  2  2  0  0  0  0
  1  8  1  0  0  0  0
  2  9  1  0  0  0  0
  3  4  2  0  0  0  0
  3  7  1  0  0  0  0
  4 19  1  0  0  0  0
  5  6  1  0  0  0  0
  5 19  2  0  0  0  0
  6  7  2  0  0  0  0
  6 10  1  0  0  0  0
  7 22  1  0  0  0  0
  8 14  1  0  0  0  0
  8 17  2  0  0  0  0
  9 18  2  0  0  0  0
  9 21  1  0  0  0  0
 10 20  1  0  0  0  0
 10 23  2  0  0  0  0
 11 12  1  0  0  0  0
 11 13  1  0  0  0  0
 12 14  1  0  0  0  0
 13 20  1  0  0  0  0
 14 20  1  0  0  0  0
 15 22  1  0  0  0  0
 16 22  1  0  0  0  0
 17 18  1  0  0  0  0
  1 24  1  0  0  0  0
  2 25  1  0  0  0  0
  3 26  1  0  0  0  0
  4 27  1  0  0  0  0
  5 28  1  0  0  0  0
 11 29  1  0  0  0  0
 11 30  1  0  0  0  0
 12 31  1  0  0  0  0
 12 32  1  0  0  0  0
 13 33  1  0  0  0  0
 13 34  1  0  0  0  0
 14 35  1  0  0  0  0
 15 36  1  0  0  0  0
 15 37  1  0  0  0  0
 15 38  1  0  0  0  0
 16 39  1  0  0  0  0
 16 40  1  0  0  0  0
 16 41  1  0  0  0  0
 19 42  1  0  0  0  0
 21 43  1  0  0  0  0
 21 44  1  0  0  0  0
M  CHG  1  19   1
M  END
> <Hybrid2>
-10.823626

> <fragments>
x0678

> <site>
active-noncovalent

$$$$
top_hits_only_mpro-160_2
  -OEChem-03302021283D

 33 35  0     1  0  0  0  0  0999 V2000
   14.1914    0.1601   23.4375 C   0  0  0  0  0  0  0  0  0  0  0  0
   12.9461    0.5795   23.9317 C   0  0  0  0  0  0  0  0  0  0  0  0
   14.2947   -0.9868   22.6478 C   0  0  0  0  0  0  0  0  0  0  0  0
   11.7855   -0.1413   23.6422 C   0  0  0  0  0  0  0  0  0  0  0  0
    7.0629    0.2955   20.1091 C   0  0  0  0  0  0  0  0  0  0  0  0
   13.1410   -1.7025   22.3757 C   0  0  0  0  0  0  0  0  0  0  0  0
   11.8972   -1.2823   22.8642 C   0  0  0  0  0  0  0  0  0  0  0  0
    8.2208   -0.4297   20.2497 C   0  0  0  0  0  0  0  0  0  0  0  0
    6.9250    0.4724   18.7194 C   0  0  0  0  0  0  0  0  0  0  0  0
    8.8829   -0.9207   21.4857 C   0  0  0  0  0  0  0  0  0  0  0  0
   12.9970   -2.9300   21.5323 C   0  0  0  0  0  0  0  0  0  0  0  0
   11.6132   -3.4360   21.9749 C   0  0  0  0  0  0  0  0  0  0  0  0
   10.8034   -2.1973   22.4021 C   0  0  2  0  0  0  0  0  0  0  0  0
    5.8493    1.1838   18.0084 C   0  0  0  0  0  0  0  0  0  0  0  0
    7.9163   -0.0945   18.0265 N   0  0  0  0  0  0  0  0  0  0  0  0
    8.6881   -0.6348   18.9849 N   0  0  0  0  0  0  0  0  0  0  0  0
   10.0600   -1.6365   21.3052 N   0  0  0  0  0  0  0  0  0  0  0  0
    8.3627   -0.6949   22.5752 O   0  0  0  0  0  0  0  0  0  0  0  0
   15.0825    0.7375   23.6693 H   0  0  0  0  0  0  0  0  0  0  0  0
   12.8853    1.4767   24.5419 H   0  0  0  0  0  0  0  0  0  0  0  0
   15.2568   -1.3038   22.2597 H   0  0  0  0  0  0  0  0  0  0  0  0
   10.8234    0.1896   24.0182 H   0  0  0  0  0  0  0  0  0  0  0  0
    6.4125    0.6453   20.8981 H   0  0  0  0  0  0  0  0  0  0  0  0
   13.0000   -2.6615   20.4709 H   0  0  0  0  0  0  0  0  0  0  0  0
   13.7752   -3.6712   21.7343 H   0  0  0  0  0  0  0  0  0  0  0  0
   11.1192   -4.0351   21.2026 H   0  0  0  0  0  0  0  0  0  0  0  0
   11.7401   -4.0924   22.8480 H   0  0  0  0  0  0  0  0  0  0  0  0
   10.1023   -2.4464   23.2048 H   0  0  0  0  0  0  0  0  0  0  0  0
    6.0962    2.2508   17.8726 H   0  0  0  0  0  0  0  0  0  0  0  0
    5.6574    0.7573   17.0077 H   0  0  0  0  0  0  0  0  0  0  0  0
    4.8868    1.1315   18.5483 H   0  0  0  0  0  0  0  0  0  0  0  0
    9.5233   -1.1324   18.7020 H   0  0  0  0  0  0  0  0  0  0  0  0
   10.3928   -1.8348   20.3639 H   0  0  0  0  0  0  0  0  0  0  0  0
  1  2  2  0  0  0  0
  1  3  1  0  0  0  0
  2  4  1  0  0  0  0
  3  6  2  0  0  0  0
  4  7  2  0  0  0  0
  5  8  2  0  0  0  0
  5  9  1  0  0  0  0
  6  7  1  0  0  0  0
  6 11  1  0  0  0  0
  7 13  1  0  0  0  0
  8 10  1  0  0  0  0
  8 16  1  0  0  0  0
  9 14  1  0  0  0  0
  9 15  2  0  0  0  0
 10 17  1  0  0  0  0
 10 18  2  0  0  0  0
 11 12  1  0  0  0  0
 12 13  1  0  0  0  0
 13 17  1  0  0  0  0
 15 16  1  0  0  0  0
  1 19  1  0  0  0  0
  2 20  1  0  0  0  0
  3 21  1  0  0  0  0
  4 22  1  0  0  0  0
  5 23  1  0  0  0  0
 11 24  1  0  0  0  0
 11 25  1  0  0  0  0
 12 26  1  0  0  0  0
 12 27  1  0  0  0  0
 13 28  1  0  0  0  0
 14 29  1  0  0  0  0
 14 30  1  0  0  0  0
 14 31  1  0  0  0  0
 16 32  1  0  0  0  0
 17 33  1  0  0  0  0
M  END
> <Hybrid2>
-10.817402

> <fragments>
x0678

> <site>
active-noncovalent

$$$$
top_hits_only_mpro-454_1
  -OEChem-03302021283D

 34 37  0     0  0  0  0  0  0999 V2000
   13.6242   -0.1940   22.4677 C   0  0  0  0  0  0  0  0  0  0  0  0
    6.0660    0.0040   18.7192 C   0  0  0  0  0  0  0  0  0  0  0  0
    7.1718    0.8108   18.9841 C   0  0  0  0  0  0  0  0  0  0  0  0
   13.8226    0.7751   23.4492 C   0  0  0  0  0  0  0  0  0  0  0  0
   12.5223   -1.0551   22.5237 C   0  0  0  0  0  0  0  0  0  0  0  0
    5.9026   -1.2027   19.3977 C   0  0  0  0  0  0  0  0  0  0  0  0
    8.1196    0.4137   19.9295 C   0  0  0  0  0  0  0  0  0  0  0  0
   12.9291    0.9150   24.5150 C   0  0  0  0  0  0  0  0  0  0  0  0
    9.9455   -1.0479   25.1161 C   0  0  0  0  0  0  0  0  0  0  0  0
   11.6080   -0.9330   23.5889 C   0  0  0  0  0  0  0  0  0  0  0  0
    6.8544   -1.5953   20.3434 C   0  0  0  0  0  0  0  0  0  0  0  0
   10.4141   -1.6159   23.9540 C   0  0  0  0  0  0  0  0  0  0  0  0
    7.9720   -0.7938   20.6203 C   0  0  0  0  0  0  0  0  0  0  0  0
   11.8320    0.0473   24.5580 C   0  0  0  0  0  0  0  0  0  0  0  0
    6.7013   -2.8715   21.0752 C   0  0  0  0  0  0  0  0  0  0  0  0
    8.7823   -2.2856   22.1888 C   0  0  0  0  0  0  0  0  0  0  0  0
    9.7721   -2.7549   23.2128 C   0  0  0  0  0  0  0  0  0  0  0  0
    8.9472   -1.1616   21.5663 N   0  0  0  0  0  0  0  0  0  0  0  0
   10.8072   -0.0454   25.4725 N   0  0  0  0  0  0  0  0  0  0  0  0
    7.7157   -3.1354   21.9812 N   0  0  0  0  0  0  0  0  0  0  0  0
    5.7463   -3.6131   20.8759 O   0  0  0  0  0  0  0  0  0  0  0  0
   14.3325   -0.2831   21.6484 H   0  0  0  0  0  0  0  0  0  0  0  0
    5.3310    0.3166   17.9831 H   0  0  0  0  0  0  0  0  0  0  0  0
    7.2962    1.7504   18.4533 H   0  0  0  0  0  0  0  0  0  0  0  0
   14.6853    1.4333   23.3861 H   0  0  0  0  0  0  0  0  0  0  0  0
   12.3811   -1.8049   21.7504 H   0  0  0  0  0  0  0  0  0  0  0  0
    5.0352   -1.8187   19.1789 H   0  0  0  0  0  0  0  0  0  0  0  0
    8.9761    1.0549   20.1237 H   0  0  0  0  0  0  0  0  0  0  0  0
   13.0849    1.6690   25.2790 H   0  0  0  0  0  0  0  0  0  0  0  0
    9.0759   -1.2651   25.7210 H   0  0  0  0  0  0  0  0  0  0  0  0
   10.5411   -3.3542   22.7162 H   0  0  0  0  0  0  0  0  0  0  0  0
    9.2653   -3.4269   23.9113 H   0  0  0  0  0  0  0  0  0  0  0  0
   10.7063    0.5419   26.2888 H   0  0  0  0  0  0  0  0  0  0  0  0
    7.6719   -3.9966   22.5188 H   0  0  0  0  0  0  0  0  0  0  0  0
  1  4  2  0  0  0  0
  1  5  1  0  0  0  0
  2  3  2  0  0  0  0
  2  6  1  0  0  0  0
  3  7  1  0  0  0  0
  4  8  1  0  0  0  0
  5 10  2  0  0  0  0
  6 11  2  0  0  0  0
  7 13  2  0  0  0  0
  8 14  2  0  0  0  0
  9 12  2  0  0  0  0
  9 19  1  0  0  0  0
 10 12  1  0  0  0  0
 10 14  1  0  0  0  0
 11 13  1  0  0  0  0
 11 15  1  0  0  0  0
 12 17  1  0  0  0  0
 13 18  1  0  0  0  0
 14 19  1  0  0  0  0
 15 20  1  0  0  0  0
 15 21  2  0  0  0  0
 16 17  1  0  0  0  0
 16 18  2  0  0  0  0
 16 20  1  0  0  0  0
  1 22  1  0  0  0  0
  2 23  1  0  0  0  0
  3 24  1  0  0  0  0
  4 25  1  0  0  0  0
  5 26  1  0  0  0  0
  6 27  1  0  0  0  0
  7 28  1  0  0  0  0
  8 29  1  0  0  0  0
  9 30  1  0  0  0  0
 17 31  1  0  0  0  0
 17 32  1  0  0  0  0
 19 33  1  0  0  0  0
 20 34  1  0  0  0  0
M  END
> <Hybrid2>
-10.809892

> <fragments>
x0831

> <site>
active-covalent

$$$$
top_hits_only_mpro-241_1
  -OEChem-03302021283D

 33 34  0     0  0  0  0  0  0999 V2000
    4.9245    1.1035   19.1469 C   0  0  0  0  0  0  0  0  0  0  0  0
    8.8957   -3.6707   24.3429 C   0  0  0  0  0  0  0  0  0  0  0  0
    8.1743   -2.1733   26.0963 C   0  0  0  0  0  0  0  0  0  0  0  0
    5.5533    0.5622   20.2626 C   0  0  0  0  0  0  0  0  0  0  0  0
    9.2539   -2.5764   23.5557 C   0  0  0  0  0  0  0  0  0  0  0  0
    8.5326   -1.0789   25.3090 C   0  0  0  0  0  0  0  0  0  0  0  0
    5.5824    1.0255   17.9300 C   0  0  0  0  0  0  0  0  0  0  0  0
    7.3770   -0.0595   18.8683 C   0  0  0  0  0  0  0  0  0  0  0  0
    8.3559   -3.4692   25.6132 C   0  0  0  0  0  0  0  0  0  0  0  0
    6.8032   -0.0321   20.1292 C   0  0  0  0  0  0  0  0  0  0  0  0
    9.0724   -1.2805   24.0387 C   0  0  0  0  0  0  0  0  0  0  0  0
    7.9790   -4.6100   26.4326 C   0  0  0  0  0  0  0  0  0  0  0  0
    7.5078   -0.6260   21.3146 C   0  0  0  0  0  0  0  0  0  0  0  0
    6.7968    0.4559   17.7614 N   0  0  0  0  0  0  0  0  0  0  0  0
    8.1775   -5.8817   25.9026 N   0  0  0  0  0  0  0  0  0  0  0  0
    8.0812    0.4076   22.1884 N   0  0  0  0  0  0  0  0  0  0  0  0
    7.4804   -4.4606   27.5619 O   0  0  0  0  0  0  0  0  0  0  0  0
    9.8012    1.2226   23.9244 O   0  0  0  0  0  0  0  0  0  0  0  0
   10.5397   -0.3557   22.1112 O   0  0  0  0  0  0  0  0  0  0  0  0
    9.5208    0.0890   23.0527 S   0  0  0  0  0  0  0  0  0  0  0  0
    3.9499    1.5714   19.2272 H   0  0  0  0  0  0  0  0  0  0  0  0
    9.0398   -4.6762   23.9558 H   0  0  0  0  0  0  0  0  0  0  0  0
    7.7537   -2.0044   27.0843 H   0  0  0  0  0  0  0  0  0  0  0  0
    5.0624    0.6078   21.2310 H   0  0  0  0  0  0  0  0  0  0  0  0
    9.6743   -2.7443   22.5679 H   0  0  0  0  0  0  0  0  0  0  0  0
    8.3870   -0.0734   25.6943 H   0  0  0  0  0  0  0  0  0  0  0  0
    5.1341    1.4332   17.0299 H   0  0  0  0  0  0  0  0  0  0  0  0
    8.3508   -0.5100   18.7029 H   0  0  0  0  0  0  0  0  0  0  0  0
    6.8156   -1.2279   21.9135 H   0  0  0  0  0  0  0  0  0  0  0  0
    8.3221   -1.2860   20.9977 H   0  0  0  0  0  0  0  0  0  0  0  0
    8.5735   -5.9755   24.9736 H   0  0  0  0  0  0  0  0  0  0  0  0
    7.9347   -6.7171   26.4252 H   0  0  0  0  0  0  0  0  0  0  0  0
    7.8560    1.3797   21.9442 H   0  0  0  0  0  0  0  0  0  0  0  0
  1  4  2  0  0  0  0
  1  7  1  0  0  0  0
  2  5  2  0  0  0  0
  2  9  1  0  0  0  0
  3  6  1  0  0  0  0
  3  9  2  0  0  0  0
  4 10  1  0  0  0  0
  5 11  1  0  0  0  0
  6 11  2  0  0  0  0
  7 14  2  0  0  0  0
  8 10  2  0  0  0  0
  8 14  1  0  0  0  0
  9 12  1  0  0  0  0
 10 13  1  0  0  0  0
 11 20  1  0  0  0  0
 12 15  1  0  0  0  0
 12 17  2  0  0  0  0
 13 16  1  0  0  0  0
 16 20  1  0  0  0  0
 18 20  2  0  0  0  0
 19 20  2  0  0  0  0
  1 21  1  0  0  0  0
  2 22  1  0  0  0  0
  3 23  1  0  0  0  0
  4 24  1  0  0  0  0
  5 25  1  0  0  0  0
  6 26  1  0  0  0  0
  7 27  1  0  0  0  0
  8 28  1  0  0  0  0
 13 29  1  0  0  0  0
 13 30  1  0  0  0  0
 15 31  1  0  0  0  0
 15 32  1  0  0  0  0
 16 33  1  0  0  0  0
M  END
> <Hybrid2>
-10.807232

> <fragments>
x0107

> <site>
active-noncovalent

$$$$
top_hits_only_mpro-228_1
  -OEChem-03302021283D

 33 35  0     0  0  0  0  0  0999 V2000
   10.3377    0.3475   23.8071 C   0  0  0  0  0  0  0  0  0  0  0  0
    6.0137    1.1517   18.8547 C   0  0  0  0  0  0  0  0  0  0  0  0
    6.7743    0.8679   19.9835 C   0  0  0  0  0  0  0  0  0  0  0  0
    6.5145    0.7665   17.6216 C   0  0  0  0  0  0  0  0  0  0  0  0
    8.4072   -0.1268   18.5692 C   0  0  0  0  0  0  0  0  0  0  0  0
   11.3545   -0.2889   23.0267 C   0  0  0  0  0  0  0  0  0  0  0  0
    7.9952    0.2168   19.8467 C   0  0  0  0  0  0  0  0  0  0  0  0
   12.5932   -0.7806   23.5374 C   0  0  0  0  0  0  0  0  0  0  0  0
   13.3577   -1.3525   22.5383 C   0  0  0  0  0  0  0  0  0  0  0  0
   11.2311   -0.4996   21.6702 C   0  0  0  0  0  0  0  0  0  0  0  0
    8.8226   -0.0966   21.0243 C   0  0  0  0  0  0  0  0  0  0  0  0
   13.0492   -0.7368   24.9630 C   0  0  0  0  0  0  0  0  0  0  0  0
   14.7210   -1.9402   22.7286 C   0  0  0  0  0  0  0  0  0  0  0  0
   14.5584   -0.9989   25.0867 C   0  0  0  0  0  0  0  0  0  0  0  0
   14.9991   -2.1875   24.2198 C   0  0  0  0  0  0  0  0  0  0  0  0
    9.5131    0.8635   24.4399 N   0  0  0  0  0  0  0  0  0  0  0  0
    7.6959    0.1323   17.4491 N   0  0  0  0  0  0  0  0  0  0  0  0
   10.2261   -0.1931   20.7921 N   0  0  0  0  0  0  0  0  0  0  0  0
    8.3096   -0.2920   22.1241 O   0  0  0  0  0  0  0  0  0  0  0  0
   12.6022   -1.2885   21.0141 S   0  0  0  0  0  0  0  0  0  0  0  0
    5.0588    1.6579   18.9372 H   0  0  0  0  0  0  0  0  0  0  0  0
    6.4071    1.1590   20.9640 H   0  0  0  0  0  0  0  0  0  0  0  0
    5.9597    0.9652   16.7106 H   0  0  0  0  0  0  0  0  0  0  0  0
    9.3504   -0.6372   18.3991 H   0  0  0  0  0  0  0  0  0  0  0  0
   12.8163    0.2344   25.4139 H   0  0  0  0  0  0  0  0  0  0  0  0
   12.5022   -1.5017   25.5282 H   0  0  0  0  0  0  0  0  0  0  0  0
   14.8254   -2.8820   22.1782 H   0  0  0  0  0  0  0  0  0  0  0  0
   15.4666   -1.2399   22.3329 H   0  0  0  0  0  0  0  0  0  0  0  0
   15.1136   -0.1043   24.7769 H   0  0  0  0  0  0  0  0  0  0  0  0
   14.8123   -1.1858   26.1361 H   0  0  0  0  0  0  0  0  0  0  0  0
   14.4630   -3.0873   24.5485 H   0  0  0  0  0  0  0  0  0  0  0  0
   16.0679   -2.3811   24.3649 H   0  0  0  0  0  0  0  0  0  0  0  0
   10.5295   -0.0040   19.8177 H   0  0  0  0  0  0  0  0  0  0  0  0
  1  6  1  0  0  0  0
  1 16  3  0  0  0  0
  2  3  2  0  0  0  0
  2  4  1  0  0  0  0
  3  7  1  0  0  0  0
  4 17  2  0  0  0  0
  5  7  2  0  0  0  0
  5 17  1  0  0  0  0
  6  8  1  0  0  0  0
  6 10  2  0  0  0  0
  7 11  1  0  0  0  0
  8  9  2  0  0  0  0
  8 12  1  0  0  0  0
  9 13  1  0  0  0  0
  9 20  1  0  0  0  0
 10 18  1  0  0  0  0
 10 20  1  0  0  0  0
 11 18  1  0  0  0  0
 11 19  2  0  0  0  0
 12 14  1  0  0  0  0
 13 15  1  0  0  0  0
 14 15  1  0  0  0  0
  2 21  1  0  0  0  0
  3 22  1  0  0  0  0
  4 23  1  0  0  0  0
  5 24  1  0  0  0  0
 12 25  1  0  0  0  0
 12 26  1  0  0  0  0
 13 27  1  0  0  0  0
 13 28  1  0  0  0  0
 14 29  1  0  0  0  0
 14 30  1  0  0  0  0
 15 31  1  0  0  0  0
 15 32  1  0  0  0  0
 18 33  1  0  0  0  0
M  END
> <Hybrid2>
-10.767303

> <fragments>
x0678

> <site>
active-noncovalent

$$$$
top_hits_only_mpro-115_1
  -OEChem-03302021283D

 50 53  0     1  0  0  0  0  0999 V2000
    8.1849   -5.5937   26.6243 C   0  0  0  0  0  0  0  0  0  0  0  0
    6.9764   -4.9891   26.9817 C   0  0  0  0  0  0  0  0  0  0  0  0
    7.3220   -3.2097   25.3656 C   0  0  0  0  0  0  0  0  0  0  0  0
    5.6179    0.7527   17.9823 C   0  0  0  0  0  0  0  0  0  0  0  0
    5.1376    1.2650   19.1674 C   0  0  0  0  0  0  0  0  0  0  0  0
    7.7152    0.6295   18.8855 C   0  0  0  0  0  0  0  0  0  0  0  0
   10.5330   -4.4358   24.1219 C   0  0  0  0  0  0  0  0  0  0  0  0
    8.5442   -3.8010   24.9887 C   0  0  0  0  0  0  0  0  0  0  0  0
    9.5547   -3.4716   24.0425 C   0  0  0  0  0  0  0  0  0  0  0  0
    8.9466   -4.9770   25.6254 C   0  0  0  0  0  0  0  0  0  0  0  0
    6.5496   -3.8155   26.3633 C   0  0  0  0  0  0  0  0  0  0  0  0
    7.2352    1.1425   20.0703 C   0  0  0  0  0  0  0  0  0  0  0  0
    8.3650   -2.3489   22.1659 C   0  0  0  0  0  0  0  0  0  0  0  0
    9.5679   -0.9849   23.9208 C   0  0  0  0  0  0  0  0  0  0  0  0
    8.3344   -1.1297   21.2532 C   0  0  0  0  0  0  0  0  0  0  0  0
    9.5283    0.2238   22.9945 C   0  0  0  0  0  0  0  0  0  0  0  0
    9.5623   -2.3025   23.1290 C   0  0  0  0  0  0  0  0  0  0  0  0
    7.7096    2.5010   22.1494 C   0  0  0  0  0  0  0  0  0  0  0  0
    4.6222   -3.9119   27.7533 C   0  0  0  0  0  0  0  0  0  0  0  0
    8.1623    1.3581   21.2442 C   0  0  1  0  0  0  0  0  0  0  0  0
    6.9153    0.4257   17.8201 N   0  0  0  0  0  0  0  0  0  0  0  0
    5.9377    1.4691   20.2327 N   0  0  0  0  0  0  0  0  0  0  0  0
   10.1572   -5.3396   25.0792 N   0  0  0  0  0  0  0  0  0  0  0  0
    8.3218    0.1258   22.0919 N   0  3  0  0  0  0  0  0  0  0  0  0
    5.3659   -3.2497   26.7326 O   0  0  0  0  0  0  0  0  0  0  0  0
    8.5164   -6.5072   27.1067 H   0  0  0  0  0  0  0  0  0  0  0  0
    6.3654   -5.4471   27.7562 H   0  0  0  0  0  0  0  0  0  0  0  0
    6.9806   -2.2949   24.8888 H   0  0  0  0  0  0  0  0  0  0  0  0
    4.9744    0.5891   17.1268 H   0  0  0  0  0  0  0  0  0  0  0  0
    4.0950    1.5273   19.2971 H   0  0  0  0  0  0  0  0  0  0  0  0
    8.7569    0.3643   18.7478 H   0  0  0  0  0  0  0  0  0  0  0  0
   11.4626   -4.5608   23.5842 H   0  0  0  0  0  0  0  0  0  0  0  0
    7.4249   -2.4087   22.7306 H   0  0  0  0  0  0  0  0  0  0  0  0
    8.4140   -3.2567   21.5516 H   0  0  0  0  0  0  0  0  0  0  0  0
   10.4661   -0.9284   24.5484 H   0  0  0  0  0  0  0  0  0  0  0  0
    8.7099   -0.9506   24.6060 H   0  0  0  0  0  0  0  0  0  0  0  0
    9.2131   -1.0860   20.6002 H   0  0  0  0  0  0  0  0  0  0  0  0
    7.4244   -1.1277   20.6439 H   0  0  0  0  0  0  0  0  0  0  0  0
    9.4325    1.1486   23.5728 H   0  0  0  0  0  0  0  0  0  0  0  0
   10.4181    0.2798   22.3576 H   0  0  0  0  0  0  0  0  0  0  0  0
   10.4860   -2.3556   22.5378 H   0  0  0  0  0  0  0  0  0  0  0  0
    6.7002    2.3387   22.5437 H   0  0  0  0  0  0  0  0  0  0  0  0
    8.3860    2.6124   23.0042 H   0  0  0  0  0  0  0  0  0  0  0  0
    7.7037    3.4508   21.6030 H   0  0  0  0  0  0  0  0  0  0  0  0
    3.7016   -3.3578   27.9521 H   0  0  0  0  0  0  0  0  0  0  0  0
    5.2257   -3.9750   28.6623 H   0  0  0  0  0  0  0  0  0  0  0  0
    4.3721   -4.9198   27.4137 H   0  0  0  0  0  0  0  0  0  0  0  0
    9.1739    1.5779   20.8832 H   0  0  0  0  0  0  0  0  0  0  0  0
   10.6908   -6.1548   25.3473 H   0  0  0  0  0  0  0  0  0  0  0  0
    7.4904    0.0807   22.6971 H   0  0  0  0  0  0  0  0  0  0  0  0
  1  2  2  0  0  0  0
  1 10  1  0  0  0  0
  2 11  1  0  0  0  0
  3  8  1  0  0  0  0
  3 11  2  0  0  0  0
  4  5  2  0  0  0  0
  4 21  1  0  0  0  0
  5 22  1  0  0  0  0
  6 12  1  0  0  0  0
  6 21  2  0  0  0  0
  7  9  2  0  0  0  0
  7 23  1  0  0  0  0
  8  9  1  0  0  0  0
  8 10  2  0  0  0  0
  9 17  1  0  0  0  0
 10 23  1  0  0  0  0
 11 25  1  0  0  0  0
 12 20  1  0  0  0  0
 12 22  2  0  0  0  0
 13 15  1  0  0  0  0
 13 17  1  0  0  0  0
 14 16  1  0  0  0  0
 14 17  1  0  0  0  0
 15 24  1  0  0  0  0
 16 24  1  0  0  0  0
 18 20  1  0  0  0  0
 19 25  1  0  0  0  0
 20 24  1  0  0  0  0
  1 26  1  0  0  0  0
  2 27  1  0  0  0  0
  3 28  1  0  0  0  0
  4 29  1  0  0  0  0
  5 30  1  0  0  0  0
  6 31  1  0  0  0  0
  7 32  1  0  0  0  0
 13 33  1  0  0  0  0
 13 34  1  0  0  0  0
 14 35  1  0  0  0  0
 14 36  1  0  0  0  0
 15 37  1  0  0  0  0
 15 38  1  0  0  0  0
 16 39  1  0  0  0  0
 16 40  1  0  0  0  0
 17 41  1  0  0  0  0
 18 42  1  0  0  0  0
 18 43  1  0  0  0  0
 18 44  1  0  0  0  0
 19 45  1  0  0  0  0
 19 46  1  0  0  0  0
 19 47  1  0  0  0  0
 20 48  1  0  0  0  0
 23 49  1  0  0  0  0
 24 50  1  0  0  0  0
M  CHG  1  24   1
M  END
> <Hybrid2>
-10.743541

> <fragments>
x0107

> <site>
active-noncovalent

$$$$
top_hits_only_mpro-457_1
  -OEChem-03302021283D

 31 33  0     0  0  0  0  0  0999 V2000
   13.5807   -0.5915   24.6403 C   0  0  0  0  0  0  0  0  0  0  0  0
   14.3723   -1.7066   24.4614 C   0  0  0  0  0  0  0  0  0  0  0  0
   12.6892   -1.3336   22.7790 C   0  0  0  0  0  0  0  0  0  0  0  0
    8.5304    0.0677   18.5869 C   0  0  0  0  0  0  0  0  0  0  0  0
    8.4569    0.2603   20.0506 C   0  0  0  0  0  0  0  0  0  0  0  0
    7.3158    0.8069   20.4837 C   0  0  0  0  0  0  0  0  0  0  0  0
    6.2349    1.1759   19.5333 C   0  0  0  0  0  0  0  0  0  0  0  0
   10.5919   -2.1543   21.6870 C   0  0  0  0  0  0  0  0  0  0  0  0
   11.9713   -0.4569   20.5679 C   0  0  0  0  0  0  0  0  0  0  0  0
    9.4404   -1.1580   21.8284 C   0  0  0  0  0  0  0  0  0  0  0  0
   10.8311    0.5596   20.6930 C   0  0  0  0  0  0  0  0  0  0  0  0
   12.6154   -0.3757   23.6763 N   0  0  0  0  0  0  0  0  0  0  0  0
    7.6239    0.3692   17.7185 N   0  0  0  0  0  0  0  0  0  0  0  0
    6.4877    0.9197   18.2045 N   0  0  0  0  0  0  0  0  0  0  0  0
   11.8643   -1.4273   21.6637 N   0  0  0  0  0  0  0  0  0  0  0  0
    9.5399   -0.1331   20.7820 N   0  0  0  0  0  0  0  0  0  0  0  0
    5.1827    1.6791   19.9230 O   0  0  0  0  0  0  0  0  0  0  0  0
   13.8962   -2.5269   23.0325 S   0  0  0  0  0  0  0  0  0  0  0  0
    7.0276    1.1167   22.1564 Cl  0  0  0  0  0  0  0  0  0  0  0  0
   13.6670    0.1034   25.4646 H   0  0  0  0  0  0  0  0  0  0  0  0
   15.1804   -2.0663   25.0822 H   0  0  0  0  0  0  0  0  0  0  0  0
    9.4653   -0.3824   18.2122 H   0  0  0  0  0  0  0  0  0  0  0  0
   10.5890   -2.8613   22.5188 H   0  0  0  0  0  0  0  0  0  0  0  0
   10.4598   -2.7200   20.7624 H   0  0  0  0  0  0  0  0  0  0  0  0
   11.9156   -0.9756   19.6120 H   0  0  0  0  0  0  0  0  0  0  0  0
   12.9229    0.0708   20.6181 H   0  0  0  0  0  0  0  0  0  0  0  0
    8.4815   -1.6694   21.7451 H   0  0  0  0  0  0  0  0  0  0  0  0
    9.4958   -0.6994   22.8156 H   0  0  0  0  0  0  0  0  0  0  0  0
   10.9720    1.1806   21.5797 H   0  0  0  0  0  0  0  0  0  0  0  0
   10.8523    1.2135   19.8189 H   0  0  0  0  0  0  0  0  0  0  0  0
    5.7942    1.1459   17.4987 H   0  0  0  0  0  0  0  0  0  0  0  0
  1  2  2  0  0  0  0
  1 12  1  0  0  0  0
  2 18  1  0  0  0  0
  3 12  2  0  0  0  0
  3 15  1  0  0  0  0
  3 18  1  0  0  0  0
  4  5  1  0  0  0  0
  4 13  2  0  0  0  0
  5  6  2  0  0  0  0
  5 16  1  0  0  0  0
  6  7  1  0  0  0  0
  6 19  1  0  0  0  0
  7 14  1  0  0  0  0
  7 17  2  0  0  0  0
  8 10  1  0  0  0  0
  8 15  1  0  0  0  0
  9 11  1  0  0  0  0
  9 15  1  0  0  0  0
 10 16  1  0  0  0  0
 11 16  1  0  0  0  0
 13 14  1  0  0  0  0
  1 20  1  0  0  0  0
  2 21  1  0  0  0  0
  4 22  1  0  0  0  0
  8 23  1  0  0  0  0
  8 24  1  0  0  0  0
  9 25  1  0  0  0  0
  9 26  1  0  0  0  0
 10 27  1  0  0  0  0
 10 28  1  0  0  0  0
 11 29  1  0  0  0  0
 11 30  1  0  0  0  0
 14 31  1  0  0  0  0
M  END
> <Hybrid2>
-10.741165

> <fragments>
x0678

> <site>
active-noncovalent

$$$$
top_hits_only_mpro-306_1
  -OEChem-03302021283D

 44 45  0     1  0  0  0  0  0999 V2000
    9.8466    4.9219   23.8447 C   0  0  0  0  0  0  0  0  0  0  0  0
   11.0830    4.2843   23.7434 C   0  0  0  0  0  0  0  0  0  0  0  0
    8.6881    4.1700   24.0408 C   0  0  0  0  0  0  0  0  0  0  0  0
   11.1611    2.8948   23.8381 C   0  0  0  0  0  0  0  0  0  0  0  0
    8.7662    2.7805   24.1355 C   0  0  0  0  0  0  0  0  0  0  0  0
   10.0027    2.1429   24.0342 C   0  0  0  0  0  0  0  0  0  0  0  0
    7.1425    0.1684   18.5645 C   0  0  0  0  0  0  0  0  0  0  0  0
    5.2164    1.0731   18.9929 C   0  0  0  0  0  0  0  0  0  0  0  0
    8.1584    0.6614   21.1957 C   0  0  0  0  0  0  0  0  0  0  0  0
   12.0028   -1.5989   23.0601 C   0  0  0  0  0  0  0  0  0  0  0  0
    9.7396   -2.4048   23.7623 C   0  0  0  0  0  0  0  0  0  0  0  0
   10.2714   -2.1647   21.3440 C   0  0  0  0  0  0  0  0  0  0  0  0
   10.0866    0.6356   24.1368 C   0  0  0  0  0  0  0  0  0  0  0  0
    6.6692    0.5408   20.9956 C   0  0  0  0  0  0  0  0  0  0  0  0
    9.9501   -0.0675   22.7681 C   0  0  1  0  0  0  0  0  0  0  0  0
   10.4988   -1.5353   22.7345 C   0  0  0  0  0  0  0  0  0  0  0  0
    6.6381    0.3218   17.3831 N   0  0  0  0  0  0  0  0  0  0  0  0
    5.4192    0.8919   17.6167 N   0  0  0  0  0  0  0  0  0  0  0  0
    6.3591    0.5893   19.5592 N   0  0  0  0  0  0  0  0  0  0  0  0
    8.5663   -0.0133   22.3333 N   0  0  0  0  0  0  0  0  0  0  0  0
    4.2304    1.5576   19.5282 O   0  0  0  0  0  0  0  0  0  0  0  0
    8.8947    1.2815   20.4330 O   0  0  0  0  0  0  0  0  0  0  0  0
    9.7861    6.0039   23.7722 H   0  0  0  0  0  0  0  0  0  0  0  0
   11.9853    4.8696   23.5918 H   0  0  0  0  0  0  0  0  0  0  0  0
    7.7254    4.6661   24.1207 H   0  0  0  0  0  0  0  0  0  0  0  0
   12.1288    2.4066   23.7579 H   0  0  0  0  0  0  0  0  0  0  0  0
    7.8584    2.2029   24.2881 H   0  0  0  0  0  0  0  0  0  0  0  0
    8.1241   -0.2635   18.7987 H   0  0  0  0  0  0  0  0  0  0  0  0
   12.5939   -0.9985   22.3610 H   0  0  0  0  0  0  0  0  0  0  0  0
   12.3743   -2.6282   22.9953 H   0  0  0  0  0  0  0  0  0  0  0  0
   12.2112   -1.2403   24.0735 H   0  0  0  0  0  0  0  0  0  0  0  0
    8.6594   -2.3991   23.5812 H   0  0  0  0  0  0  0  0  0  0  0  0
    9.8955   -2.0378   24.7835 H   0  0  0  0  0  0  0  0  0  0  0  0
   10.0828   -3.4450   23.7282 H   0  0  0  0  0  0  0  0  0  0  0  0
    9.2111   -2.1415   21.0691 H   0  0  0  0  0  0  0  0  0  0  0  0
   10.5946   -3.2122   21.3274 H   0  0  0  0  0  0  0  0  0  0  0  0
   10.8363   -1.6484   20.5618 H   0  0  0  0  0  0  0  0  0  0  0  0
    9.3120    0.2815   24.8286 H   0  0  0  0  0  0  0  0  0  0  0  0
   11.0456    0.3975   24.6091 H   0  0  0  0  0  0  0  0  0  0  0  0
    6.3178   -0.4096   21.4080 H   0  0  0  0  0  0  0  0  0  0  0  0
    6.1590    1.3658   21.5012 H   0  0  0  0  0  0  0  0  0  0  0  0
   10.5047    0.5135   22.0191 H   0  0  0  0  0  0  0  0  0  0  0  0
    4.7551    1.1479   16.8974 H   0  0  0  0  0  0  0  0  0  0  0  0
    7.8666   -0.4916   22.8881 H   0  0  0  0  0  0  0  0  0  0  0  0
  1  2  1  0  0  0  0
  1  3  2  0  0  0  0
  2  4  2  0  0  0  0
  3  5  1  0  0  0  0
  4  6  1  0  0  0  0
  5  6  2  0  0  0  0
  6 13  1  0  0  0  0
  7 17  2  0  0  0  0
  7 19  1  0  0  0  0
  8 18  1  0  0  0  0
  8 19  1  0  0  0  0
  8 21  2  0  0  0  0
  9 14  1  0  0  0  0
  9 20  1  0  0  0  0
  9 22  2  0  0  0  0
 10 16  1  0  0  0  0
 11 16  1  0  0  0  0
 12 16  1  0  0  0  0
 13 15  1  0  0  0  0
 14 19  1  0  0  0  0
 15 16  1  0  0  0  0
 15 20  1  0  0  0  0
 17 18  1  0  0  0  0
  1 23  1  0  0  0  0
  2 24  1  0  0  0  0
  3 25  1  0  0  0  0
  4 26  1  0  0  0  0
  5 27  1  0  0  0  0
  7 28  1  0  0  0  0
 10 29  1  0  0  0  0
 10 30  1  0  0  0  0
 10 31  1  0  0  0  0
 11 32  1  0  0  0  0
 11 33  1  0  0  0  0
 11 34  1  0  0  0  0
 12 35  1  0  0  0  0
 12 36  1  0  0  0  0
 12 37  1  0  0  0  0
 13 38  1  0  0  0  0
 13 39  1  0  0  0  0
 14 40  1  0  0  0  0
 14 41  1  0  0  0  0
 15 42  1  0  0  0  0
 18 43  1  0  0  0  0
 20 44  1  0  0  0  0
M  END
> <Hybrid2>
-10.719757

> <fragments>
x0107

> <site>
active-noncovalent

$$$$
top_hits_only_mpro-246_1
  -OEChem-03302021283D

 38 41  0     0  0  0  0  0  0999 V2000
    8.5761   -3.7133   24.7175 C   0  0  0  0  0  0  0  0  0  0  0  0
    7.9055   -3.7025   23.4945 C   0  0  0  0  0  0  0  0  0  0  0  0
    8.2655   -2.7645   25.6917 C   0  0  0  0  0  0  0  0  0  0  0  0
    6.9244   -2.7428   23.2456 C   0  0  0  0  0  0  0  0  0  0  0  0
    7.2844   -1.8047   25.4427 C   0  0  0  0  0  0  0  0  0  0  0  0
    7.9627   -0.0932   19.4341 C   0  0  0  0  0  0  0  0  0  0  0  0
    9.9470   -1.1369   22.2369 C   0  0  0  0  0  0  0  0  0  0  0  0
    6.6853    0.4742   19.5579 C   0  0  0  0  0  0  0  0  0  0  0  0
    6.6138   -1.7939   24.2197 C   0  0  0  0  0  0  0  0  0  0  0  0
    6.7528    0.3126   21.9776 C   0  0  0  0  0  0  0  0  0  0  0  0
    8.0341   -0.2581   21.8805 C   0  0  0  0  0  0  0  0  0  0  0  0
    6.0736    0.6817   20.8043 C   0  0  0  0  0  0  0  0  0  0  0  0
    8.6002   -0.4443   20.6240 C   0  0  0  0  0  0  0  0  0  0  0  0
    5.9451    0.8726   18.3422 C   0  0  0  0  0  0  0  0  0  0  0  0
    4.1499    1.5977   19.8516 C   0  0  0  0  0  0  0  0  0  0  0  0
    5.5525   -0.7549   23.9509 C   0  0  0  0  0  0  0  0  0  0  0  0
    6.1074    0.5302   23.3115 C   0  0  0  0  0  0  0  0  0  0  0  0
    8.8844   -0.6941   22.8706 N   0  0  0  0  0  0  0  0  0  0  0  0
    4.7925    1.2509   20.9305 N   0  0  0  0  0  0  0  0  0  0  0  0
    9.8237   -1.0081   20.8816 N   0  0  0  0  0  0  0  0  0  0  0  0
    4.6968    1.4200   18.5875 N   0  0  0  0  0  0  0  0  0  0  0  0
    2.8996    2.1561   19.8857 N   0  0  0  0  0  0  0  0  0  0  0  0
    6.4199    0.7198   17.2228 O   0  0  0  0  0  0  0  0  0  0  0  0
    9.3390   -4.4616   24.9117 H   0  0  0  0  0  0  0  0  0  0  0  0
    8.1464   -4.4419   22.7363 H   0  0  0  0  0  0  0  0  0  0  0  0
    8.7866   -2.7733   26.6444 H   0  0  0  0  0  0  0  0  0  0  0  0
    6.4072   -2.7418   22.2897 H   0  0  0  0  0  0  0  0  0  0  0  0
    7.0492   -1.0693   26.2075 H   0  0  0  0  0  0  0  0  0  0  0  0
    8.4395   -0.2569   18.4743 H   0  0  0  0  0  0  0  0  0  0  0  0
   10.8304   -1.5592   22.6944 H   0  0  0  0  0  0  0  0  0  0  0  0
    4.7997   -1.1975   23.2855 H   0  0  0  0  0  0  0  0  0  0  0  0
    5.0209   -0.5162   24.8810 H   0  0  0  0  0  0  0  0  0  0  0  0
    6.8494    0.9689   23.9974 H   0  0  0  0  0  0  0  0  0  0  0  0
    5.3085    1.2845   23.2330 H   0  0  0  0  0  0  0  0  0  0  0  0
   10.5118   -1.2799   20.1921 H   0  0  0  0  0  0  0  0  0  0  0  0
    4.1449    1.7116   17.7862 H   0  0  0  0  0  0  0  0  0  0  0  0
    2.4711    2.2998   20.7712 H   0  0  0  0  0  0  0  0  0  0  0  0
    2.4667    2.3970   19.0238 H   0  0  0  0  0  0  0  0  0  0  0  0
  1  2  1  0  0  0  0
  1  3  2  0  0  0  0
  2  4  2  0  0  0  0
  3  5  1  0  0  0  0
  4  9  1  0  0  0  0
  5  9  2  0  0  0  0
  6  8  2  0  0  0  0
  6 13  1  0  0  0  0
  7 18  2  0  0  0  0
  7 20  1  0  0  0  0
  8 12  1  0  0  0  0
  8 14  1  0  0  0  0
  9 16  1  0  0  0  0
 10 11  1  0  0  0  0
 10 12  2  0  0  0  0
 10 17  1  0  0  0  0
 11 13  2  0  0  0  0
 11 18  1  0  0  0  0
 12 19  1  0  0  0  0
 13 20  1  0  0  0  0
 14 21  1  0  0  0  0
 14 23  2  0  0  0  0
 15 19  2  0  0  0  0
 15 21  1  0  0  0  0
 15 22  1  0  0  0  0
 16 17  1  0  0  0  0
  1 24  1  0  0  0  0
  2 25  1  0  0  0  0
  3 26  1  0  0  0  0
  4 27  1  0  0  0  0
  5 28  1  0  0  0  0
  6 29  1  0  0  0  0
  7 30  1  0  0  0  0
 16 31  1  0  0  0  0
 16 32  1  0  0  0  0
 17 33  1  0  0  0  0
 17 34  1  0  0  0  0
 20 35  1  0  0  0  0
 21 36  1  0  0  0  0
 22 37  1  0  0  0  0
 22 38  1  0  0  0  0
M  END
> <Hybrid2>
-10.714119

> <fragments>
x0107

> <site>
active-noncovalent

$$$$
top_hits_only_mpro-196_1
  -OEChem-03302021283D

 36 39  0     0  0  0  0  0  0999 V2000
   13.4342   -1.0324   23.5810 C   0  0  0  0  0  0  0  0  0  0  0  0
   13.6173    0.0236   22.6953 C   0  0  0  0  0  0  0  0  0  0  0  0
    6.0047    0.5271   19.5946 C   0  0  0  0  0  0  0  0  0  0  0  0
   12.2290   -1.7276   23.5805 C   0  0  0  0  0  0  0  0  0  0  0  0
    6.9839    0.1574   20.5099 C   0  0  0  0  0  0  0  0  0  0  0  0
   12.5956    0.3820   21.8110 C   0  0  0  0  0  0  0  0  0  0  0  0
    7.4282   -3.1852   24.1495 C   0  0  0  0  0  0  0  0  0  0  0  0
    6.1664   -3.7734   24.0629 C   0  0  0  0  0  0  0  0  0  0  0  0
    7.0044   -5.3284   22.4146 C   0  0  0  0  0  0  0  0  0  0  0  0
    6.3188    0.4612   18.2467 C   0  0  0  0  0  0  0  0  0  0  0  0
    8.4441   -0.2918   18.6872 C   0  0  0  0  0  0  0  0  0  0  0  0
   11.2065   -1.3611   22.6882 C   0  0  0  0  0  0  0  0  0  0  0  0
    8.2297   -0.2610   20.0557 C   0  0  0  0  0  0  0  0  0  0  0  0
   11.3795   -0.2965   21.7887 C   0  0  0  0  0  0  0  0  0  0  0  0
    8.4781   -3.6685   23.3686 C   0  0  0  0  0  0  0  0  0  0  0  0
    5.9545   -4.8450   23.1955 C   0  0  0  0  0  0  0  0  0  0  0  0
    8.2662   -4.7401   22.5012 C   0  0  0  0  0  0  0  0  0  0  0  0
    9.9786   -2.0149   22.6364 C   0  0  0  0  0  0  0  0  0  0  0  0
    9.2641   -0.6496   20.9786 C   0  0  0  0  0  0  0  0  0  0  0  0
    7.5176    0.0599   17.7677 N   0  0  0  0  0  0  0  0  0  0  0  0
   10.4084    0.0623   20.9309 N   0  0  0  0  0  0  0  0  0  0  0  0
    8.9852   -1.6818   21.7909 N   0  0  0  0  0  0  0  0  0  0  0  0
    9.7158   -3.0670   23.4750 O   0  0  0  0  0  0  0  0  0  0  0  0
    4.7427   -5.4098   23.1124 F   0  0  0  0  0  0  0  0  0  0  0  0
    9.5463   -5.3582   21.5239 Cl  0  0  0  0  0  0  0  0  0  0  0  0
   14.2267   -1.3121   24.2684 H   0  0  0  0  0  0  0  0  0  0  0  0
   14.5553    0.5717   22.6896 H   0  0  0  0  0  0  0  0  0  0  0  0
    5.0260    0.8558   19.9249 H   0  0  0  0  0  0  0  0  0  0  0  0
   12.1011   -2.5511   24.2784 H   0  0  0  0  0  0  0  0  0  0  0  0
    6.7622    0.2005   21.5733 H   0  0  0  0  0  0  0  0  0  0  0  0
   12.7648    1.2131   21.1285 H   0  0  0  0  0  0  0  0  0  0  0  0
    7.5859   -2.3508   24.8275 H   0  0  0  0  0  0  0  0  0  0  0  0
    5.3487   -3.3974   24.6707 H   0  0  0  0  0  0  0  0  0  0  0  0
    6.8230   -6.1641   21.7437 H   0  0  0  0  0  0  0  0  0  0  0  0
    5.5896    0.7393   17.4925 H   0  0  0  0  0  0  0  0  0  0  0  0
    9.3946   -0.6098   18.2683 H   0  0  0  0  0  0  0  0  0  0  0  0
  1  2  1  0  0  0  0
  1  4  2  0  0  0  0
  2  6  2  0  0  0  0
  3  5  2  0  0  0  0
  3 10  1  0  0  0  0
  4 12  1  0  0  0  0
  5 13  1  0  0  0  0
  6 14  1  0  0  0  0
  7  8  2  0  0  0  0
  7 15  1  0  0  0  0
  8 16  1  0  0  0  0
  9 16  2  0  0  0  0
  9 17  1  0  0  0  0
 10 20  2  0  0  0  0
 11 13  2  0  0  0  0
 11 20  1  0  0  0  0
 12 14  1  0  0  0  0
 12 18  2  0  0  0  0
 13 19  1  0  0  0  0
 14 21  2  0  0  0  0
 15 17  2  0  0  0  0
 15 23  1  0  0  0  0
 16 24  1  0  0  0  0
 17 25  1  0  0  0  0
 18 22  1  0  0  0  0
 18 23  1  0  0  0  0
 19 21  1  0  0  0  0
 19 22  2  0  0  0  0
  1 26  1  0  0  0  0
  2 27  1  0  0  0  0
  3 28  1  0  0  0  0
  4 29  1  0  0  0  0
  5 30  1  0  0  0  0
  6 31  1  0  0  0  0
  7 32  1  0  0  0  0
  8 33  1  0  0  0  0
  9 34  1  0  0  0  0
 10 35  1  0  0  0  0
 11 36  1  0  0  0  0
M  END
> <Hybrid2>
-10.707531

> <fragments>
x0678

> <site>
active-noncovalent

$$$$
top_hits_only_mpro-154_1
  -OEChem-03302021283D

 40 42  0     0  0  0  0  0  0999 V2000
    5.4492    1.0335   18.6380 C   0  0  0  0  0  0  0  0  0  0  0  0
   13.0168   -2.0880   22.7208 C   0  0  0  0  0  0  0  0  0  0  0  0
    6.1980    0.6081   17.5526 C   0  0  0  0  0  0  0  0  0  0  0  0
   14.1411   -1.3062   23.0473 C   0  0  0  0  0  0  0  0  0  0  0  0
    8.0127    0.1305   18.8780 C   0  0  0  0  0  0  0  0  0  0  0  0
    6.0430    0.9925   19.8946 C   0  0  0  0  0  0  0  0  0  0  0  0
    7.3491    0.5337   20.0255 C   0  0  0  0  0  0  0  0  0  0  0  0
   11.9863   -1.5201   23.4293 C   0  0  0  0  0  0  0  0  0  0  0  0
   10.5740   -1.9209   23.4747 C   0  0  0  0  0  0  0  0  0  0  0  0
    7.4385   -0.3439   22.3481 C   0  0  0  0  0  0  0  0  0  0  0  0
    9.3971    0.8266   21.4341 C   0  0  0  0  0  0  0  0  0  0  0  0
    8.2532   -1.6380   22.4544 C   0  0  0  0  0  0  0  0  0  0  0  0
   10.2253   -0.4536   21.5145 C   0  0  0  0  0  0  0  0  0  0  0  0
    5.2587    1.4441   21.0825 C   0  0  0  0  0  0  0  0  0  0  0  0
   11.8501    0.4375   24.9986 C   0  0  0  0  0  0  0  0  0  0  0  0
    7.4690    0.1561   17.6405 N   0  0  0  0  0  0  0  0  0  0  0  0
   13.8521   -0.3170   23.8970 N   0  0  0  0  0  0  0  0  0  0  0  0
   12.5345   -0.4733   24.1103 N   0  0  0  0  0  0  0  0  0  0  0  0
    7.9844    0.4766   21.2608 N   0  0  0  0  0  0  0  0  0  0  0  0
    9.6968   -1.3553   22.5452 N   0  0  0  0  0  0  0  0  0  0  0  0
   10.2677   -2.7325   24.3469 O   0  0  0  0  0  0  0  0  0  0  0  0
    4.4320    1.3850   18.5023 H   0  0  0  0  0  0  0  0  0  0  0  0
   12.9668   -2.9428   22.0618 H   0  0  0  0  0  0  0  0  0  0  0  0
    5.7809    0.6204   16.5509 H   0  0  0  0  0  0  0  0  0  0  0  0
   15.1589   -1.4156   22.7013 H   0  0  0  0  0  0  0  0  0  0  0  0
    9.0335   -0.2379   18.9160 H   0  0  0  0  0  0  0  0  0  0  0  0
    6.3930   -0.5787   22.1515 H   0  0  0  0  0  0  0  0  0  0  0  0
    7.5033    0.1969   23.2911 H   0  0  0  0  0  0  0  0  0  0  0  0
    9.5120    1.4107   22.3479 H   0  0  0  0  0  0  0  0  0  0  0  0
    9.7573    1.4326   20.6013 H   0  0  0  0  0  0  0  0  0  0  0  0
    7.9751   -2.1942   23.3507 H   0  0  0  0  0  0  0  0  0  0  0  0
    8.0520   -2.2651   21.5875 H   0  0  0  0  0  0  0  0  0  0  0  0
   10.1975   -0.9934   20.5673 H   0  0  0  0  0  0  0  0  0  0  0  0
   11.2644   -0.2138   21.7339 H   0  0  0  0  0  0  0  0  0  0  0  0
    4.7101    0.6010   21.5184 H   0  0  0  0  0  0  0  0  0  0  0  0
    5.9144    1.8698   21.8520 H   0  0  0  0  0  0  0  0  0  0  0  0
    4.5389    2.2254   20.8086 H   0  0  0  0  0  0  0  0  0  0  0  0
   11.8946    0.0211   26.0084 H   0  0  0  0  0  0  0  0  0  0  0  0
   12.3397    1.4147   24.9661 H   0  0  0  0  0  0  0  0  0  0  0  0
   10.8114    0.5464   24.6743 H   0  0  0  0  0  0  0  0  0  0  0  0
  1  3  2  0  0  0  0
  1  6  1  0  0  0  0
  2  4  1  0  0  0  0
  2  8  2  0  0  0  0
  3 16  1  0  0  0  0
  4 17  2  0  0  0  0
  5  7  1  0  0  0  0
  5 16  2  0  0  0  0
  6  7  2  0  0  0  0
  6 14  1  0  0  0  0
  7 19  1  0  0  0  0
  8  9  1  0  0  0  0
  8 18  1  0  0  0  0
  9 20  1  0  0  0  0
  9 21  2  0  0  0  0
 10 12  1  0  0  0  0
 10 19  1  0  0  0  0
 11 13  1  0  0  0  0
 11 19  1  0  0  0  0
 12 20  1  0  0  0  0
 13 20  1  0  0  0  0
 15 18  1  0  0  0  0
 17 18  1  0  0  0  0
  1 22  1  0  0  0  0
  2 23  1  0  0  0  0
  3 24  1  0  0  0  0
  4 25  1  0  0  0  0
  5 26  1  0  0  0  0
 10 27  1  0  0  0  0
 10 28  1  0  0  0  0
 11 29  1  0  0  0  0
 11 30  1  0  0  0  0
 12 31  1  0  0  0  0
 12 32  1  0  0  0  0
 13 33  1  0  0  0  0
 13 34  1  0  0  0  0
 14 35  1  0  0  0  0
 14 36  1  0  0  0  0
 14 37  1  0  0  0  0
 15 38  1  0  0  0  0
 15 39  1  0  0  0  0
 15 40  1  0  0  0  0
M  END
> <Hybrid2>
-10.704350

> <fragments>
x0678

> <site>
active-noncovalent

$$$$
top_hits_only_mpro-260_1
  -OEChem-03302021283D

 29 31  0     1  0  0  0  0  0999 V2000
   14.9363   -2.0749   23.1327 C   0  0  0  0  0  0  0  0  0  0  0  0
   14.9902   -1.3713   24.3359 C   0  0  0  0  0  0  0  0  0  0  0  0
   13.7442   -2.1311   22.4105 C   0  0  0  0  0  0  0  0  0  0  0  0
   13.8521   -0.7241   24.8170 C   0  0  0  0  0  0  0  0  0  0  0  0
    6.2692    0.5133   17.9155 C   0  0  0  0  0  0  0  0  0  0  0  0
   12.6061   -1.4839   22.8916 C   0  0  0  0  0  0  0  0  0  0  0  0
   12.6600   -0.7804   24.0949 C   0  0  0  0  0  0  0  0  0  0  0  0
    7.9716    0.1687   19.0732 C   0  0  0  0  0  0  0  0  0  0  0  0
    9.6494   -0.0355   20.9352 C   0  0  0  0  0  0  0  0  0  0  0  0
   11.4491   -1.8289   20.6082 C   0  0  0  0  0  0  0  0  0  0  0  0
   11.3506   -1.5700   22.0860 C   0  0  2  0  0  0  0  0  0  0  0  0
   11.0426   -0.4694   21.0974 C   0  0  2  0  0  0  0  0  0  0  0  0
    7.5587    0.0721   17.8307 N   0  0  0  0  0  0  0  0  0  0  0  0
    5.8583    0.8769   19.1322 N   0  0  0  0  0  0  0  0  0  0  0  0
    6.9657    0.6468   19.8538 N   0  0  0  0  0  0  0  0  0  0  0  0
    9.2407   -0.1488   19.6125 N   0  0  0  0  0  0  0  0  0  0  0  0
    8.9986    0.3595   21.8971 O   0  0  0  0  0  0  0  0  0  0  0  0
   11.1406    0.1143   24.7954 Br  0  0  0  0  0  0  0  0  0  0  0  0
   15.8225   -2.5788   22.7583 H   0  0  0  0  0  0  0  0  0  0  0  0
   15.9186   -1.3276   24.8979 H   0  0  0  0  0  0  0  0  0  0  0  0
   13.7138   -2.6823   21.4741 H   0  0  0  0  0  0  0  0  0  0  0  0
   13.9135   -0.1807   25.7566 H   0  0  0  0  0  0  0  0  0  0  0  0
    5.6082    0.5718   17.0636 H   0  0  0  0  0  0  0  0  0  0  0  0
   12.4281   -1.9266   20.1532 H   0  0  0  0  0  0  0  0  0  0  0  0
   10.6936   -2.4675   20.1651 H   0  0  0  0  0  0  0  0  0  0  0  0
   10.5143   -2.0269   22.5984 H   0  0  0  0  0  0  0  0  0  0  0  0
   11.7726    0.3245   20.9750 H   0  0  0  0  0  0  0  0  0  0  0  0
    6.9587    0.8356   20.8491 H   0  0  0  0  0  0  0  0  0  0  0  0
    9.9230   -0.5001   18.9438 H   0  0  0  0  0  0  0  0  0  0  0  0
  1  2  1  0  0  0  0
  1  3  2  0  0  0  0
  2  4  2  0  0  0  0
  3  6  1  0  0  0  0
  4  7  1  0  0  0  0
  5 13  1  0  0  0  0
  5 14  2  0  0  0  0
  6  7  2  0  0  0  0
  6 11  1  0  0  0  0
  7 18  1  0  0  0  0
  8 13  2  0  0  0  0
  8 15  1  0  0  0  0
  8 16  1  0  0  0  0
  9 12  1  0  0  0  0
  9 16  1  0  0  0  0
  9 17  2  0  0  0  0
 10 11  1  0  0  0  0
 10 12  1  0  0  0  0
 11 12  1  0  0  0  0
 14 15  1  0  0  0  0
  1 19  1  0  0  0  0
  2 20  1  0  0  0  0
  3 21  1  0  0  0  0
  4 22  1  0  0  0  0
  5 23  1  0  0  0  0
 10 24  1  0  0  0  0
 10 25  1  0  0  0  0
 11 26  1  0  0  0  0
 12 27  1  0  0  0  0
 15 28  1  0  0  0  0
 16 29  1  0  0  0  0
M  END
> <Hybrid2>
-10.702320

> <fragments>
x0678

> <site>
active-noncovalent

$$$$
top_hits_only_mpro-59_1
  -OEChem-03302021283D

 34 36  0     0  0  0  0  0  0999 V2000
   14.1412   -1.2747   24.3263 C   0  0  0  0  0  0  0  0  0  0  0  0
   13.7290   -2.0740   23.2602 C   0  0  0  0  0  0  0  0  0  0  0  0
    8.3210    0.9031   21.2633 C   0  0  0  0  0  0  0  0  0  0  0  0
   13.4038   -0.1434   24.6759 C   0  0  0  0  0  0  0  0  0  0  0  0
    7.0005    1.2671   20.9420 C   0  0  0  0  0  0  0  0  0  0  0  0
   12.5793   -1.7419   22.5434 C   0  0  0  0  0  0  0  0  0  0  0  0
    8.8864    0.0628   18.9891 C   0  0  0  0  0  0  0  0  0  0  0  0
    9.2230    0.3272   20.3294 C   0  0  0  0  0  0  0  0  0  0  0  0
   12.2542    0.1886   23.9591 C   0  0  0  0  0  0  0  0  0  0  0  0
    6.6367    1.0137   19.6063 C   0  0  0  0  0  0  0  0  0  0  0  0
    7.5700    0.4175   18.6397 C   0  0  0  0  0  0  0  0  0  0  0  0
   11.8419   -0.6106   22.8928 C   0  0  0  0  0  0  0  0  0  0  0  0
   10.5660   -0.0086   20.7823 C   0  0  0  0  0  0  0  0  0  0  0  0
   11.7340    2.5801   23.4143 C   0  0  0  0  0  0  0  0  0  0  0  0
   11.4840    1.4062   24.3558 C   0  0  0  0  0  0  0  0  0  0  0  0
    5.4708    1.2374   18.9780 N   0  0  0  0  0  0  0  0  0  0  0  0
    6.9348    0.3023   17.4619 N   0  0  0  0  0  0  0  0  0  0  0  0
    5.7272    0.7984   17.7431 N   0  0  0  0  0  0  0  0  0  0  0  0
   10.6766   -0.2900   22.1519 N   0  0  0  0  0  0  0  0  0  0  0  0
   11.5316   -0.0061   20.0080 O   0  0  0  0  0  0  0  0  0  0  0  0
   15.0365   -1.5326   24.8842 H   0  0  0  0  0  0  0  0  0  0  0  0
   14.3037   -2.9544   22.9875 H   0  0  0  0  0  0  0  0  0  0  0  0
    8.6603    1.0765   22.2848 H   0  0  0  0  0  0  0  0  0  0  0  0
   13.7337    0.4729   25.5079 H   0  0  0  0  0  0  0  0  0  0  0  0
    6.3285    1.7054   21.6689 H   0  0  0  0  0  0  0  0  0  0  0  0
   12.2684   -2.3730   21.7148 H   0  0  0  0  0  0  0  0  0  0  0  0
    9.5814   -0.3765   18.2838 H   0  0  0  0  0  0  0  0  0  0  0  0
   12.8000    2.8274   23.3677 H   0  0  0  0  0  0  0  0  0  0  0  0
   11.1944    3.4693   23.7549 H   0  0  0  0  0  0  0  0  0  0  0  0
   11.3982    2.3480   22.3979 H   0  0  0  0  0  0  0  0  0  0  0  0
   10.4060    1.1844   24.3794 H   0  0  0  0  0  0  0  0  0  0  0  0
   11.7447    1.7042   25.3830 H   0  0  0  0  0  0  0  0  0  0  0  0
    5.0123    0.8408   17.0260 H   0  0  0  0  0  0  0  0  0  0  0  0
    9.8090   -0.2602   22.6817 H   0  0  0  0  0  0  0  0  0  0  0  0
  1  2  1  0  0  0  0
  1  4  2  0  0  0  0
  2  6  2  0  0  0  0
  3  5  2  0  0  0  0
  3  8  1  0  0  0  0
  4  9  1  0  0  0  0
  5 10  1  0  0  0  0
  6 12  1  0  0  0  0
  7  8  2  0  0  0  0
  7 11  1  0  0  0  0
  8 13  1  0  0  0  0
  9 12  2  0  0  0  0
  9 15  1  0  0  0  0
 10 11  1  0  0  0  0
 10 16  2  0  0  0  0
 11 17  2  0  0  0  0
 12 19  1  0  0  0  0
 13 19  1  0  0  0  0
 13 20  2  0  0  0  0
 14 15  1  0  0  0  0
 16 18  1  0  0  0  0
 17 18  1  0  0  0  0
  1 21  1  0  0  0  0
  2 22  1  0  0  0  0
  3 23  1  0  0  0  0
  4 24  1  0  0  0  0
  5 25  1  0  0  0  0
  6 26  1  0  0  0  0
  7 27  1  0  0  0  0
 14 28  1  0  0  0  0
 14 29  1  0  0  0  0
 14 30  1  0  0  0  0
 15 31  1  0  0  0  0
 15 32  1  0  0  0  0
 18 33  1  0  0  0  0
 19 34  1  0  0  0  0
M  END
> <Hybrid2>
-10.691105

> <fragments>
x0678

> <site>
active-noncovalent

$$$$
top_hits_only_mpro-9_1
  -OEChem-03302021283D

 41 44  0     0  0  0  0  0  0999 V2000
    7.5036    0.6823   26.2311 C   0  0  0  0  0  0  0  0  0  0  0  0
    8.0859    1.5609   25.3175 C   0  0  0  0  0  0  0  0  0  0  0  0
    8.0196   -0.6041   26.3877 C   0  0  0  0  0  0  0  0  0  0  0  0
    9.1842    1.1530   24.5605 C   0  0  0  0  0  0  0  0  0  0  0  0
    9.1179   -1.0120   25.6307 C   0  0  0  0  0  0  0  0  0  0  0  0
    6.4723    0.4795   20.5555 C   0  0  0  0  0  0  0  0  0  0  0  0
    8.3455   -0.1552   19.2345 C   0  0  0  0  0  0  0  0  0  0  0  0
    6.4657    0.6441   18.1829 C   0  0  0  0  0  0  0  0  0  0  0  0
    9.7002   -0.1335   24.7171 C   0  0  0  0  0  0  0  0  0  0  0  0
    7.7691   -0.0176   20.4869 C   0  0  0  0  0  0  0  0  0  0  0  0
    5.8011    0.8190   19.3860 C   0  0  0  0  0  0  0  0  0  0  0  0
   10.8274   -0.5525   23.9402 C   0  0  0  0  0  0  0  0  0  0  0  0
   10.8726   -0.6077   22.5677 C   0  0  0  0  0  0  0  0  0  0  0  0
   12.7933   -1.2579   23.4730 C   0  0  0  0  0  0  0  0  0  0  0  0
   13.9696   -1.7428   20.9691 C   0  0  0  0  0  0  0  0  0  0  0  0
   14.6963   -1.9636   22.2087 C   0  0  0  0  0  0  0  0  0  0  0  0
   12.7062   -1.2967   21.0227 C   0  0  0  0  0  0  0  0  0  0  0  0
   14.1512   -1.7371   23.4282 C   0  0  0  0  0  0  0  0  0  0  0  0
    8.5083   -0.3853   21.7067 C   0  0  0  0  0  0  0  0  0  0  0  0
   14.9661   -1.9893   24.6702 C   0  0  0  0  0  0  0  0  0  0  0  0
    7.7250    0.1640   18.0765 N   0  0  0  0  0  0  0  0  0  0  0  0
   12.0153   -0.9549   24.4940 N   0  0  0  0  0  0  0  0  0  0  0  0
   12.1314   -1.0593   22.2648 N   0  0  0  0  0  0  0  0  0  0  0  0
    9.9281   -0.3023   21.6218 N   0  0  0  0  0  0  0  0  0  0  0  0
    7.9167   -0.7694   22.7133 O   0  0  0  0  0  0  0  0  0  0  0  0
    4.0434    1.4938   19.4367 Br  0  0  0  0  0  0  0  0  0  0  0  0
    6.6491    1.0001   26.8213 H   0  0  0  0  0  0  0  0  0  0  0  0
    7.6852    2.5629   25.1963 H   0  0  0  0  0  0  0  0  0  0  0  0
    7.5668   -1.2875   27.1000 H   0  0  0  0  0  0  0  0  0  0  0  0
    9.6271    1.8495   23.8524 H   0  0  0  0  0  0  0  0  0  0  0  0
    9.5083   -2.0182   25.7646 H   0  0  0  0  0  0  0  0  0  0  0  0
    5.9895    0.6003   21.5228 H   0  0  0  0  0  0  0  0  0  0  0  0
    9.3549   -0.5376   19.1173 H   0  0  0  0  0  0  0  0  0  0  0  0
    5.9970    0.8894   17.2345 H   0  0  0  0  0  0  0  0  0  0  0  0
   14.4655   -1.9439   20.0273 H   0  0  0  0  0  0  0  0  0  0  0  0
   15.7153   -2.3253   22.1074 H   0  0  0  0  0  0  0  0  0  0  0  0
   12.1155   -1.1140   20.1334 H   0  0  0  0  0  0  0  0  0  0  0  0
   14.8184   -3.0157   24.9907 H   0  0  0  0  0  0  0  0  0  0  0  0
   14.6450   -1.3078   25.4520 H   0  0  0  0  0  0  0  0  0  0  0  0
   16.0151   -1.8180   24.4489 H   0  0  0  0  0  0  0  0  0  0  0  0
   10.3002    0.0375   20.7154 H   0  0  0  0  0  0  0  0  0  0  0  0
  1  2  1  0  0  0  0
  1  3  2  0  0  0  0
  2  4  2  0  0  0  0
  3  5  1  0  0  0  0
  4  9  1  0  0  0  0
  5  9  2  0  0  0  0
  6 10  1  0  0  0  0
  6 11  2  0  0  0  0
  7 10  2  0  0  0  0
  7 21  1  0  0  0  0
  8 11  1  0  0  0  0
  8 21  2  0  0  0  0
  9 12  1  0  0  0  0
 10 19  1  0  0  0  0
 11 26  1  0  0  0  0
 12 13  2  0  0  0  0
 12 22  1  0  0  0  0
 13 23  1  0  0  0  0
 13 24  1  0  0  0  0
 14 18  1  0  0  0  0
 14 22  2  0  0  0  0
 14 23  1  0  0  0  0
 15 16  1  0  0  0  0
 15 17  2  0  0  0  0
 16 18  2  0  0  0  0
 17 23  1  0  0  0  0
 18 20  1  0  0  0  0
 19 24  1  0  0  0  0
 19 25  2  0  0  0  0
  1 27  1  0  0  0  0
  2 28  1  0  0  0  0
  3 29  1  0  0  0  0
  4 30  1  0  0  0  0
  5 31  1  0  0  0  0
  6 32  1  0  0  0  0
  7 33  1  0  0  0  0
  8 34  1  0  0  0  0
 15 35  1  0  0  0  0
 16 36  1  0  0  0  0
 17 37  1  0  0  0  0
 20 38  1  0  0  0  0
 20 39  1  0  0  0  0
 20 40  1  0  0  0  0
 24 41  1  0  0  0  0
M  END
> <Hybrid2>
-10.689064

> <fragments>
x0678

> <site>
active-noncovalent

$$$$
top_hits_only_mpro-495_1
  -OEChem-03302021283D

 39 42  0     1  0  0  0  0  0999 V2000
    9.7063   -0.9562   25.2802 C   0  0  0  0  0  0  0  0  0  0  0  0
    9.1724   -0.4888   22.9707 C   0  0  0  0  0  0  0  0  0  0  0  0
   11.8772    3.7512   22.5871 C   0  0  0  0  0  0  0  0  0  0  0  0
    8.5492   -1.7271   25.3917 C   0  0  0  0  0  0  0  0  0  0  0  0
    8.0153   -1.2597   23.0822 C   0  0  0  0  0  0  0  0  0  0  0  0
   12.9253    4.6607   22.4616 C   0  0  0  0  0  0  0  0  0  0  0  0
   14.5029    2.9113   22.9949 C   0  0  0  0  0  0  0  0  0  0  0  0
   10.0179   -0.3370   24.0697 C   0  0  0  0  0  0  0  0  0  0  0  0
   13.4591    1.9803   23.1103 C   0  0  0  0  0  0  0  0  0  0  0  0
   12.1424    2.4233   22.9311 C   0  0  0  0  0  0  0  0  0  0  0  0
    7.7037   -1.8789   24.2927 C   0  0  0  0  0  0  0  0  0  0  0  0
   14.2372    4.2429   22.6727 C   0  0  0  0  0  0  0  0  0  0  0  0
   14.6101   -0.1231   22.2942 C   0  0  0  0  0  0  0  0  0  0  0  0
   12.3873   -1.0183   22.1612 C   0  0  0  0  0  0  0  0  0  0  0  0
   13.7675    0.5320   23.4131 C   0  0  2  0  0  0  0  0  0  0  0  0
   11.2772    0.5014   23.9481 C   0  0  1  0  0  0  0  0  0  0  0  0
   12.4918   -0.3342   23.5299 C   0  0  1  0  0  0  0  0  0  0  0  0
   13.8327   -1.3557   21.8758 C   0  0  0  0  0  0  0  0  0  0  0  0
   11.0549    1.5965   23.0484 O   0  0  0  0  0  0  0  0  0  0  0  0
    6.5754   -2.6323   24.4013 O   0  0  0  0  0  0  0  0  0  0  0  0
   15.2616    5.1316   22.5564 O   0  0  0  0  0  0  0  0  0  0  0  0
   14.0358   -1.6676   20.5835 F   0  0  0  0  0  0  0  0  0  0  0  0
   14.2155   -2.4196   22.6207 F   0  0  0  0  0  0  0  0  0  0  0  0
   10.3592   -0.8433   26.1415 H   0  0  0  0  0  0  0  0  0  0  0  0
    9.4072   -0.0099   22.0236 H   0  0  0  0  0  0  0  0  0  0  0  0
   10.8552    4.0854   22.4296 H   0  0  0  0  0  0  0  0  0  0  0  0
    8.3120   -2.2073   26.3373 H   0  0  0  0  0  0  0  0  0  0  0  0
    7.3611   -1.3744   22.2225 H   0  0  0  0  0  0  0  0  0  0  0  0
   12.7124    5.6945   22.2037 H   0  0  0  0  0  0  0  0  0  0  0  0
   15.5323    2.5933   23.1464 H   0  0  0  0  0  0  0  0  0  0  0  0
   14.7521    0.5394   21.4326 H   0  0  0  0  0  0  0  0  0  0  0  0
   15.6015   -0.3978   22.6704 H   0  0  0  0  0  0  0  0  0  0  0  0
   11.7650   -1.9174   22.2033 H   0  0  0  0  0  0  0  0  0  0  0  0
   11.9833   -0.3536   21.3894 H   0  0  0  0  0  0  0  0  0  0  0  0
   14.3070    0.4977   24.3685 H   0  0  0  0  0  0  0  0  0  0  0  0
   11.4588    0.9239   24.9650 H   0  0  0  0  0  0  0  0  0  0  0  0
   12.6660   -1.1178   24.2820 H   0  0  0  0  0  0  0  0  0  0  0  0
    6.0950   -2.6420   23.5581 H   0  0  0  0  0  0  0  0  0  0  0  0
   16.1091    4.6927   22.7319 H   0  0  0  0  0  0  0  0  0  0  0  0
  1  4  2  0  0  0  0
  1  8  1  0  0  0  0
  2  5  1  0  0  0  0
  2  8  2  0  0  0  0
  3  6  2  0  0  0  0
  3 10  1  0  0  0  0
  4 11  1  0  0  0  0
  5 11  2  0  0  0  0
  6 12  1  0  0  0  0
  7  9  1  0  0  0  0
  7 12  2  0  0  0  0
  8 16  1  0  0  0  0
  9 10  2  0  0  0  0
  9 15  1  0  0  0  0
 10 19  1  0  0  0  0
 11 20  1  0  0  0  0
 12 21  1  0  0  0  0
 13 15  1  0  0  0  0
 13 18  1  0  0  0  0
 14 17  1  0  0  0  0
 14 18  1  0  0  0  0
 15 17  1  0  0  0  0
 16 17  1  0  0  0  0
 16 19  1  0  0  0  0
 18 22  1  0  0  0  0
 18 23  1  0  0  0  0
  1 24  1  0  0  0  0
  2 25  1  0  0  0  0
  3 26  1  0  0  0  0
  4 27  1  0  0  0  0
  5 28  1  0  0  0  0
  6 29  1  0  0  0  0
  7 30  1  0  0  0  0
 13 31  1  0  0  0  0
 13 32  1  0  0  0  0
 14 33  1  0  0  0  0
 14 34  1  0  0  0  0
 15 35  1  0  0  0  0
 16 36  1  0  0  0  0
 17 37  1  0  0  0  0
 20 38  1  0  0  0  0
 21 39  1  0  0  0  0
M  END
> <Hybrid2>
-10.672372

> <fragments>
x0195

> <site>
active-noncovalent

$$$$
top_hits_only_mpro-420_1
  -OEChem-03302021283D

 45 47  0     0  0  0  0  0  0999 V2000
    7.9157   -3.2436   25.5181 C   0  0  0  0  0  0  0  0  0  0  0  0
    9.0826   -3.8541   25.0584 C   0  0  0  0  0  0  0  0  0  0  0  0
    7.2402   -2.3310   24.7078 C   0  0  0  0  0  0  0  0  0  0  0  0
    9.5741   -3.5518   23.7885 C   0  0  0  0  0  0  0  0  0  0  0  0
    7.7317   -2.0287   23.4379 C   0  0  0  0  0  0  0  0  0  0  0  0
    8.9087   -0.1637   18.8267 C   0  0  0  0  0  0  0  0  0  0  0  0
    6.7276    0.4461   18.6317 C   0  0  0  0  0  0  0  0  0  0  0  0
    8.9197    0.1888   20.1608 C   0  0  0  0  0  0  0  0  0  0  0  0
    8.8986   -2.6391   22.9782 C   0  0  0  0  0  0  0  0  0  0  0  0
    7.7308    0.6823   20.6578 C   0  0  0  0  0  0  0  0  0  0  0  0
   10.1424    0.0332   20.9647 C   0  0  0  0  0  0  0  0  0  0  0  0
   14.1472   -0.3471   23.4634 C   0  0  0  0  0  0  0  0  0  0  0  0
   14.0996   -1.3660   22.3283 C   0  0  0  0  0  0  0  0  0  0  0  0
   12.9180   -0.4475   24.3622 C   0  0  0  0  0  0  0  0  0  0  0  0
   12.8057   -1.2535   21.5238 C   0  0  0  0  0  0  0  0  0  0  0  0
   11.6228   -0.3331   23.5600 C   0  0  0  0  0  0  0  0  0  0  0  0
   11.5739   -1.3661   22.4288 C   0  0  0  0  0  0  0  0  0  0  0  0
    9.4272   -2.3132   21.6113 C   0  0  0  0  0  0  0  0  0  0  0  0
    7.8262   -0.0479   18.0297 N   0  0  0  0  0  0  0  0  0  0  0  0
    6.6111    0.8251   19.9187 N   0  0  0  0  0  0  0  0  0  0  0  0
    7.6787    1.0632   22.0216 N   0  0  0  0  0  0  0  0  0  0  0  0
   10.3584   -1.1803   21.6387 N   0  0  0  0  0  0  0  0  0  0  0  0
   10.9115    0.9936   20.9775 O   0  0  0  0  0  0  0  0  0  0  0  0
    7.5324   -3.4801   26.5064 H   0  0  0  0  0  0  0  0  0  0  0  0
    9.6081   -4.5656   25.6887 H   0  0  0  0  0  0  0  0  0  0  0  0
    6.3311   -1.8563   25.0650 H   0  0  0  0  0  0  0  0  0  0  0  0
   10.4841   -4.0322   23.4387 H   0  0  0  0  0  0  0  0  0  0  0  0
    7.1989   -1.3163   22.8136 H   0  0  0  0  0  0  0  0  0  0  0  0
    9.7916   -0.5618   18.3361 H   0  0  0  0  0  0  0  0  0  0  0  0
    5.8437    0.5510   18.0149 H   0  0  0  0  0  0  0  0  0  0  0  0
   15.0535   -0.5014   24.0596 H   0  0  0  0  0  0  0  0  0  0  0  0
   14.2092    0.6641   23.0428 H   0  0  0  0  0  0  0  0  0  0  0  0
   14.9595   -1.2192   21.6651 H   0  0  0  0  0  0  0  0  0  0  0  0
   14.1842   -2.3783   22.7425 H   0  0  0  0  0  0  0  0  0  0  0  0
   12.9329   -1.4060   24.8955 H   0  0  0  0  0  0  0  0  0  0  0  0
   12.9516    0.3415   25.1219 H   0  0  0  0  0  0  0  0  0  0  0  0
   12.7952   -0.2923   20.9936 H   0  0  0  0  0  0  0  0  0  0  0  0
   12.7870   -2.0421   20.7621 H   0  0  0  0  0  0  0  0  0  0  0  0
   10.7693   -0.4721   24.2346 H   0  0  0  0  0  0  0  0  0  0  0  0
   11.5454    0.6806   23.1460 H   0  0  0  0  0  0  0  0  0  0  0  0
   11.5114   -2.3672   22.8450 H   0  0  0  0  0  0  0  0  0  0  0  0
    9.9554   -3.1737   21.1862 H   0  0  0  0  0  0  0  0  0  0  0  0
    8.6124   -2.0602   20.9249 H   0  0  0  0  0  0  0  0  0  0  0  0
    8.4835    0.9205   22.5922 H   0  0  0  0  0  0  0  0  0  0  0  0
    6.8117    1.3762   22.4009 H   0  0  0  0  0  0  0  0  0  0  0  0
  1  2  1  0  0  0  0
  1  3  2  0  0  0  0
  2  4  2  0  0  0  0
  3  5  1  0  0  0  0
  4  9  1  0  0  0  0
  5  9  2  0  0  0  0
  6  8  1  0  0  0  0
  6 19  2  0  0  0  0
  7 19  1  0  0  0  0
  7 20  2  0  0  0  0
  8 10  2  0  0  0  0
  8 11  1  0  0  0  0
  9 18  1  0  0  0  0
 10 20  1  0  0  0  0
 10 21  1  0  0  0  0
 11 22  1  0  0  0  0
 11 23  2  0  0  0  0
 12 13  1  0  0  0  0
 12 14  1  0  0  0  0
 13 15  1  0  0  0  0
 14 16  1  0  0  0  0
 15 17  1  0  0  0  0
 16 17  1  0  0  0  0
 17 22  1  0  0  0  0
 18 22  1  0  0  0  0
  1 24  1  0  0  0  0
  2 25  1  0  0  0  0
  3 26  1  0  0  0  0
  4 27  1  0  0  0  0
  5 28  1  0  0  0  0
  6 29  1  0  0  0  0
  7 30  1  0  0  0  0
 12 31  1  0  0  0  0
 12 32  1  0  0  0  0
 13 33  1  0  0  0  0
 13 34  1  0  0  0  0
 14 35  1  0  0  0  0
 14 36  1  0  0  0  0
 15 37  1  0  0  0  0
 15 38  1  0  0  0  0
 16 39  1  0  0  0  0
 16 40  1  0  0  0  0
 17 41  1  0  0  0  0
 18 42  1  0  0  0  0
 18 43  1  0  0  0  0
 21 44  1  0  0  0  0
 21 45  1  0  0  0  0
M  END
> <Hybrid2>
-10.647787

> <fragments>
x0678

> <site>
active-noncovalent

$$$$
top_hits_only_mpro-211_1
  -OEChem-03302021283D

 46 49  0     1  0  0  0  0  0999 V2000
    9.8787   -0.6347   25.0047 C   0  0  0  0  0  0  0  0  0  0  0  0
    9.2370   -1.8430   25.2999 C   0  0  0  0  0  0  0  0  0  0  0  0
    9.9638   -2.8058   23.1906 C   0  0  0  0  0  0  0  0  0  0  0  0
    7.8242    8.1898   24.4331 C   0  0  0  0  0  0  0  0  0  0  0  0
    8.7305    8.1452   25.4695 C   0  0  0  0  0  0  0  0  0  0  0  0
    9.2626    6.9875   23.1235 C   0  0  0  0  0  0  0  0  0  0  0  0
   11.7736    0.0806   21.9620 C   0  0  0  0  0  0  0  0  0  0  0  0
   10.5741   -0.5056   23.7861 C   0  0  0  0  0  0  0  0  0  0  0  0
   11.3181    0.5425   23.1754 C   0  0  0  0  0  0  0  0  0  0  0  0
   10.6006   -1.5920   22.9089 C   0  0  0  0  0  0  0  0  0  0  0  0
    9.2802   -2.9106   24.4053 C   0  0  0  0  0  0  0  0  0  0  0  0
   10.1693    6.9436   24.1596 C   0  0  0  0  0  0  0  0  0  0  0  0
   12.4468    2.7285   22.7946 C   0  0  0  0  0  0  0  0  0  0  0  0
   10.2402    2.6209   24.0218 C   0  0  0  0  0  0  0  0  0  0  0  0
   12.6686    4.1348   23.3366 C   0  0  0  0  0  0  0  0  0  0  0  0
   10.4791    4.0279   24.5547 C   0  0  0  0  0  0  0  0  0  0  0  0
   11.5641    1.8938   23.7365 C   0  0  0  0  0  0  0  0  0  0  0  0
   12.3459    6.2709   25.2563 C   0  0  0  0  0  0  0  0  0  0  0  0
   11.4932    6.2346   23.9905 C   0  0  1  0  0  0  0  0  0  0  0  0
    8.0739    7.6117   23.2415 N   0  0  0  0  0  0  0  0  0  0  0  0
    9.9193    7.5213   25.3513 N   0  0  0  0  0  0  0  0  0  0  0  0
   11.3355   -1.2076   21.8101 N   0  0  0  0  0  0  0  0  0  0  0  0
   11.3333    4.7975   23.5760 N   0  3  0  0  0  0  0  0  0  0  0  0
    8.6568   -4.0563   24.7135 F   0  0  0  0  0  0  0  0  0  0  0  0
    9.8350    0.1884   25.7123 H   0  0  0  0  0  0  0  0  0  0  0  0
    8.6997   -1.9485   26.2386 H   0  0  0  0  0  0  0  0  0  0  0  0
    9.9970   -3.6376   22.4952 H   0  0  0  0  0  0  0  0  0  0  0  0
    6.8692    8.6915   24.5288 H   0  0  0  0  0  0  0  0  0  0  0  0
    8.5291    8.6099   26.4268 H   0  0  0  0  0  0  0  0  0  0  0  0
    9.4564    6.5250   22.1628 H   0  0  0  0  0  0  0  0  0  0  0  0
   12.3698    0.5511   21.1925 H   0  0  0  0  0  0  0  0  0  0  0  0
   11.9898    2.7869   21.7976 H   0  0  0  0  0  0  0  0  0  0  0  0
   13.4188    2.2377   22.6600 H   0  0  0  0  0  0  0  0  0  0  0  0
    9.6510    2.0540   24.7535 H   0  0  0  0  0  0  0  0  0  0  0  0
    9.6314    2.6725   23.1088 H   0  0  0  0  0  0  0  0  0  0  0  0
   13.2116    4.1249   24.2882 H   0  0  0  0  0  0  0  0  0  0  0  0
   13.2139    4.7459   22.6096 H   0  0  0  0  0  0  0  0  0  0  0  0
    9.5311    4.5660   24.6583 H   0  0  0  0  0  0  0  0  0  0  0  0
   11.0019    4.0170   25.5175 H   0  0  0  0  0  0  0  0  0  0  0  0
   12.0984    1.7609   24.6865 H   0  0  0  0  0  0  0  0  0  0  0  0
   11.8309    5.8214   26.1126 H   0  0  0  0  0  0  0  0  0  0  0  0
   13.2846    5.7251   25.1096 H   0  0  0  0  0  0  0  0  0  0  0  0
   12.5988    7.3026   25.5253 H   0  0  0  0  0  0  0  0  0  0  0  0
   12.0602    6.6963   23.1737 H   0  0  0  0  0  0  0  0  0  0  0  0
   11.5244   -1.7923   21.0077 H   0  0  0  0  0  0  0  0  0  0  0  0
   10.8324    4.8093   22.6768 H   0  0  0  0  0  0  0  0  0  0  0  0
  1  2  2  0  0  0  0
  1  8  1  0  0  0  0
  2 11  1  0  0  0  0
  3 10  1  0  0  0  0
  3 11  2  0  0  0  0
  4  5  2  0  0  0  0
  4 20  1  0  0  0  0
  5 21  1  0  0  0  0
  6 12  1  0  0  0  0
  6 20  2  0  0  0  0
  7  9  2  0  0  0  0
  7 22  1  0  0  0  0
  8  9  1  0  0  0  0
  8 10  2  0  0  0  0
  9 17  1  0  0  0  0
 10 22  1  0  0  0  0
 11 24  1  0  0  0  0
 12 19  1  0  0  0  0
 12 21  2  0  0  0  0
 13 15  1  0  0  0  0
 13 17  1  0  0  0  0
 14 16  1  0  0  0  0
 14 17  1  0  0  0  0
 15 23  1  0  0  0  0
 16 23  1  0  0  0  0
 18 19  1  0  0  0  0
 19 23  1  0  0  0  0
  1 25  1  0  0  0  0
  2 26  1  0  0  0  0
  3 27  1  0  0  0  0
  4 28  1  0  0  0  0
  5 29  1  0  0  0  0
  6 30  1  0  0  0  0
  7 31  1  0  0  0  0
 13 32  1  0  0  0  0
 13 33  1  0  0  0  0
 14 34  1  0  0  0  0
 14 35  1  0  0  0  0
 15 36  1  0  0  0  0
 15 37  1  0  0  0  0
 16 38  1  0  0  0  0
 16 39  1  0  0  0  0
 17 40  1  0  0  0  0
 18 41  1  0  0  0  0
 18 42  1  0  0  0  0
 18 43  1  0  0  0  0
 19 44  1  0  0  0  0
 22 45  1  0  0  0  0
 23 46  1  0  0  0  0
M  CHG  1  23   1
M  END
> <Hybrid2>
-10.631691

> <fragments>
x0104

> <site>
active-noncovalent

$$$$
top_hits_only_mpro-155_1
  -OEChem-03302021283D

 39 41  0     0  0  0  0  0  0999 V2000
    5.3599    0.9641   18.9998 C   0  0  0  0  0  0  0  0  0  0  0  0
    6.0431    0.6530   17.8352 C   0  0  0  0  0  0  0  0  0  0  0  0
    7.9874    0.2287   18.9833 C   0  0  0  0  0  0  0  0  0  0  0  0
   13.9231   -1.3181   22.5539 C   0  0  0  0  0  0  0  0  0  0  0  0
    6.0561    0.8940   20.2013 C   0  0  0  0  0  0  0  0  0  0  0  0
    7.3953    0.5202   20.2016 C   0  0  0  0  0  0  0  0  0  0  0  0
   12.0399   -0.6683   23.9081 C   0  0  0  0  0  0  0  0  0  0  0  0
   13.2691   -0.2017   24.3247 C   0  0  0  0  0  0  0  0  0  0  0  0
   10.7021   -0.4733   24.4812 C   0  0  0  0  0  0  0  0  0  0  0  0
    9.5825    0.7082   21.3065 C   0  0  0  0  0  0  0  0  0  0  0  0
    7.7083   -0.4861   22.4461 C   0  0  0  0  0  0  0  0  0  0  0  0
   10.1264    1.1148   22.6749 C   0  0  0  0  0  0  0  0  0  0  0  0
    8.2845   -0.0516   23.7925 C   0  0  0  0  0  0  0  0  0  0  0  0
    5.3442    1.2231   21.4723 C   0  0  0  0  0  0  0  0  0  0  0  0
   13.5229    0.6459   25.5082 C   0  0  0  0  0  0  0  0  0  0  0  0
    7.3436    0.2857   17.7959 N   0  0  0  0  0  0  0  0  0  0  0  0
   14.3501   -0.5737   23.5496 N   0  0  0  0  0  0  0  0  0  0  0  0
    8.1371    0.4376   21.3858 N   0  0  0  0  0  0  0  0  0  0  0  0
    9.7326    0.1436   23.6903 N   0  0  0  0  0  0  0  0  0  0  0  0
   10.5413   -0.8665   25.6355 O   0  0  0  0  0  0  0  0  0  0  0  0
   12.2333   -1.6105   22.4882 S   0  0  0  0  0  0  0  0  0  0  0  0
    4.3145    1.2514   18.9656 H   0  0  0  0  0  0  0  0  0  0  0  0
    5.5455    0.6923   16.8718 H   0  0  0  0  0  0  0  0  0  0  0  0
    9.0295   -0.0697   18.9189 H   0  0  0  0  0  0  0  0  0  0  0  0
   14.5952   -1.7273   21.8122 H   0  0  0  0  0  0  0  0  0  0  0  0
    9.7700    1.5045   20.5774 H   0  0  0  0  0  0  0  0  0  0  0  0
   10.1064   -0.1899   20.9630 H   0  0  0  0  0  0  0  0  0  0  0  0
    8.0474   -1.4965   22.1960 H   0  0  0  0  0  0  0  0  0  0  0  0
    6.6160   -0.5175   22.5187 H   0  0  0  0  0  0  0  0  0  0  0  0
   11.2154    1.1518   22.6582 H   0  0  0  0  0  0  0  0  0  0  0  0
    9.7527    2.1029   22.9333 H   0  0  0  0  0  0  0  0  0  0  0  0
    7.8502    0.8946   24.1116 H   0  0  0  0  0  0  0  0  0  0  0  0
    8.0651   -0.7990   24.5509 H   0  0  0  0  0  0  0  0  0  0  0  0
    4.8887    0.3210   21.8970 H   0  0  0  0  0  0  0  0  0  0  0  0
    6.0320    1.6494   22.2129 H   0  0  0  0  0  0  0  0  0  0  0  0
    4.5555    1.9669   21.3037 H   0  0  0  0  0  0  0  0  0  0  0  0
   13.7151    0.0306   26.4017 H   0  0  0  0  0  0  0  0  0  0  0  0
   14.3926    1.3080   25.3621 H   0  0  0  0  0  0  0  0  0  0  0  0
   12.6691    1.3072   25.7322 H   0  0  0  0  0  0  0  0  0  0  0  0
  1  2  2  0  0  0  0
  1  5  1  0  0  0  0
  2 16  1  0  0  0  0
  3  6  1  0  0  0  0
  3 16  2  0  0  0  0
  4 17  2  0  0  0  0
  4 21  1  0  0  0  0
  5  6  2  0  0  0  0
  5 14  1  0  0  0  0
  6 18  1  0  0  0  0
  7  8  2  0  0  0  0
  7  9  1  0  0  0  0
  7 21  1  0  0  0  0
  8 15  1  0  0  0  0
  8 17  1  0  0  0  0
  9 19  1  0  0  0  0
  9 20  2  0  0  0  0
 10 12  1  0  0  0  0
 10 18  1  0  0  0  0
 11 13  1  0  0  0  0
 11 18  1  0  0  0  0
 12 19  1  0  0  0  0
 13 19  1  0  0  0  0
  1 22  1  0  0  0  0
  2 23  1  0  0  0  0
  3 24  1  0  0  0  0
  4 25  1  0  0  0  0
 10 26  1  0  0  0  0
 10 27  1  0  0  0  0
 11 28  1  0  0  0  0
 11 29  1  0  0  0  0
 12 30  1  0  0  0  0
 12 31  1  0  0  0  0
 13 32  1  0  0  0  0
 13 33  1  0  0  0  0
 14 34  1  0  0  0  0
 14 35  1  0  0  0  0
 14 36  1  0  0  0  0
 15 37  1  0  0  0  0
 15 38  1  0  0  0  0
 15 39  1  0  0  0  0
M  END
> <Hybrid2>
-10.630528

> <fragments>
x0678

> <site>
active-noncovalent

$$$$
top_hits_only_mpro-408_1
  -OEChem-03302021283D

 45 47  0     1  0  0  0  0  0999 V2000
    7.0170    0.3791   22.7010 C   0  0  0  0  0  0  0  0  0  0  0  0
    5.6318    1.4495   18.9346 C   0  0  0  0  0  0  0  0  0  0  0  0
    5.9436    1.2280   22.5128 C   0  0  0  0  0  0  0  0  0  0  0  0
    6.2780    0.9296   17.8212 C   0  0  0  0  0  0  0  0  0  0  0  0
    7.7600   -0.2336   19.1182 C   0  0  0  0  0  0  0  0  0  0  0  0
    7.1773    0.2355   20.2980 C   0  0  0  0  0  0  0  0  0  0  0  0
    7.6427   -0.1243   21.5703 C   0  0  0  0  0  0  0  0  0  0  0  0
    6.0771    1.1061   20.2038 C   0  0  0  0  0  0  0  0  0  0  0  0
    8.7768   -1.0200   21.7662 C   0  0  0  0  0  0  0  0  0  0  0  0
   10.9753    1.5686   22.9285 C   0  0  0  0  0  0  0  0  0  0  0  0
   12.3127    0.8490   23.1084 C   0  0  0  0  0  0  0  0  0  0  0  0
   10.2013    1.0156   21.7347 C   0  0  0  0  0  0  0  0  0  0  0  0
   11.3249   -1.1684   21.9654 C   0  0  0  0  0  0  0  0  0  0  0  0
   12.1176   -0.6741   23.1822 C   0  0  1  0  0  0  0  0  0  0  0  0
   13.2376   -2.9072   23.3868 C   0  0  0  0  0  0  0  0  0  0  0  0
   14.2202   -0.9022   24.5273 C   0  0  0  0  0  0  0  0  0  0  0  0
   14.3037   -1.0892   22.0284 C   0  0  0  0  0  0  0  0  0  0  0  0
   13.4623   -1.3892   23.2807 C   0  0  0  0  0  0  0  0  0  0  0  0
    7.3341    0.0940   17.8805 N   0  0  0  0  0  0  0  0  0  0  0  0
    5.4680    1.5965   21.3002 N   0  0  0  0  0  0  0  0  0  0  0  0
   10.0548   -0.4368   21.8457 N   0  0  0  0  0  0  0  0  0  0  0  0
    8.5972   -2.2361   21.8533 O   0  0  0  0  0  0  0  0  0  0  0  0
    7.3482    0.1238   23.7018 H   0  0  0  0  0  0  0  0  0  0  0  0
    4.7865    2.1190   18.8039 H   0  0  0  0  0  0  0  0  0  0  0  0
    5.4156    1.6521   23.3606 H   0  0  0  0  0  0  0  0  0  0  0  0
    5.9464    1.1852   16.8200 H   0  0  0  0  0  0  0  0  0  0  0  0
    8.6121   -0.9068   19.1233 H   0  0  0  0  0  0  0  0  0  0  0  0
   10.3731    1.4581   23.8388 H   0  0  0  0  0  0  0  0  0  0  0  0
   11.1515    2.6411   22.7894 H   0  0  0  0  0  0  0  0  0  0  0  0
   12.9735    1.1016   22.2693 H   0  0  0  0  0  0  0  0  0  0  0  0
   12.8020    1.2106   24.0205 H   0  0  0  0  0  0  0  0  0  0  0  0
    9.2212    1.4990   21.6700 H   0  0  0  0  0  0  0  0  0  0  0  0
   10.7344    1.2229   20.7994 H   0  0  0  0  0  0  0  0  0  0  0  0
   11.8848   -0.9972   21.0375 H   0  0  0  0  0  0  0  0  0  0  0  0
   11.1556   -2.2456   22.0447 H   0  0  0  0  0  0  0  0  0  0  0  0
   11.5425   -0.9090   24.0905 H   0  0  0  0  0  0  0  0  0  0  0  0
   14.1872   -3.4491   23.4590 H   0  0  0  0  0  0  0  0  0  0  0  0
   12.7024   -3.2881   22.5096 H   0  0  0  0  0  0  0  0  0  0  0  0
   12.6437   -3.1558   24.2734 H   0  0  0  0  0  0  0  0  0  0  0  0
   15.1905   -1.4032   24.6185 H   0  0  0  0  0  0  0  0  0  0  0  0
   14.4054    0.1767   24.4785 H   0  0  0  0  0  0  0  0  0  0  0  0
   13.6545   -1.1021   25.4442 H   0  0  0  0  0  0  0  0  0  0  0  0
   15.2754   -1.5933   22.0774 H   0  0  0  0  0  0  0  0  0  0  0  0
   14.4905   -0.0151   21.9187 H   0  0  0  0  0  0  0  0  0  0  0  0
   13.7949   -1.4336   21.1209 H   0  0  0  0  0  0  0  0  0  0  0  0
  1  3  2  0  0  0  0
  1  7  1  0  0  0  0
  2  4  2  0  0  0  0
  2  8  1  0  0  0  0
  3 20  1  0  0  0  0
  4 19  1  0  0  0  0
  5  6  1  0  0  0  0
  5 19  2  0  0  0  0
  6  7  2  0  0  0  0
  6  8  1  0  0  0  0
  7  9  1  0  0  0  0
  8 20  2  0  0  0  0
  9 21  1  0  0  0  0
  9 22  2  0  0  0  0
 10 11  1  0  0  0  0
 10 12  1  0  0  0  0
 11 14  1  0  0  0  0
 12 21  1  0  0  0  0
 13 14  1  0  0  0  0
 13 21  1  0  0  0  0
 14 18  1  0  0  0  0
 15 18  1  0  0  0  0
 16 18  1  0  0  0  0
 17 18  1  0  0  0  0
  1 23  1  0  0  0  0
  2 24  1  0  0  0  0
  3 25  1  0  0  0  0
  4 26  1  0  0  0  0
  5 27  1  0  0  0  0
 10 28  1  0  0  0  0
 10 29  1  0  0  0  0
 11 30  1  0  0  0  0
 11 31  1  0  0  0  0
 12 32  1  0  0  0  0
 12 33  1  0  0  0  0
 13 34  1  0  0  0  0
 13 35  1  0  0  0  0
 14 36  1  0  0  0  0
 15 37  1  0  0  0  0
 15 38  1  0  0  0  0
 15 39  1  0  0  0  0
 16 40  1  0  0  0  0
 16 41  1  0  0  0  0
 16 42  1  0  0  0  0
 17 43  1  0  0  0  0
 17 44  1  0  0  0  0
 17 45  1  0  0  0  0
M  END
> <Hybrid2>
-10.625257

> <fragments>
x0678

> <site>
active-noncovalent

$$$$
top_hits_only_mpro-177_1
  -OEChem-03302021283D

 39 43  0     0  0  0  0  0  0999 V2000
    8.1641   -1.3625   21.8041 C   0  0  0  0  0  0  0  0  0  0  0  0
    7.7788   -0.4229   20.8522 C   0  0  0  0  0  0  0  0  0  0  0  0
    6.9941   -4.6276   23.1272 C   0  0  0  0  0  0  0  0  0  0  0  0
    5.8762   -1.7992   20.2952 C   0  0  0  0  0  0  0  0  0  0  0  0
    5.8729   -4.7640   22.3341 C   0  0  0  0  0  0  0  0  0  0  0  0
    7.5152   -0.7664   26.3815 C   0  0  0  0  0  0  0  0  0  0  0  0
    7.4024   -2.5265   22.0032 C   0  0  0  0  0  0  0  0  0  0  0  0
    9.7120   -0.7449   24.8601 C   0  0  0  0  0  0  0  0  0  0  0  0
   10.9281   -0.4446   24.1591 C   0  0  0  0  0  0  0  0  0  0  0  0
    6.2384   -2.7554   21.2400 C   0  0  0  0  0  0  0  0  0  0  0  0
    7.7673   -3.4886   22.9546 C   0  0  0  0  0  0  0  0  0  0  0  0
    6.6333   -0.6419   20.0970 C   0  0  0  0  0  0  0  0  0  0  0  0
   11.3957    0.8202   24.4657 C   0  0  0  0  0  0  0  0  0  0  0  0
    9.3209    0.3250   25.6565 C   0  0  0  0  0  0  0  0  0  0  0  0
    8.8798   -1.8702   24.8928 C   0  0  0  0  0  0  0  0  0  0  0  0
   11.6668   -1.3548   23.2225 C   0  0  0  0  0  0  0  0  0  0  0  0
   12.6272    1.4473   23.8905 C   0  0  0  0  0  0  0  0  0  0  0  0
   12.7016   -0.5940   22.3793 C   0  0  0  0  0  0  0  0  0  0  0  0
   13.5198    0.3831   23.2346 C   0  0  0  0  0  0  0  0  0  0  0  0
    5.4860   -3.8597   21.4054 N   0  0  0  0  0  0  0  0  0  0  0  0
    8.2270    0.3725   26.4416 N   0  0  0  0  0  0  0  0  0  0  0  0
    7.7709   -1.8762   25.6627 N   0  0  0  0  0  0  0  0  0  0  0  0
   10.3917    1.6466   25.5616 S   0  0  0  0  0  0  0  0  0  0  0  0
    9.2076   -3.3664   24.0099 S   0  0  0  0  0  0  0  0  0  0  0  0
    6.1467    0.5127   18.9170 Cl  0  0  0  0  0  0  0  0  0  0  0  0
    9.0656   -1.1513   22.3718 H   0  0  0  0  0  0  0  0  0  0  0  0
    8.3797    0.4715   20.7115 H   0  0  0  0  0  0  0  0  0  0  0  0
    7.2394   -5.3976   23.8515 H   0  0  0  0  0  0  0  0  0  0  0  0
    4.9797   -1.9610   19.6977 H   0  0  0  0  0  0  0  0  0  0  0  0
    5.2301   -5.6335   22.4244 H   0  0  0  0  0  0  0  0  0  0  0  0
    6.6187   -0.7961   26.9913 H   0  0  0  0  0  0  0  0  0  0  0  0
   12.1736   -2.1328   23.8058 H   0  0  0  0  0  0  0  0  0  0  0  0
   10.9806   -1.8375   22.5215 H   0  0  0  0  0  0  0  0  0  0  0  0
   12.3293    2.1853   23.1353 H   0  0  0  0  0  0  0  0  0  0  0  0
   13.1986    1.9755   24.6623 H   0  0  0  0  0  0  0  0  0  0  0  0
   13.3689   -1.3104   21.8870 H   0  0  0  0  0  0  0  0  0  0  0  0
   12.1909   -0.0337   21.5854 H   0  0  0  0  0  0  0  0  0  0  0  0
   14.2810    0.8741   22.6178 H   0  0  0  0  0  0  0  0  0  0  0  0
   14.0519   -0.1803   24.0118 H   0  0  0  0  0  0  0  0  0  0  0  0
  1  2  2  0  0  0  0
  1  7  1  0  0  0  0
  2 12  1  0  0  0  0
  3  5  2  0  0  0  0
  3 11  1  0  0  0  0
  4 10  1  0  0  0  0
  4 12  2  0  0  0  0
  5 20  1  0  0  0  0
  6 21  1  0  0  0  0
  6 22  2  0  0  0  0
  7 10  1  0  0  0  0
  7 11  2  0  0  0  0
  8  9  1  0  0  0  0
  8 14  1  0  0  0  0
  8 15  2  0  0  0  0
  9 13  2  0  0  0  0
  9 16  1  0  0  0  0
 10 20  2  0  0  0  0
 11 24  1  0  0  0  0
 12 25  1  0  0  0  0
 13 17  1  0  0  0  0
 13 23  1  0  0  0  0
 14 21  2  0  0  0  0
 14 23  1  0  0  0  0
 15 22  1  0  0  0  0
 15 24  1  0  0  0  0
 16 18  1  0  0  0  0
 17 19  1  0  0  0  0
 18 19  1  0  0  0  0
  1 26  1  0  0  0  0
  2 27  1  0  0  0  0
  3 28  1  0  0  0  0
  4 29  1  0  0  0  0
  5 30  1  0  0  0  0
  6 31  1  0  0  0  0
 16 32  1  0  0  0  0
 16 33  1  0  0  0  0
 17 34  1  0  0  0  0
 17 35  1  0  0  0  0
 18 36  1  0  0  0  0
 18 37  1  0  0  0  0
 19 38  1  0  0  0  0
 19 39  1  0  0  0  0
M  END
> <Hybrid2>
-10.605602

> <fragments>
x0830

> <site>
active-covalent

$$$$
top_hits_only_mpro-204_1
  -OEChem-03302021283D

 43 46  0     1  0  0  0  0  0999 V2000
   11.9406   -0.4300   23.8644 C   0  0  0  0  0  0  0  0  0  0  0  0
   13.1996   -2.2410   22.8783 C   0  0  0  0  0  0  0  0  0  0  0  0
   13.1254    0.1404   24.3295 C   0  0  0  0  0  0  0  0  0  0  0  0
   14.3845   -1.6705   23.3434 C   0  0  0  0  0  0  0  0  0  0  0  0
    4.7640    1.5591   19.4564 C   0  0  0  0  0  0  0  0  0  0  0  0
    6.0144    0.9280   19.5004 C   0  0  0  0  0  0  0  0  0  0  0  0
   11.9777   -1.6208   23.1388 C   0  0  0  0  0  0  0  0  0  0  0  0
   14.3473   -0.4798   24.0690 C   0  0  0  0  0  0  0  0  0  0  0  0
    6.3728    0.9365   20.8277 C   0  0  0  0  0  0  0  0  0  0  0  0
    6.9053    0.3347   18.5369 C   0  0  0  0  0  0  0  0  0  0  0  0
    8.3031   -0.0902   20.5338 C   0  0  0  0  0  0  0  0  0  0  0  0
    8.6325   -3.3354   23.0630 C   0  0  0  0  0  0  0  0  0  0  0  0
   10.0436   -3.2214   23.6050 C   0  0  0  0  0  0  0  0  0  0  0  0
    8.2601   -1.9053   22.7220 C   0  0  0  0  0  0  0  0  0  0  0  0
   10.6972   -2.2377   22.6349 C   0  0  1  0  0  0  0  0  0  0  0  0
    5.2541    1.8051   22.9035 C   0  0  0  0  0  0  0  0  0  0  0  0
    9.5958   -0.6880   20.9542 C   0  0  0  0  0  0  0  0  0  0  0  0
    4.3508    1.9447   20.6704 N   0  0  0  0  0  0  0  0  0  0  0  0
    7.4944    0.4476   21.4064 N   0  0  0  0  0  0  0  0  0  0  0  0
    5.3517    1.5516   21.4854 N   0  0  0  0  0  0  0  0  0  0  0  0
    8.0598   -0.1654   19.1539 N   0  0  0  0  0  0  0  0  0  0  0  0
    9.5720   -1.2363   22.3483 N   0  3  1  0  0  0  0  0  0  0  0  0
    6.6704    0.2827   17.3357 O   0  0  0  0  0  0  0  0  0  0  0  0
   15.4854    0.0694   24.5134 F   0  0  0  0  0  0  0  0  0  0  0  0
   10.9932    0.0601   24.0730 H   0  0  0  0  0  0  0  0  0  0  0  0
   13.2383   -3.1688   22.3135 H   0  0  0  0  0  0  0  0  0  0  0  0
   13.0967    1.0677   24.8938 H   0  0  0  0  0  0  0  0  0  0  0  0
   15.3359   -2.1532   23.1412 H   0  0  0  0  0  0  0  0  0  0  0  0
    4.1322    1.7581   18.6028 H   0  0  0  0  0  0  0  0  0  0  0  0
    8.6217   -3.9560   22.1591 H   0  0  0  0  0  0  0  0  0  0  0  0
    7.9453   -3.7782   23.7896 H   0  0  0  0  0  0  0  0  0  0  0  0
   10.0298   -2.8291   24.6300 H   0  0  0  0  0  0  0  0  0  0  0  0
   10.5556   -4.1891   23.6197 H   0  0  0  0  0  0  0  0  0  0  0  0
    7.5533   -1.8340   21.8900 H   0  0  0  0  0  0  0  0  0  0  0  0
    7.8734   -1.3649   23.5919 H   0  0  0  0  0  0  0  0  0  0  0  0
   10.9067   -2.7521   21.6687 H   0  0  0  0  0  0  0  0  0  0  0  0
    5.6998    2.7832   23.1028 H   0  0  0  0  0  0  0  0  0  0  0  0
    4.2025    1.7958   23.2036 H   0  0  0  0  0  0  0  0  0  0  0  0
    5.7888    1.0219   23.4482 H   0  0  0  0  0  0  0  0  0  0  0  0
   10.3909    0.0625   20.9322 H   0  0  0  0  0  0  0  0  0  0  0  0
    9.8663   -1.5185   20.2966 H   0  0  0  0  0  0  0  0  0  0  0  0
    8.7619   -0.6085   18.5677 H   0  0  0  0  0  0  0  0  0  0  0  0
    9.6899   -0.4396   22.9883 H   0  0  0  0  0  0  0  0  0  0  0  0
  1  3  2  0  0  0  0
  1  7  1  0  0  0  0
  2  4  1  0  0  0  0
  2  7  2  0  0  0  0
  3  8  1  0  0  0  0
  4  8  2  0  0  0  0
  5  6  1  0  0  0  0
  5 18  2  0  0  0  0
  6  9  2  0  0  0  0
  6 10  1  0  0  0  0
  7 15  1  0  0  0  0
  8 24  1  0  0  0  0
  9 19  1  0  0  0  0
  9 20  1  0  0  0  0
 10 21  1  0  0  0  0
 10 23  2  0  0  0  0
 11 17  1  0  0  0  0
 11 19  2  0  0  0  0
 11 21  1  0  0  0  0
 12 13  1  0  0  0  0
 12 14  1  0  0  0  0
 13 15  1  0  0  0  0
 14 22  1  0  0  0  0
 15 22  1  0  0  0  0
 16 20  1  0  0  0  0
 17 22  1  0  0  0  0
 18 20  1  0  0  0  0
  1 25  1  0  0  0  0
  2 26  1  0  0  0  0
  3 27  1  0  0  0  0
  4 28  1  0  0  0  0
  5 29  1  0  0  0  0
 12 30  1  0  0  0  0
 12 31  1  0  0  0  0
 13 32  1  0  0  0  0
 13 33  1  0  0  0  0
 14 34  1  0  0  0  0
 14 35  1  0  0  0  0
 15 36  1  0  0  0  0
 16 37  1  0  0  0  0
 16 38  1  0  0  0  0
 16 39  1  0  0  0  0
 17 40  1  0  0  0  0
 17 41  1  0  0  0  0
 21 42  1  0  0  0  0
 22 43  1  0  0  0  0
M  CHG  1  22   1
M  END
> <Hybrid2>
-10.580943

> <fragments>
x0678

> <site>
active-noncovalent

$$$$
top_hits_only_mpro-263_1
  -OEChem-03302021283D

 54 58  0     1  0  0  0  0  0999 V2000
   10.8501    5.0822   24.0977 C   0  0  0  0  0  0  0  0  0  0  0  0
   12.0249    5.6966   24.2889 C   0  0  0  0  0  0  0  0  0  0  0  0
   13.2898    3.9326   23.3056 C   0  0  0  0  0  0  0  0  0  0  0  0
   12.2061    3.1882   23.0419 C   0  0  0  0  0  0  0  0  0  0  0  0
   10.8679    3.7396   23.4378 C   0  0  0  0  0  0  0  0  0  0  0  0
   10.7002   -0.6579   22.0652 C   0  0  0  0  0  0  0  0  0  0  0  0
   13.3360    1.0992   22.5563 C   0  0  0  0  0  0  0  0  0  0  0  0
   14.0041   -1.9206   23.1806 C   0  0  0  0  0  0  0  0  0  0  0  0
   14.3584   -1.0686   21.9648 C   0  0  0  0  0  0  0  0  0  0  0  0
    7.6502   -0.5431   25.1230 C   0  0  0  0  0  0  0  0  0  0  0  0
    7.3311   -2.6930   23.8707 C   0  0  0  0  0  0  0  0  0  0  0  0
    9.1061   -2.5209   25.6341 C   0  0  0  0  0  0  0  0  0  0  0  0
    8.2937   -0.6931   22.7037 C   0  0  0  0  0  0  0  0  0  0  0  0
   10.0717   -0.5207   24.4701 C   0  0  0  0  0  0  0  0  0  0  0  0
    9.7524   -2.6728   23.2151 C   0  0  0  0  0  0  0  0  0  0  0  0
   12.5125   -2.1626   23.0110 C   0  0  0  0  0  0  0  0  0  0  0  0
   13.1284   -0.1869   21.7792 C   0  0  1  0  0  0  0  0  0  0  0  0
    7.2795   -1.1589   23.7628 C   0  0  0  0  0  0  0  0  0  0  0  0
    9.0644   -0.9858   25.5363 C   0  0  0  0  0  0  0  0  0  0  0  0
    8.7441   -3.1476   24.2763 C   0  0  0  0  0  0  0  0  0  0  0  0
    9.7157   -1.1361   23.1021 C   0  0  0  0  0  0  0  0  0  0  0  0
   13.2239    5.1575   23.9126 N   0  0  0  0  0  0  0  0  0  0  0  0
   12.0249   -0.9816   22.3052 N   0  0  0  0  0  0  0  0  0  0  0  0
   12.2614    1.9667   22.4375 N   0  0  0  0  0  0  0  0  0  0  0  0
    9.8243    3.1277   23.2359 O   0  0  0  0  0  0  0  0  0  0  0  0
   10.3125   -0.0171   21.0867 O   0  0  0  0  0  0  0  0  0  0  0  0
   14.3718    1.3107   23.1830 O   0  0  0  0  0  0  0  0  0  0  0  0
    9.9041    5.5136   24.3980 H   0  0  0  0  0  0  0  0  0  0  0  0
   12.1034    6.6690   24.7586 H   0  0  0  0  0  0  0  0  0  0  0  0
   14.2983    3.6229   23.0588 H   0  0  0  0  0  0  0  0  0  0  0  0
   14.5770   -2.8516   23.2131 H   0  0  0  0  0  0  0  0  0  0  0  0
   14.1972   -1.3657   24.1060 H   0  0  0  0  0  0  0  0  0  0  0  0
   15.2815   -0.5035   22.1263 H   0  0  0  0  0  0  0  0  0  0  0  0
   14.4929   -1.7140   21.0885 H   0  0  0  0  0  0  0  0  0  0  0  0
    7.6028    0.5512   25.0639 H   0  0  0  0  0  0  0  0  0  0  0  0
    6.9240   -0.8533   25.8842 H   0  0  0  0  0  0  0  0  0  0  0  0
    6.5994   -3.0407   24.6102 H   0  0  0  0  0  0  0  0  0  0  0  0
    7.0534   -3.1454   22.9109 H   0  0  0  0  0  0  0  0  0  0  0  0
   10.1059   -2.8495   25.9436 H   0  0  0  0  0  0  0  0  0  0  0  0
    8.4054   -2.8658   26.4043 H   0  0  0  0  0  0  0  0  0  0  0  0
    8.0264   -1.1058   21.7220 H   0  0  0  0  0  0  0  0  0  0  0  0
    8.2480    0.3991   22.5996 H   0  0  0  0  0  0  0  0  0  0  0  0
   10.0700    0.5756   24.4093 H   0  0  0  0  0  0  0  0  0  0  0  0
   11.0890   -0.8094   24.7651 H   0  0  0  0  0  0  0  0  0  0  0  0
   10.7619   -3.0130   23.4809 H   0  0  0  0  0  0  0  0  0  0  0  0
    9.5185   -3.1331   22.2460 H   0  0  0  0  0  0  0  0  0  0  0  0
   12.3196   -3.0368   22.3797 H   0  0  0  0  0  0  0  0  0  0  0  0
   11.9954   -2.2900   23.9658 H   0  0  0  0  0  0  0  0  0  0  0  0
   12.9737    0.0749   20.7180 H   0  0  0  0  0  0  0  0  0  0  0  0
    6.2712   -0.8417   23.4749 H   0  0  0  0  0  0  0  0  0  0  0  0
    9.3218   -0.5458   26.5060 H   0  0  0  0  0  0  0  0  0  0  0  0
    8.7740   -4.2401   24.3527 H   0  0  0  0  0  0  0  0  0  0  0  0
   14.0767    5.6741   24.0851 H   0  0  0  0  0  0  0  0  0  0  0  0
   11.4709    1.6765   21.8685 H   0  0  0  0  0  0  0  0  0  0  0  0
  1  2  2  0  0  0  0
  1  5  1  0  0  0  0
  2 22  1  0  0  0  0
  3  4  2  0  0  0  0
  3 22  1  0  0  0  0
  4  5  1  0  0  0  0
  4 24  1  0  0  0  0
  5 25  2  0  0  0  0
  6 21  1  0  0  0  0
  6 23  1  0  0  0  0
  6 26  2  0  0  0  0
  7 17  1  0  0  0  0
  7 24  1  0  0  0  0
  7 27  2  0  0  0  0
  8  9  1  0  0  0  0
  8 16  1  0  0  0  0
  9 17  1  0  0  0  0
 10 18  1  0  0  0  0
 10 19  1  0  0  0  0
 11 18  1  0  0  0  0
 11 20  1  0  0  0  0
 12 19  1  0  0  0  0
 12 20  1  0  0  0  0
 13 18  1  0  0  0  0
 13 21  1  0  0  0  0
 14 19  1  0  0  0  0
 14 21  1  0  0  0  0
 15 20  1  0  0  0  0
 15 21  1  0  0  0  0
 16 23  1  0  0  0  0
 17 23  1  0  0  0  0
  1 28  1  0  0  0  0
  2 29  1  0  0  0  0
  3 30  1  0  0  0  0
  8 31  1  0  0  0  0
  8 32  1  0  0  0  0
  9 33  1  0  0  0  0
  9 34  1  0  0  0  0
 10 35  1  0  0  0  0
 10 36  1  0  0  0  0
 11 37  1  0  0  0  0
 11 38  1  0  0  0  0
 12 39  1  0  0  0  0
 12 40  1  0  0  0  0
 13 41  1  0  0  0  0
 13 42  1  0  0  0  0
 14 43  1  0  0  0  0
 14 44  1  0  0  0  0
 15 45  1  0  0  0  0
 15 46  1  0  0  0  0
 16 47  1  0  0  0  0
 16 48  1  0  0  0  0
 17 49  1  0  0  0  0
 18 50  1  0  0  0  0
 19 51  1  0  0  0  0
 20 52  1  0  0  0  0
 22 53  1  0  0  0  0
 24 54  1  0  0  0  0
M  END
> <Hybrid2>
-10.579328

> <fragments>
x0195

> <site>
active-noncovalent

$$$$
top_hits_only_mpro-436_1
  -OEChem-03302021283D

 47 50  0     1  0  0  0  0  0999 V2000
    5.5257   -0.4059   19.2894 C   0  0  0  0  0  0  0  0  0  0  0  0
    6.3678   -0.3444   20.3941 C   0  0  0  0  0  0  0  0  0  0  0  0
    6.0616   -0.1041   18.0479 C   0  0  0  0  0  0  0  0  0  0  0  0
    8.1398    0.2949   18.9424 C   0  0  0  0  0  0  0  0  0  0  0  0
    7.7012    0.0120   20.2259 C   0  0  0  0  0  0  0  0  0  0  0  0
   10.2694    0.2210   23.4467 C   0  0  0  0  0  0  0  0  0  0  0  0
   10.4243    1.0172   22.3303 C   0  0  0  0  0  0  0  0  0  0  0  0
    9.1992   -0.6495   23.4153 C   0  0  0  0  0  0  0  0  0  0  0  0
    8.5976    0.0849   21.3500 C   0  0  0  0  0  0  0  0  0  0  0  0
    7.2277   -5.0639   25.5134 C   0  0  0  0  0  0  0  0  0  0  0  0
    7.7325   -1.4057   25.2741 C   0  0  0  0  0  0  0  0  0  0  0  0
    6.8462   -2.6045   24.9194 C   0  0  0  0  0  0  0  0  0  0  0  0
    9.7707   -2.7078   24.7192 C   0  0  0  0  0  0  0  0  0  0  0  0
    9.4707   -5.2623   24.7632 C   0  0  0  0  0  0  0  0  0  0  0  0
    8.9189   -3.9098   24.3174 C   0  0  1  0  0  0  0  0  0  0  0  0
   11.2017    0.3037   24.6045 C   0  0  0  0  0  0  0  0  0  0  0  0
   11.5471    1.9986   22.2498 C   0  0  0  0  0  0  0  0  0  0  0  0
    8.3942   -7.2998   25.8192 C   0  0  0  0  0  0  0  0  0  0  0  0
    7.3516    0.2460   17.8451 N   0  0  0  0  0  0  0  0  0  0  0  0
    9.6040    0.9752   21.2600 N   0  0  0  0  0  0  0  0  0  0  0  0
    8.3399   -0.7442   22.3794 N   0  0  0  0  0  0  0  0  0  0  0  0
    8.9907   -1.4787   24.5129 N   0  0  1  0  0  0  0  0  0  0  0  0
    7.6145   -3.8374   24.9541 N   0  0  0  0  0  0  0  0  0  0  0  0
    8.3236   -5.9333   25.3507 N   0  0  0  0  0  0  0  0  0  0  0  0
    6.1569   -5.3210   26.0480 O   0  0  0  0  0  0  0  0  0  0  0  0
    4.4830   -0.6820   19.3959 H   0  0  0  0  0  0  0  0  0  0  0  0
    5.9714   -0.5765   21.3795 H   0  0  0  0  0  0  0  0  0  0  0  0
    5.4461   -0.1370   17.1546 H   0  0  0  0  0  0  0  0  0  0  0  0
    9.1695    0.5782   18.7435 H   0  0  0  0  0  0  0  0  0  0  0  0
    7.1948   -0.4879   25.0370 H   0  0  0  0  0  0  0  0  0  0  0  0
    7.9491   -1.4166   26.3430 H   0  0  0  0  0  0  0  0  0  0  0  0
    5.9977   -2.6812   25.6035 H   0  0  0  0  0  0  0  0  0  0  0  0
    6.4545   -2.4979   23.9031 H   0  0  0  0  0  0  0  0  0  0  0  0
   10.0690   -2.7788   25.7694 H   0  0  0  0  0  0  0  0  0  0  0  0
   10.6773   -2.6938   24.1084 H   0  0  0  0  0  0  0  0  0  0  0  0
    9.8379   -5.8529   23.9184 H   0  0  0  0  0  0  0  0  0  0  0  0
   10.2493   -5.1804   25.5278 H   0  0  0  0  0  0  0  0  0  0  0  0
    8.7451   -3.9088   23.2366 H   0  0  0  0  0  0  0  0  0  0  0  0
   10.8454    1.0436   25.3331 H   0  0  0  0  0  0  0  0  0  0  0  0
   11.2959   -0.6653   25.1136 H   0  0  0  0  0  0  0  0  0  0  0  0
   12.2129    0.5919   24.2853 H   0  0  0  0  0  0  0  0  0  0  0  0
   12.4299    1.5299   21.7999 H   0  0  0  0  0  0  0  0  0  0  0  0
   11.2685    2.8711   21.6459 H   0  0  0  0  0  0  0  0  0  0  0  0
   11.8186    2.3727   23.2448 H   0  0  0  0  0  0  0  0  0  0  0  0
    8.0173   -7.9759   25.0376 H   0  0  0  0  0  0  0  0  0  0  0  0
    9.4389   -7.5542   26.0513 H   0  0  0  0  0  0  0  0  0  0  0  0
    7.7802   -7.4088   26.7254 H   0  0  0  0  0  0  0  0  0  0  0  0
  1  2  2  0  0  0  0
  1  3  1  0  0  0  0
  2  5  1  0  0  0  0
  3 19  2  0  0  0  0
  4  5  2  0  0  0  0
  4 19  1  0  0  0  0
  5  9  1  0  0  0  0
  6  7  1  0  0  0  0
  6  8  2  0  0  0  0
  6 16  1  0  0  0  0
  7 17  1  0  0  0  0
  7 20  2  0  0  0  0
  8 21  1  0  0  0  0
  8 22  1  0  0  0  0
  9 20  1  0  0  0  0
  9 21  2  0  0  0  0
 10 23  1  0  0  0  0
 10 24  1  0  0  0  0
 10 25  2  0  0  0  0
 11 12  1  0  0  0  0
 11 22  1  0  0  0  0
 12 23  1  0  0  0  0
 13 15  1  0  0  0  0
 13 22  1  0  0  0  0
 14 15  1  0  0  0  0
 14 24  1  0  0  0  0
 15 23  1  0  0  0  0
 18 24  1  0  0  0  0
  1 26  1  0  0  0  0
  2 27  1  0  0  0  0
  3 28  1  0  0  0  0
  4 29  1  0  0  0  0
 11 30  1  0  0  0  0
 11 31  1  0  0  0  0
 12 32  1  0  0  0  0
 12 33  1  0  0  0  0
 13 34  1  0  0  0  0
 13 35  1  0  0  0  0
 14 36  1  0  0  0  0
 14 37  1  0  0  0  0
 15 38  1  0  0  0  0
 16 39  1  0  0  0  0
 16 40  1  0  0  0  0
 16 41  1  0  0  0  0
 17 42  1  0  0  0  0
 17 43  1  0  0  0  0
 17 44  1  0  0  0  0
 18 45  1  0  0  0  0
 18 46  1  0  0  0  0
 18 47  1  0  0  0  0
M  END
> <Hybrid2>
-10.570132

> <fragments>
x1077

> <site>
active-noncovalent

$$$$
top_hits_only_mpro-303_1
  -OEChem-03302021283D

 35 37  0     0  0  0  0  0  0999 V2000
   13.5942   -0.5810   23.2760 C   0  0  0  0  0  0  0  0  0  0  0  0
   13.2025   -1.4694   22.2718 C   0  0  0  0  0  0  0  0  0  0  0  0
   12.6603   -0.0520   24.1758 C   0  0  0  0  0  0  0  0  0  0  0  0
   11.8672   -1.8612   22.1297 C   0  0  0  0  0  0  0  0  0  0  0  0
   11.3144   -0.4347   24.0475 C   0  0  0  0  0  0  0  0  0  0  0  0
   10.9546   -1.3218   23.0368 C   0  0  0  0  0  0  0  0  0  0  0  0
    9.2067   -0.7117   24.2481 C   0  0  0  0  0  0  0  0  0  0  0  0
    5.0369    1.3202   18.9921 C   0  0  0  0  0  0  0  0  0  0  0  0
    5.7083    1.1821   17.8412 C   0  0  0  0  0  0  0  0  0  0  0  0
    7.3501   -0.2634   18.7864 C   0  0  0  0  0  0  0  0  0  0  0  0
    6.7980   -0.2313   20.0080 C   0  0  0  0  0  0  0  0  0  0  0  0
    5.5592    0.5952   20.1921 C   0  0  0  0  0  0  0  0  0  0  0  0
    8.4425   -1.7000   21.0234 C   0  0  0  0  0  0  0  0  0  0  0  0
    8.7484   -2.3157   22.3730 C   0  0  0  0  0  0  0  0  0  0  0  0
    7.7985   -0.6453   24.6899 C   0  0  0  0  0  0  0  0  0  0  0  0
   10.2156   -0.0669   24.7897 N   0  0  0  0  0  0  0  0  0  0  0  0
    9.6011   -1.4810   23.1889 N   0  0  0  0  0  0  0  0  0  0  0  0
    6.8355    0.4179   17.7169 N   0  0  0  0  0  0  0  0  0  0  0  0
    7.3032   -0.9067   21.0797 N   0  0  0  0  0  0  0  0  0  0  0  0
    4.9879    0.6829   21.2738 O   0  0  0  0  0  0  0  0  0  0  0  0
    9.1286   -1.8950   20.0231 O   0  0  0  0  0  0  0  0  0  0  0  0
    7.5857    0.1789   25.7655 F   0  0  0  0  0  0  0  0  0  0  0  0
    6.9308   -0.1886   23.7308 F   0  0  0  0  0  0  0  0  0  0  0  0
    7.2952   -1.8613   25.0716 F   0  0  0  0  0  0  0  0  0  0  0  0
   14.6396   -0.2963   23.3621 H   0  0  0  0  0  0  0  0  0  0  0  0
   13.9491   -1.8640   21.5868 H   0  0  0  0  0  0  0  0  0  0  0  0
   12.9752    0.6369   24.9528 H   0  0  0  0  0  0  0  0  0  0  0  0
   11.5641   -2.5515   21.3504 H   0  0  0  0  0  0  0  0  0  0  0  0
    4.1454    1.9267   19.0847 H   0  0  0  0  0  0  0  0  0  0  0  0
    5.4004    1.6712   16.9256 H   0  0  0  0  0  0  0  0  0  0  0  0
    8.2435   -0.8301   18.5524 H   0  0  0  0  0  0  0  0  0  0  0  0
    9.2483   -3.2812   22.2347 H   0  0  0  0  0  0  0  0  0  0  0  0
    7.8166   -2.4893   22.9233 H   0  0  0  0  0  0  0  0  0  0  0  0
    7.2958    0.3546   16.8180 H   0  0  0  0  0  0  0  0  0  0  0  0
    6.8190   -0.8250   21.9699 H   0  0  0  0  0  0  0  0  0  0  0  0
  1  2  1  0  0  0  0
  1  3  2  0  0  0  0
  2  4  2  0  0  0  0
  3  5  1  0  0  0  0
  4  6  1  0  0  0  0
  5  6  2  0  0  0  0
  5 16  1  0  0  0  0
  6 17  1  0  0  0  0
  7 15  1  0  0  0  0
  7 16  2  0  0  0  0
  7 17  1  0  0  0  0
  8  9  2  0  0  0  0
  8 12  1  0  0  0  0
  9 18  1  0  0  0  0
 10 11  2  0  0  0  0
 10 18  1  0  0  0  0
 11 12  1  0  0  0  0
 11 19  1  0  0  0  0
 12 20  2  0  0  0  0
 13 14  1  0  0  0  0
 13 19  1  0  0  0  0
 13 21  2  0  0  0  0
 14 17  1  0  0  0  0
 15 22  1  0  0  0  0
 15 23  1  0  0  0  0
 15 24  1  0  0  0  0
  1 25  1  0  0  0  0
  2 26  1  0  0  0  0
  3 27  1  0  0  0  0
  4 28  1  0  0  0  0
  8 29  1  0  0  0  0
  9 30  1  0  0  0  0
 10 31  1  0  0  0  0
 14 32  1  0  0  0  0
 14 33  1  0  0  0  0
 18 34  1  0  0  0  0
 19 35  1  0  0  0  0
M  END
> <Hybrid2>
-10.561329

> <fragments>
x1093

> <site>
active-noncovalent

$$$$
top_hits_only_mpro-382_1
  -OEChem-03302021283D

 32 35  0     0  0  0  0  0  0999 V2000
    7.9683   -0.2387   20.7870 C   0  0  0  0  0  0  0  0  0  0  0  0
    7.8600   -0.1581   19.3865 C   0  0  0  0  0  0  0  0  0  0  0  0
    8.1461   -4.8011   23.6119 C   0  0  0  0  0  0  0  0  0  0  0  0
    5.7263    0.7416   21.2462 C   0  0  0  0  0  0  0  0  0  0  0  0
    8.2575   -5.5671   24.7527 C   0  0  0  0  0  0  0  0  0  0  0  0
    6.9478    0.1916   21.6764 C   0  0  0  0  0  0  0  0  0  0  0  0
    8.2165   -3.4023   23.8912 C   0  0  0  0  0  0  0  0  0  0  0  0
    6.6470    0.3884   18.9280 C   0  0  0  0  0  0  0  0  0  0  0  0
    5.5909    0.8340   19.8484 C   0  0  0  0  0  0  0  0  0  0  0  0
    8.3861   -3.1736   25.2426 C   0  0  0  0  0  0  0  0  0  0  0  0
    7.1799    0.0567   23.1225 C   0  0  0  0  0  0  0  0  0  0  0  0
    8.1352   -2.2957   22.8857 C   0  0  0  0  0  0  0  0  0  0  0  0
    8.4856   -1.8173   25.8596 C   0  0  0  0  0  0  0  0  0  0  0  0
    8.8198   -0.7871   24.7740 C   0  0  0  0  0  0  0  0  0  0  0  0
    6.2244    0.6043   17.6714 N   0  0  0  0  0  0  0  0  0  0  0  0
    4.5680    1.3031   19.1151 N   0  0  0  0  0  0  0  0  0  0  0  0
    5.0147    1.1347   17.8679 N   0  0  0  0  0  0  0  0  0  0  0  0
    7.9979   -0.9883   23.5676 N   0  0  0  0  0  0  0  0  0  0  0  0
    6.6343    0.8921   23.8422 O   0  0  0  0  0  0  0  0  0  0  0  0
    8.4470   -4.6053   26.1570 S   0  0  0  0  0  0  0  0  0  0  0  0
    8.8869   -0.6548   21.2013 H   0  0  0  0  0  0  0  0  0  0  0  0
    8.6497   -0.4922   18.7255 H   0  0  0  0  0  0  0  0  0  0  0  0
    8.0198   -5.2250   22.6238 H   0  0  0  0  0  0  0  0  0  0  0  0
    4.9537    1.0667   21.9323 H   0  0  0  0  0  0  0  0  0  0  0  0
    8.2362   -6.6452   24.8279 H   0  0  0  0  0  0  0  0  0  0  0  0
    9.0581   -2.2563   22.2961 H   0  0  0  0  0  0  0  0  0  0  0  0
    7.2975   -2.4712   22.2052 H   0  0  0  0  0  0  0  0  0  0  0  0
    7.5275   -1.5617   26.3279 H   0  0  0  0  0  0  0  0  0  0  0  0
    9.2577   -1.7918   26.6364 H   0  0  0  0  0  0  0  0  0  0  0  0
    8.6907    0.2252   25.1709 H   0  0  0  0  0  0  0  0  0  0  0  0
    9.8675   -0.8833   24.4620 H   0  0  0  0  0  0  0  0  0  0  0  0
    4.4408    1.4072   17.0782 H   0  0  0  0  0  0  0  0  0  0  0  0
  1  2  2  0  0  0  0
  1  6  1  0  0  0  0
  2  8  1  0  0  0  0
  3  5  2  0  0  0  0
  3  7  1  0  0  0  0
  4  6  2  0  0  0  0
  4  9  1  0  0  0  0
  5 20  1  0  0  0  0
  6 11  1  0  0  0  0
  7 10  2  0  0  0  0
  7 12  1  0  0  0  0
  8  9  1  0  0  0  0
  8 15  2  0  0  0  0
  9 16  2  0  0  0  0
 10 13  1  0  0  0  0
 10 20  1  0  0  0  0
 11 18  1  0  0  0  0
 11 19  2  0  0  0  0
 12 18  1  0  0  0  0
 13 14  1  0  0  0  0
 14 18  1  0  0  0  0
 15 17  1  0  0  0  0
 16 17  1  0  0  0  0
  1 21  1  0  0  0  0
  2 22  1  0  0  0  0
  3 23  1  0  0  0  0
  4 24  1  0  0  0  0
  5 25  1  0  0  0  0
 12 26  1  0  0  0  0
 12 27  1  0  0  0  0
 13 28  1  0  0  0  0
 13 29  1  0  0  0  0
 14 30  1  0  0  0  0
 14 31  1  0  0  0  0
 17 32  1  0  0  0  0
M  END
> <Hybrid2>
-10.483147

> <fragments>
x0107

> <site>
active-noncovalent

$$$$
top_hits_only_mpro-52_1
  -OEChem-03302021283D

 41 43  0     1  0  0  0  0  0999 V2000
    5.7400    1.0257   20.2730 C   0  0  0  0  0  0  0  0  0  0  0  0
    6.7610   -5.9197   21.8204 C   0  0  0  0  0  0  0  0  0  0  0  0
    7.7281    0.4466   19.1031 C   0  0  0  0  0  0  0  0  0  0  0  0
    5.7637    0.6364   17.9270 C   0  0  0  0  0  0  0  0  0  0  0  0
    5.6942   -5.1598   22.2387 C   0  0  0  0  0  0  0  0  0  0  0  0
    7.1054    0.7642   20.2994 C   0  0  0  0  0  0  0  0  0  0  0  0
    5.0489    0.9627   19.0682 C   0  0  0  0  0  0  0  0  0  0  0  0
    7.5674   -3.9990   22.2580 C   0  0  0  0  0  0  0  0  0  0  0  0
    7.8646    0.8251   21.5568 C   0  0  0  0  0  0  0  0  0  0  0  0
    9.7566   -0.3609   22.7680 C   0  0  0  0  0  0  0  0  0  0  0  0
    8.0261   -1.6312   21.5514 C   0  0  0  0  0  0  0  0  0  0  0  0
    9.5951   -1.1660   24.0493 C   0  0  0  0  0  0  0  0  0  0  0  0
    8.4712   -2.7972   22.4601 C   0  0  1  0  0  0  0  0  0  0  0  0
    8.7971   -2.6969   26.3103 C   0  0  0  0  0  0  0  0  0  0  0  0
    8.7814   -3.3353   24.9387 C   0  0  0  0  0  0  0  0  0  0  0  0
    7.0902    0.3758   17.9133 N   0  0  0  0  0  0  0  0  0  0  0  0
    7.9242   -5.1914   21.8349 N   0  0  0  0  0  0  0  0  0  0  0  0
    6.2264   -3.9321   22.5159 N   0  0  0  0  0  0  0  0  0  0  0  0
    8.5203   -0.3292   21.9938 N   0  0  0  0  0  0  0  0  0  0  0  0
    8.5566   -2.2680   23.8964 N   0  3  1  0  0  0  0  0  0  0  0  0
    7.8808    1.9110   22.1355 O   0  0  0  0  0  0  0  0  0  0  0  0
    3.7353    1.2100   19.0126 F   0  0  0  0  0  0  0  0  0  0  0  0
    5.2056    1.2787   21.1848 H   0  0  0  0  0  0  0  0  0  0  0  0
    6.7510   -6.9544   21.5110 H   0  0  0  0  0  0  0  0  0  0  0  0
    8.7922    0.2349   19.0596 H   0  0  0  0  0  0  0  0  0  0  0  0
    5.2713    0.5733   16.9622 H   0  0  0  0  0  0  0  0  0  0  0  0
    4.6419   -5.3714   22.3601 H   0  0  0  0  0  0  0  0  0  0  0  0
   10.0355    0.6797   22.9948 H   0  0  0  0  0  0  0  0  0  0  0  0
   10.5755   -0.7841   22.1688 H   0  0  0  0  0  0  0  0  0  0  0  0
    8.3378   -1.8391   20.5116 H   0  0  0  0  0  0  0  0  0  0  0  0
    6.9204   -1.5655   21.5128 H   0  0  0  0  0  0  0  0  0  0  0  0
   10.5415   -1.6465   24.3484 H   0  0  0  0  0  0  0  0  0  0  0  0
    9.2568   -0.5151   24.8709 H   0  0  0  0  0  0  0  0  0  0  0  0
    9.5083   -3.0971   22.1855 H   0  0  0  0  0  0  0  0  0  0  0  0
    9.6195   -1.9787   26.3835 H   0  0  0  0  0  0  0  0  0  0  0  0
    7.8622   -2.1624   26.5088 H   0  0  0  0  0  0  0  0  0  0  0  0
    8.9330   -3.4483   27.0952 H   0  0  0  0  0  0  0  0  0  0  0  0
    7.9676   -4.0587   24.8384 H   0  0  0  0  0  0  0  0  0  0  0  0
    9.7355   -3.8161   24.7055 H   0  0  0  0  0  0  0  0  0  0  0  0
    5.7193   -3.1224   22.8480 H   0  0  0  0  0  0  0  0  0  0  0  0
    7.6412   -1.8327   24.1162 H   0  0  0  0  0  0  0  0  0  0  0  0
  1  6  2  0  0  0  0
  1  7  1  0  0  0  0
  2  5  2  0  0  0  0
  2 17  1  0  0  0  0
  3  6  1  0  0  0  0
  3 16  2  0  0  0  0
  4  7  2  0  0  0  0
  4 16  1  0  0  0  0
  5 18  1  0  0  0  0
  6  9  1  0  0  0  0
  7 22  1  0  0  0  0
  8 13  1  0  0  0  0
  8 17  2  0  0  0  0
  8 18  1  0  0  0  0
  9 19  1  0  0  0  0
  9 21  2  0  0  0  0
 10 12  1  0  0  0  0
 10 19  1  0  0  0  0
 11 13  1  0  0  0  0
 11 19  1  0  0  0  0
 12 20  1  0  0  0  0
 13 20  1  0  0  0  0
 14 15  1  0  0  0  0
 15 20  1  0  0  0  0
  1 23  1  0  0  0  0
  2 24  1  0  0  0  0
  3 25  1  0  0  0  0
  4 26  1  0  0  0  0
  5 27  1  0  0  0  0
 10 28  1  0  0  0  0
 10 29  1  0  0  0  0
 11 30  1  0  0  0  0
 11 31  1  0  0  0  0
 12 32  1  0  0  0  0
 12 33  1  0  0  0  0
 13 34  1  0  0  0  0
 14 35  1  0  0  0  0
 14 36  1  0  0  0  0
 14 37  1  0  0  0  0
 15 38  1  0  0  0  0
 15 39  1  0  0  0  0
 18 40  1  0  0  0  0
 20 41  1  0  0  0  0
M  CHG  1  20   1
M  END
> <Hybrid2>
-10.479536

> <fragments>
x0107

> <site>
active-noncovalent

$$$$
top_hits_only_mpro-394_1
  -OEChem-03302021283D

 40 42  0     1  0  0  0  0  0999 V2000
    5.5151    1.0691   19.3498 C   0  0  0  0  0  0  0  0  0  0  0  0
    6.2563    0.6089   20.4324 C   0  0  0  0  0  0  0  0  0  0  0  0
    6.0589    0.9259   18.0835 C   0  0  0  0  0  0  0  0  0  0  0  0
    7.9561   -0.0692   18.9135 C   0  0  0  0  0  0  0  0  0  0  0  0
    7.5012    0.0277   20.2186 C   0  0  0  0  0  0  0  0  0  0  0  0
   11.6660   -2.4961   23.3413 C   0  0  0  0  0  0  0  0  0  0  0  0
    9.5341   -2.0361   23.3901 C   0  0  0  0  0  0  0  0  0  0  0  0
    8.3160   -0.4728   21.3557 C   0  0  0  0  0  0  0  0  0  0  0  0
   13.1283   -2.3876   23.5712 C   0  0  0  0  0  0  0  0  0  0  0  0
   13.7164   -1.0925   23.0136 C   0  0  0  0  0  0  0  0  0  0  0  0
   13.4143    0.1458   23.8621 C   0  0  0  0  0  0  0  0  0  0  0  0
   11.9457    0.5769   23.8784 C   0  0  0  0  0  0  0  0  0  0  0  0
   11.0196   -0.4081   24.5869 C   0  0  0  0  0  0  0  0  0  0  0  0
    7.2584   -2.2099   24.4778 C   0  0  0  0  0  0  0  0  0  0  0  0
    8.2582   -1.3528   23.6748 C   0  0  2  0  0  0  0  0  0  0  0  0
    7.2647    0.3666   17.8366 N   0  0  0  0  0  0  0  0  0  0  0  0
   11.0302   -3.4384   22.6730 N   0  0  0  0  0  0  0  0  0  0  0  0
    9.6823   -3.1465   22.7045 N   0  0  0  0  0  0  0  0  0  0  0  0
   10.7503   -1.5948   23.8087 N   0  0  0  0  0  0  0  0  0  0  0  0
    7.6009   -0.8623   22.4677 N   0  0  0  0  0  0  0  0  0  0  0  0
    9.5398   -0.4919   21.2542 O   0  0  0  0  0  0  0  0  0  0  0  0
    4.5420    1.5251   19.4923 H   0  0  0  0  0  0  0  0  0  0  0  0
    5.8553    0.7087   21.4374 H   0  0  0  0  0  0  0  0  0  0  0  0
    5.5207    1.2691   17.2062 H   0  0  0  0  0  0  0  0  0  0  0  0
    8.9198   -0.5139   18.6838 H   0  0  0  0  0  0  0  0  0  0  0  0
   13.3486   -2.4830   24.6407 H   0  0  0  0  0  0  0  0  0  0  0  0
   13.6179   -3.2344   23.0742 H   0  0  0  0  0  0  0  0  0  0  0  0
   14.8069   -1.2073   22.9742 H   0  0  0  0  0  0  0  0  0  0  0  0
   13.3813   -0.9277   21.9818 H   0  0  0  0  0  0  0  0  0  0  0  0
   13.7644   -0.0146   24.8892 H   0  0  0  0  0  0  0  0  0  0  0  0
   14.0050    0.9798   23.4623 H   0  0  0  0  0  0  0  0  0  0  0  0
   11.8884    1.5365   24.4073 H   0  0  0  0  0  0  0  0  0  0  0  0
   11.6000    0.7592   22.8534 H   0  0  0  0  0  0  0  0  0  0  0  0
   11.4389   -0.7338   25.5458 H   0  0  0  0  0  0  0  0  0  0  0  0
   10.0684    0.0893   24.8017 H   0  0  0  0  0  0  0  0  0  0  0  0
    7.0421   -3.1425   23.9452 H   0  0  0  0  0  0  0  0  0  0  0  0
    7.6472   -2.4677   25.4693 H   0  0  0  0  0  0  0  0  0  0  0  0
    6.3111   -1.6809   24.6313 H   0  0  0  0  0  0  0  0  0  0  0  0
    8.4241   -0.4341   24.2755 H   0  0  0  0  0  0  0  0  0  0  0  0
    6.5983   -0.7634   22.5129 H   0  0  0  0  0  0  0  0  0  0  0  0
  1  2  2  0  0  0  0
  1  3  1  0  0  0  0
  2  5  1  0  0  0  0
  3 16  2  0  0  0  0
  4  5  2  0  0  0  0
  4 16  1  0  0  0  0
  5  8  1  0  0  0  0
  6  9  1  0  0  0  0
  6 17  2  0  0  0  0
  6 19  1  0  0  0  0
  7 15  1  0  0  0  0
  7 18  2  0  0  0  0
  7 19  1  0  0  0  0
  8 20  1  0  0  0  0
  8 21  2  0  0  0  0
  9 10  1  0  0  0  0
 10 11  1  0  0  0  0
 11 12  1  0  0  0  0
 12 13  1  0  0  0  0
 13 19  1  0  0  0  0
 14 15  1  0  0  0  0
 15 20  1  0  0  0  0
 17 18  1  0  0  0  0
  1 22  1  0  0  0  0
  2 23  1  0  0  0  0
  3 24  1  0  0  0  0
  4 25  1  0  0  0  0
  9 26  1  0  0  0  0
  9 27  1  0  0  0  0
 10 28  1  0  0  0  0
 10 29  1  0  0  0  0
 11 30  1  0  0  0  0
 11 31  1  0  0  0  0
 12 32  1  0  0  0  0
 12 33  1  0  0  0  0
 13 34  1  0  0  0  0
 13 35  1  0  0  0  0
 14 36  1  0  0  0  0
 14 37  1  0  0  0  0
 14 38  1  0  0  0  0
 15 39  1  0  0  0  0
 20 40  1  0  0  0  0
M  END
> <Hybrid2>
-10.478313

> <fragments>
x0678

> <site>
active-noncovalent

$$$$
top_hits_only_mpro-81_1
  -OEChem-03302021283D

 38 39  0     1  0  0  0  0  0999 V2000
    6.0077    0.8664   17.6881 C   0  0  0  0  0  0  0  0  0  0  0  0
    4.9884    1.2886   18.5343 C   0  0  0  0  0  0  0  0  0  0  0  0
    7.1702    0.3249   18.2255 C   0  0  0  0  0  0  0  0  0  0  0  0
    5.1790    1.1487   19.8995 C   0  0  0  0  0  0  0  0  0  0  0  0
    7.2632    0.2282   19.6045 C   0  0  0  0  0  0  0  0  0  0  0  0
   11.8562    0.4642   23.9893 C   0  0  0  0  0  0  0  0  0  0  0  0
   10.7092   -0.1626   23.6911 C   0  0  0  0  0  0  0  0  0  0  0  0
    4.1470    1.5723   20.8298 C   0  0  0  0  0  0  0  0  0  0  0  0
    8.7709   -0.5232   21.4868 C   0  0  0  0  0  0  0  0  0  0  0  0
   13.1971   -0.0014   23.5063 C   0  0  0  0  0  0  0  0  0  0  0  0
   13.1102   -1.0480   22.3927 C   0  0  0  0  0  0  0  0  0  0  0  0
   12.0204   -2.0807   22.6806 C   0  0  0  0  0  0  0  0  0  0  0  0
   10.6482   -1.4206   22.8736 C   0  0  2  0  0  0  0  0  0  0  0  0
    3.5847    3.0738   22.7588 C   0  0  0  0  0  0  0  0  0  0  0  0
    6.2942    0.6275   20.4584 N   0  0  0  0  0  0  0  0  0  0  0  0
    8.4494   -0.3246   20.1412 N   0  0  0  0  0  0  0  0  0  0  0  0
    4.4922    2.5647   21.7558 N   0  0  0  0  0  0  0  0  0  0  0  0
   10.0420   -1.0975   21.6039 N   0  0  0  0  0  0  0  0  0  0  0  0
    3.0176    1.0497   20.8033 O   0  0  0  0  0  0  0  0  0  0  0  0
    8.0680   -0.2479   22.4562 O   0  0  0  0  0  0  0  0  0  0  0  0
    5.8969    0.9592   16.6120 H   0  0  0  0  0  0  0  0  0  0  0  0
    4.0765    1.7119   18.1265 H   0  0  0  0  0  0  0  0  0  0  0  0
    7.9704   -0.0074   17.5721 H   0  0  0  0  0  0  0  0  0  0  0  0
   11.8273    1.3543   24.6112 H   0  0  0  0  0  0  0  0  0  0  0  0
    9.7746    0.2404   24.0725 H   0  0  0  0  0  0  0  0  0  0  0  0
   13.7713    0.8582   23.1424 H   0  0  0  0  0  0  0  0  0  0  0  0
   13.7465   -0.4153   24.3603 H   0  0  0  0  0  0  0  0  0  0  0  0
   12.9034   -0.5504   21.4368 H   0  0  0  0  0  0  0  0  0  0  0  0
   14.0793   -1.5477   22.2825 H   0  0  0  0  0  0  0  0  0  0  0  0
   11.9812   -2.8249   21.8759 H   0  0  0  0  0  0  0  0  0  0  0  0
   12.2857   -2.6287   23.5945 H   0  0  0  0  0  0  0  0  0  0  0  0
    9.9799   -2.1389   23.3604 H   0  0  0  0  0  0  0  0  0  0  0  0
    3.0853    3.9767   22.3777 H   0  0  0  0  0  0  0  0  0  0  0  0
    2.8300    2.3085   22.9926 H   0  0  0  0  0  0  0  0  0  0  0  0
    4.1482    3.3235   23.6699 H   0  0  0  0  0  0  0  0  0  0  0  0
    9.1496   -0.6114   19.4618 H   0  0  0  0  0  0  0  0  0  0  0  0
    5.4452    2.9127   21.7762 H   0  0  0  0  0  0  0  0  0  0  0  0
   10.5630   -1.2966   20.7546 H   0  0  0  0  0  0  0  0  0  0  0  0
  1  2  2  0  0  0  0
  1  3  1  0  0  0  0
  2  4  1  0  0  0  0
  3  5  2  0  0  0  0
  4  8  1  0  0  0  0
  4 15  2  0  0  0  0
  5 15  1  0  0  0  0
  5 16  1  0  0  0  0
  6  7  2  0  0  0  0
  6 10  1  0  0  0  0
  7 13  1  0  0  0  0
  8 17  1  0  0  0  0
  8 19  2  0  0  0  0
  9 16  1  0  0  0  0
  9 18  1  0  0  0  0
  9 20  2  0  0  0  0
 10 11  1  0  0  0  0
 11 12  1  0  0  0  0
 12 13  1  0  0  0  0
 13 18  1  0  0  0  0
 14 17  1  0  0  0  0
  1 21  1  0  0  0  0
  2 22  1  0  0  0  0
  3 23  1  0  0  0  0
  6 24  1  0  0  0  0
  7 25  1  0  0  0  0
 10 26  1  0  0  0  0
 10 27  1  0  0  0  0
 11 28  1  0  0  0  0
 11 29  1  0  0  0  0
 12 30  1  0  0  0  0
 12 31  1  0  0  0  0
 13 32  1  0  0  0  0
 14 33  1  0  0  0  0
 14 34  1  0  0  0  0
 14 35  1  0  0  0  0
 16 36  1  0  0  0  0
 17 37  1  0  0  0  0
 18 38  1  0  0  0  0
M  END
> <Hybrid2>
-10.474281

> <fragments>
x1093

> <site>
active-noncovalent

$$$$
top_hits_only_mpro-17_1
  -OEChem-03302021283D

 46 49  0     0  0  0  0  0  0999 V2000
   14.4239   -1.8819   22.0612 C   0  0  0  0  0  0  0  0  0  0  0  0
   14.7578   -1.1833   23.2214 C   0  0  0  0  0  0  0  0  0  0  0  0
   13.3251   -1.4842   21.2995 C   0  0  0  0  0  0  0  0  0  0  0  0
   13.6320    4.5415   21.6447 C   0  0  0  0  0  0  0  0  0  0  0  0
   12.7905    5.5457   22.1151 C   0  0  0  0  0  0  0  0  0  0  0  0
    7.4825   -1.7186   24.8016 C   0  0  0  0  0  0  0  0  0  0  0  0
   13.9928   -0.0871   23.6199 C   0  0  0  0  0  0  0  0  0  0  0  0
   12.5601   -0.3880   21.6980 C   0  0  0  0  0  0  0  0  0  0  0  0
   13.4148    3.2111   22.0148 C   0  0  0  0  0  0  0  0  0  0  0  0
   11.7298    5.2218   22.9564 C   0  0  0  0  0  0  0  0  0  0  0  0
    6.9931   -1.5472   23.5067 C   0  0  0  0  0  0  0  0  0  0  0  0
    8.7415   -1.2243   25.1424 C   0  0  0  0  0  0  0  0  0  0  0  0
    9.0219   -0.3875   22.8934 C   0  0  0  0  0  0  0  0  0  0  0  0
   12.8940    0.3106   22.8582 C   0  0  0  0  0  0  0  0  0  0  0  0
   12.3504    2.8653   22.8623 C   0  0  0  0  0  0  0  0  0  0  0  0
   11.5162    3.8890   23.3239 C   0  0  0  0  0  0  0  0  0  0  0  0
    7.7628   -0.8817   22.5526 C   0  0  0  0  0  0  0  0  0  0  0  0
    9.5113   -0.5588   24.1884 C   0  0  0  0  0  0  0  0  0  0  0  0
   12.0909    1.4608   23.2761 C   0  0  0  0  0  0  0  0  0  0  0  0
   11.0428    1.2068   24.0970 C   0  0  0  0  0  0  0  0  0  0  0  0
   10.1517    2.3050   24.5889 C   0  0  0  0  0  0  0  0  0  0  0  0
    7.8945   -0.0749   20.1744 C   0  0  0  0  0  0  0  0  0  0  0  0
    7.0295   -0.1011   18.9392 C   0  0  0  0  0  0  0  0  0  0  0  0
   10.4445    3.5811   24.1706 N   0  0  0  0  0  0  0  0  0  0  0  0
    7.2727   -0.7103   21.2575 N   0  0  0  0  0  0  0  0  0  0  0  0
    9.2067    2.0453   25.3329 O   0  0  0  0  0  0  0  0  0  0  0  0
    9.0007    0.4549   20.1553 O   0  0  0  0  0  0  0  0  0  0  0  0
   10.7423   -0.0758   24.5215 O   0  0  0  0  0  0  0  0  0  0  0  0
   15.0202   -2.7346   21.7502 H   0  0  0  0  0  0  0  0  0  0  0  0
   15.6140   -1.4921   23.8141 H   0  0  0  0  0  0  0  0  0  0  0  0
   13.0657   -2.0273   20.3954 H   0  0  0  0  0  0  0  0  0  0  0  0
   14.4612    4.7914   20.9889 H   0  0  0  0  0  0  0  0  0  0  0  0
   12.9610    6.5784   21.8260 H   0  0  0  0  0  0  0  0  0  0  0  0
    6.8825   -2.2360   25.5444 H   0  0  0  0  0  0  0  0  0  0  0  0
   14.2655    0.4474   24.5269 H   0  0  0  0  0  0  0  0  0  0  0  0
   11.7066   -0.0903   21.0936 H   0  0  0  0  0  0  0  0  0  0  0  0
   14.0933    2.4540   21.6291 H   0  0  0  0  0  0  0  0  0  0  0  0
   11.0763    6.0110   23.3188 H   0  0  0  0  0  0  0  0  0  0  0  0
    6.0108   -1.9370   23.2522 H   0  0  0  0  0  0  0  0  0  0  0  0
    9.1165   -1.3606   26.1530 H   0  0  0  0  0  0  0  0  0  0  0  0
    9.6256    0.1326   22.1531 H   0  0  0  0  0  0  0  0  0  0  0  0
    6.3908    0.7864   18.9157 H   0  0  0  0  0  0  0  0  0  0  0  0
    6.3965   -0.9930   18.9495 H   0  0  0  0  0  0  0  0  0  0  0  0
    7.6577   -0.1242   18.0439 H   0  0  0  0  0  0  0  0  0  0  0  0
    9.8520    4.3410   24.4928 H   0  0  0  0  0  0  0  0  0  0  0  0
    6.3407   -1.0965   21.0681 H   0  0  0  0  0  0  0  0  0  0  0  0
  1  2  1  0  0  0  0
  1  3  2  0  0  0  0
  2  7  2  0  0  0  0
  3  8  1  0  0  0  0
  4  5  2  0  0  0  0
  4  9  1  0  0  0  0
  5 10  1  0  0  0  0
  6 11  2  0  0  0  0
  6 12  1  0  0  0  0
  7 14  1  0  0  0  0
  8 14  2  0  0  0  0
  9 15  2  0  0  0  0
 10 16  2  0  0  0  0
 11 17  1  0  0  0  0
 12 18  2  0  0  0  0
 13 17  2  0  0  0  0
 13 18  1  0  0  0  0
 14 19  1  0  0  0  0
 15 16  1  0  0  0  0
 15 19  1  0  0  0  0
 16 24  1  0  0  0  0
 17 25  1  0  0  0  0
 18 28  1  0  0  0  0
 19 20  2  0  0  0  0
 20 21  1  0  0  0  0
 20 28  1  0  0  0  0
 21 24  1  0  0  0  0
 21 26  2  0  0  0  0
 22 23  1  0  0  0  0
 22 25  1  0  0  0  0
 22 27  2  0  0  0  0
  1 29  1  0  0  0  0
  2 30  1  0  0  0  0
  3 31  1  0  0  0  0
  4 32  1  0  0  0  0
  5 33  1  0  0  0  0
  6 34  1  0  0  0  0
  7 35  1  0  0  0  0
  8 36  1  0  0  0  0
  9 37  1  0  0  0  0
 10 38  1  0  0  0  0
 11 39  1  0  0  0  0
 12 40  1  0  0  0  0
 13 41  1  0  0  0  0
 23 42  1  0  0  0  0
 23 43  1  0  0  0  0
 23 44  1  0  0  0  0
 24 45  1  0  0  0  0
 25 46  1  0  0  0  0
M  END
> <Hybrid2>
-10.450465

> <fragments>
x0195

> <site>
active-noncovalent

$$$$
top_hits_only_mpro-10_1
  -OEChem-03302021283D

 45 49  0     0  0  0  0  0  0999 V2000
    6.0513   -5.3200   23.6564 C   0  0  0  0  0  0  0  0  0  0  0  0
    6.0601   -4.8142   24.9583 C   0  0  0  0  0  0  0  0  0  0  0  0
    7.0489   -4.9675   22.7387 C   0  0  0  0  0  0  0  0  0  0  0  0
    7.0630   -3.9402   25.3907 C   0  0  0  0  0  0  0  0  0  0  0  0
    6.7275    0.5694   20.3014 C   0  0  0  0  0  0  0  0  0  0  0  0
    8.4284   -0.2452   18.8523 C   0  0  0  0  0  0  0  0  0  0  0  0
    6.6066    0.8156   17.9390 C   0  0  0  0  0  0  0  0  0  0  0  0
   11.0073   -2.0672   23.0127 C   0  0  0  0  0  0  0  0  0  0  0  0
    7.9458   -0.0810   20.1407 C   0  0  0  0  0  0  0  0  0  0  0  0
   12.2582   -2.2180   23.6831 C   0  0  0  0  0  0  0  0  0  0  0  0
    8.0641   -4.0903   23.1561 C   0  0  0  0  0  0  0  0  0  0  0  0
    8.0461   -3.6030   24.4599 C   0  0  0  0  0  0  0  0  0  0  0  0
    6.0386    1.0293   19.1846 C   0  0  0  0  0  0  0  0  0  0  0  0
   13.2178   -1.3766   23.1530 C   0  0  0  0  0  0  0  0  0  0  0  0
   11.0644   -1.1206   22.0125 C   0  0  0  0  0  0  0  0  0  0  0  0
    9.7732   -2.8208   23.3197 C   0  0  0  0  0  0  0  0  0  0  0  0
    8.7014   -0.5791   21.3029 C   0  0  0  0  0  0  0  0  0  0  0  0
   12.5606   -3.1661   24.8019 C   0  0  0  0  0  0  0  0  0  0  0  0
   14.6281   -1.2649   23.6415 C   0  0  0  0  0  0  0  0  0  0  0  0
   13.8661   -2.7974   25.5240 C   0  0  0  0  0  0  0  0  0  0  0  0
   14.9886   -2.4664   24.5297 C   0  0  0  0  0  0  0  0  0  0  0  0
    7.7879    0.1879   17.7433 N   0  0  0  0  0  0  0  0  0  0  0  0
    9.1442   -3.5937   22.4630 N   0  0  0  0  0  0  0  0  0  0  0  0
    9.1506   -2.7937   24.5366 N   0  0  0  0  0  0  0  0  0  0  0  0
   10.1147   -0.6694   21.1356 N   0  0  0  0  0  0  0  0  0  0  0  0
    8.1246   -0.9218   22.3328 O   0  0  0  0  0  0  0  0  0  0  0  0
   12.6200   -0.4169   21.8802 S   0  0  0  0  0  0  0  0  0  0  0  0
    4.3848    1.9135   19.3602 Br  0  0  0  0  0  0  0  0  0  0  0  0
    5.2586   -5.9977   23.3498 H   0  0  0  0  0  0  0  0  0  0  0  0
    5.2729   -5.1050   25.6497 H   0  0  0  0  0  0  0  0  0  0  0  0
    7.0335   -5.3659   21.7294 H   0  0  0  0  0  0  0  0  0  0  0  0
    7.0718   -3.5463   26.4008 H   0  0  0  0  0  0  0  0  0  0  0  0
    6.3194    0.7153   21.2991 H   0  0  0  0  0  0  0  0  0  0  0  0
    9.3738   -0.7448   18.6637 H   0  0  0  0  0  0  0  0  0  0  0  0
    6.1192    1.1494   17.0278 H   0  0  0  0  0  0  0  0  0  0  0  0
   11.7405   -3.1812   25.5286 H   0  0  0  0  0  0  0  0  0  0  0  0
   12.6503   -4.1779   24.3873 H   0  0  0  0  0  0  0  0  0  0  0  0
   15.3326   -1.2073   22.8040 H   0  0  0  0  0  0  0  0  0  0  0  0
   14.7291   -0.3411   24.2243 H   0  0  0  0  0  0  0  0  0  0  0  0
   13.6950   -1.9287   26.1728 H   0  0  0  0  0  0  0  0  0  0  0  0
   14.1723   -3.6261   26.1722 H   0  0  0  0  0  0  0  0  0  0  0  0
   15.1782   -3.3448   23.8993 H   0  0  0  0  0  0  0  0  0  0  0  0
   15.9179   -2.2547   25.0703 H   0  0  0  0  0  0  0  0  0  0  0  0
    9.4484   -2.2716   25.3501 H   0  0  0  0  0  0  0  0  0  0  0  0
   10.4751   -0.3467   20.2173 H   0  0  0  0  0  0  0  0  0  0  0  0
  1  2  2  0  0  0  0
  1  3  1  0  0  0  0
  2  4  1  0  0  0  0
  3 11  2  0  0  0  0
  4 12  2  0  0  0  0
  5  9  1  0  0  0  0
  5 13  2  0  0  0  0
  6  9  2  0  0  0  0
  6 22  1  0  0  0  0
  7 13  1  0  0  0  0
  7 22  2  0  0  0  0
  8 10  1  0  0  0  0
  8 15  2  0  0  0  0
  8 16  1  0  0  0  0
  9 17  1  0  0  0  0
 10 14  2  0  0  0  0
 10 18  1  0  0  0  0
 11 12  1  0  0  0  0
 11 23  1  0  0  0  0
 12 24  1  0  0  0  0
 13 28  1  0  0  0  0
 14 19  1  0  0  0  0
 14 27  1  0  0  0  0
 15 25  1  0  0  0  0
 15 27  1  0  0  0  0
 16 23  2  0  0  0  0
 16 24  1  0  0  0  0
 17 25  1  0  0  0  0
 17 26  2  0  0  0  0
 18 20  1  0  0  0  0
 19 21  1  0  0  0  0
 20 21  1  0  0  0  0
  1 29  1  0  0  0  0
  2 30  1  0  0  0  0
  3 31  1  0  0  0  0
  4 32  1  0  0  0  0
  5 33  1  0  0  0  0
  6 34  1  0  0  0  0
  7 35  1  0  0  0  0
 18 36  1  0  0  0  0
 18 37  1  0  0  0  0
 19 38  1  0  0  0  0
 19 39  1  0  0  0  0
 20 40  1  0  0  0  0
 20 41  1  0  0  0  0
 21 42  1  0  0  0  0
 21 43  1  0  0  0  0
 24 44  1  0  0  0  0
 25 45  1  0  0  0  0
M  END
> <Hybrid2>
-10.438540

> <fragments>
x0678

> <site>
active-noncovalent

$$$$
top_hits_only_mpro-405_1
  -OEChem-03302021283D

 42 46  0     0  0  0  0  0  0999 V2000
   13.7730   -0.4256   22.2009 C   0  0  0  0  0  0  0  0  0  0  0  0
   13.5070    0.6482   23.0433 C   0  0  0  0  0  0  0  0  0  0  0  0
    6.1934    0.6561   17.8303 C   0  0  0  0  0  0  0  0  0  0  0  0
   12.8323   -1.4457   22.0314 C   0  0  0  0  0  0  0  0  0  0  0  0
   12.2973    0.7321   23.7374 C   0  0  0  0  0  0  0  0  0  0  0  0
    6.0809   -0.7037   18.2065 C   0  0  0  0  0  0  0  0  0  0  0  0
    6.4188    1.3566   18.9924 C   0  0  0  0  0  0  0  0  0  0  0  0
    8.3511   -2.7444   23.5513 C   0  0  0  0  0  0  0  0  0  0  0  0
    8.1296   -3.7754   24.5129 C   0  0  0  0  0  0  0  0  0  0  0  0
   11.6019   -1.3855   22.7211 C   0  0  0  0  0  0  0  0  0  0  0  0
   11.3571   -0.2960   23.5626 C   0  0  0  0  0  0  0  0  0  0  0  0
    6.2459   -0.7372   19.5717 C   0  0  0  0  0  0  0  0  0  0  0  0
    6.8695   -4.3267   24.3782 C   0  0  0  0  0  0  0  0  0  0  0  0
    7.2619   -2.5593   22.7273 C   0  0  0  0  0  0  0  0  0  0  0  0
    9.5859   -1.9418   23.4232 C   0  0  0  0  0  0  0  0  0  0  0  0
    6.2329   -1.8554   20.5304 C   0  0  0  0  0  0  0  0  0  0  0  0
    9.0873   -4.2266   25.5719 C   0  0  0  0  0  0  0  0  0  0  0  0
    6.3274   -5.4464   25.2104 C   0  0  0  0  0  0  0  0  0  0  0  0
    8.6812   -5.5843   26.1663 C   0  0  0  0  0  0  0  0  0  0  0  0
    7.1780   -5.6395   26.4759 C   0  0  0  0  0  0  0  0  0  0  0  0
   10.5785   -2.3195   22.6519 N   0  0  0  0  0  0  0  0  0  0  0  0
    7.0462   -1.6918   21.6902 N   0  0  0  0  0  0  0  0  0  0  0  0
    5.5793   -2.8723   20.3075 O   0  0  0  0  0  0  0  0  0  0  0  0
    6.4524    0.5146   20.0584 O   0  0  0  0  0  0  0  0  0  0  0  0
    9.7959   -0.4723   24.2730 S   0  0  0  0  0  0  0  0  0  0  0  0
    5.9759   -3.6229   23.1115 S   0  0  0  0  0  0  0  0  0  0  0  0
   14.7197   -0.4742   21.6697 H   0  0  0  0  0  0  0  0  0  0  0  0
   14.2484    1.4336   23.1642 H   0  0  0  0  0  0  0  0  0  0  0  0
    6.1187    1.0735   16.8366 H   0  0  0  0  0  0  0  0  0  0  0  0
   13.0503   -2.2792   21.3698 H   0  0  0  0  0  0  0  0  0  0  0  0
   12.0963    1.5739   24.3927 H   0  0  0  0  0  0  0  0  0  0  0  0
    5.9016   -1.5508   17.5597 H   0  0  0  0  0  0  0  0  0  0  0  0
    6.5680    2.4024   19.2180 H   0  0  0  0  0  0  0  0  0  0  0  0
   10.1034   -4.3011   25.1682 H   0  0  0  0  0  0  0  0  0  0  0  0
    9.1055   -3.4737   26.3696 H   0  0  0  0  0  0  0  0  0  0  0  0
    5.2867   -5.2572   25.4970 H   0  0  0  0  0  0  0  0  0  0  0  0
    6.3459   -6.3694   24.6178 H   0  0  0  0  0  0  0  0  0  0  0  0
    8.9304   -6.3853   25.4584 H   0  0  0  0  0  0  0  0  0  0  0  0
    9.2585   -5.7717   27.0785 H   0  0  0  0  0  0  0  0  0  0  0  0
    6.9343   -4.8558   27.2049 H   0  0  0  0  0  0  0  0  0  0  0  0
    6.9262   -6.5987   26.9419 H   0  0  0  0  0  0  0  0  0  0  0  0
    7.5466   -0.7849   21.7579 H   0  0  0  0  0  0  0  0  0  0  0  0
  1  2  2  0  0  0  0
  1  4  1  0  0  0  0
  2  5  1  0  0  0  0
  3  6  1  0  0  0  0
  3  7  2  0  0  0  0
  4 10  2  0  0  0  0
  5 11  2  0  0  0  0
  6 12  2  0  0  0  0
  7 24  1  0  0  0  0
  8  9  1  0  0  0  0
  8 14  2  0  0  0  0
  8 15  1  0  0  0  0
  9 13  2  0  0  0  0
  9 17  1  0  0  0  0
 10 11  1  0  0  0  0
 10 21  1  0  0  0  0
 11 25  1  0  0  0  0
 12 16  1  0  0  0  0
 12 24  1  0  0  0  0
 13 18  1  0  0  0  0
 13 26  1  0  0  0  0
 14 22  1  0  0  0  0
 14 26  1  0  0  0  0
 15 21  2  0  0  0  0
 15 25  1  0  0  0  0
 16 22  1  0  0  0  0
 16 23  2  0  0  0  0
 17 19  1  0  0  0  0
 18 20  1  0  0  0  0
 19 20  1  0  0  0  0
  1 27  1  0  0  0  0
  2 28  1  0  0  0  0
  3 29  1  0  0  0  0
  4 30  1  0  0  0  0
  5 31  1  0  0  0  0
  6 32  1  0  0  0  0
  7 33  1  0  0  0  0
 17 34  1  0  0  0  0
 17 35  1  0  0  0  0
 18 36  1  0  0  0  0
 18 37  1  0  0  0  0
 19 38  1  0  0  0  0
 19 39  1  0  0  0  0
 20 40  1  0  0  0  0
 20 41  1  0  0  0  0
 22 42  1  0  0  0  0
M  END
> <Hybrid2>
-10.431446

> <fragments>
x1392

> <site>
active-covalent

$$$$
top_hits_only_mpro-242_1
  -OEChem-03302021283D

 52 54  0     1  0  0  0  0  0999 V2000
   12.4363    1.1852   23.5251 C   0  0  0  0  0  0  0  0  0  0  0  0
   13.3378    0.1790   23.8720 C   0  0  0  0  0  0  0  0  0  0  0  0
   11.3972    0.9141   22.6348 C   0  0  0  0  0  0  0  0  0  0  0  0
   12.1612   -1.3694   22.4384 C   0  0  0  0  0  0  0  0  0  0  0  0
    6.3453    0.4556   20.1259 C   0  0  0  0  0  0  0  0  0  0  0  0
    7.6446   -0.6569   18.5351 C   0  0  0  0  0  0  0  0  0  0  0  0
    6.3010    1.0773   17.9399 C   0  0  0  0  0  0  0  0  0  0  0  0
   13.2003   -1.0983   23.3287 C   0  0  0  0  0  0  0  0  0  0  0  0
   11.2597   -0.3632   22.0914 C   0  0  0  0  0  0  0  0  0  0  0  0
    7.2566   -0.5446   19.8546 C   0  0  0  0  0  0  0  0  0  0  0  0
   14.1400   -2.1473   23.6911 C   0  0  0  0  0  0  0  0  0  0  0  0
    7.8400   -1.1636   25.4813 C   0  0  0  0  0  0  0  0  0  0  0  0
    7.6965   -1.0124   23.9661 C   0  0  0  0  0  0  0  0  0  0  0  0
    8.9544   -2.9581   22.8828 C   0  0  0  0  0  0  0  0  0  0  0  0
    8.6610   -2.3304   26.0017 C   0  0  0  0  0  0  0  0  0  0  0  0
    9.3047   -3.8230   24.0836 C   0  0  0  0  0  0  0  0  0  0  0  0
    8.9128   -1.4492   23.1482 C   0  0  1  0  0  0  0  0  0  0  0  0
   10.1422   -0.6548   21.1338 C   0  0  0  0  0  0  0  0  0  0  0  0
    7.7918   -1.4502   20.9244 C   0  0  0  0  0  0  0  0  0  0  0  0
    5.8448    1.2878   19.1893 N   0  0  0  0  0  0  0  0  0  0  0  0
    7.1851    0.1400   17.5482 N   0  0  0  0  0  0  0  0  0  0  0  0
   15.1581   -1.8247   24.5838 N   0  0  0  0  0  0  0  0  0  0  0  0
    8.3956   -3.5805   25.2389 N   0  3  0  0  0  0  0  0  0  0  0  0
    8.8057   -0.7812   21.8093 N   0  3  1  0  0  0  0  0  0  0  0  0
   14.0523   -3.2908   23.2102 O   0  0  0  0  0  0  0  0  0  0  0  0
   12.5440    2.1801   23.9472 H   0  0  0  0  0  0  0  0  0  0  0  0
   14.1435    0.4011   24.5671 H   0  0  0  0  0  0  0  0  0  0  0  0
   10.6990    1.7041   22.3706 H   0  0  0  0  0  0  0  0  0  0  0  0
   12.0532   -2.3646   22.0129 H   0  0  0  0  0  0  0  0  0  0  0  0
    5.9773    0.6262   21.1328 H   0  0  0  0  0  0  0  0  0  0  0  0
    8.3571   -1.4122   18.2185 H   0  0  0  0  0  0  0  0  0  0  0  0
    5.9144    1.7312   17.1679 H   0  0  0  0  0  0  0  0  0  0  0  0
    8.2849   -0.2434   25.8820 H   0  0  0  0  0  0  0  0  0  0  0  0
    6.8318   -1.2126   25.9128 H   0  0  0  0  0  0  0  0  0  0  0  0
    6.8109   -1.5711   23.6354 H   0  0  0  0  0  0  0  0  0  0  0  0
    7.4677    0.0444   23.7729 H   0  0  0  0  0  0  0  0  0  0  0  0
    9.7043   -3.1688   22.1087 H   0  0  0  0  0  0  0  0  0  0  0  0
    7.9923   -3.2918   22.4712 H   0  0  0  0  0  0  0  0  0  0  0  0
    9.7363   -2.1260   25.9652 H   0  0  0  0  0  0  0  0  0  0  0  0
    8.3958   -2.5362   27.0444 H   0  0  0  0  0  0  0  0  0  0  0  0
    9.1953   -4.8816   23.8252 H   0  0  0  0  0  0  0  0  0  0  0  0
   10.3332   -3.6603   24.4226 H   0  0  0  0  0  0  0  0  0  0  0  0
    9.8499   -1.0868   23.5832 H   0  0  0  0  0  0  0  0  0  0  0  0
   10.0431    0.1403   20.3869 H   0  0  0  0  0  0  0  0  0  0  0  0
   10.3147   -1.5951   20.5992 H   0  0  0  0  0  0  0  0  0  0  0  0
    6.9895   -1.8068   21.5792 H   0  0  0  0  0  0  0  0  0  0  0  0
    8.2833   -2.3276   20.4905 H   0  0  0  0  0  0  0  0  0  0  0  0
   15.2150   -0.8810   24.9510 H   0  0  0  0  0  0  0  0  0  0  0  0
   15.8446   -2.5129   24.8754 H   0  0  0  0  0  0  0  0  0  0  0  0
    8.5143   -4.3702   25.8888 H   0  0  0  0  0  0  0  0  0  0  0  0
    7.4105   -3.6289   24.9429 H   0  0  0  0  0  0  0  0  0  0  0  0
    8.4667    0.1762   21.9780 H   0  0  0  0  0  0  0  0  0  0  0  0
  1  2  2  0  0  0  0
  1  3  1  0  0  0  0
  2  8  1  0  0  0  0
  3  9  2  0  0  0  0
  4  8  2  0  0  0  0
  4  9  1  0  0  0  0
  5 10  1  0  0  0  0
  5 20  2  0  0  0  0
  6 10  2  0  0  0  0
  6 21  1  0  0  0  0
  7 20  1  0  0  0  0
  7 21  2  0  0  0  0
  8 11  1  0  0  0  0
  9 18  1  0  0  0  0
 10 19  1  0  0  0  0
 11 22  1  0  0  0  0
 11 25  2  0  0  0  0
 12 13  1  0  0  0  0
 12 15  1  0  0  0  0
 13 17  1  0  0  0  0
 14 16  1  0  0  0  0
 14 17  1  0  0  0  0
 15 23  1  0  0  0  0
 16 23  1  0  0  0  0
 17 24  1  0  0  0  0
 18 24  1  0  0  0  0
 19 24  1  0  0  0  0
  1 26  1  0  0  0  0
  2 27  1  0  0  0  0
  3 28  1  0  0  0  0
  4 29  1  0  0  0  0
  5 30  1  0  0  0  0
  6 31  1  0  0  0  0
  7 32  1  0  0  0  0
 12 33  1  0  0  0  0
 12 34  1  0  0  0  0
 13 35  1  0  0  0  0
 13 36  1  0  0  0  0
 14 37  1  0  0  0  0
 14 38  1  0  0  0  0
 15 39  1  0  0  0  0
 15 40  1  0  0  0  0
 16 41  1  0  0  0  0
 16 42  1  0  0  0  0
 17 43  1  0  0  0  0
 18 44  1  0  0  0  0
 18 45  1  0  0  0  0
 19 46  1  0  0  0  0
 19 47  1  0  0  0  0
 22 48  1  0  0  0  0
 22 49  1  0  0  0  0
 23 50  1  0  0  0  0
 23 51  1  0  0  0  0
 24 52  1  0  0  0  0
M  CHG  2  23   1  24   1
M  END
> <Hybrid2>
-10.419001

> <fragments>
x0678

> <site>
active-noncovalent

$$$$
top_hits_only_mpro-325_1
  -OEChem-03302021283D

 33 35  0     0  0  0  0  0  0999 V2000
    5.8706    0.7402   19.1841 C   0  0  0  0  0  0  0  0  0  0  0  0
    6.7101    0.3338   20.2154 C   0  0  0  0  0  0  0  0  0  0  0  0
   12.7081   -0.3336   24.4407 C   0  0  0  0  0  0  0  0  0  0  0  0
   11.7146    0.5389   24.8686 C   0  0  0  0  0  0  0  0  0  0  0  0
   11.4816   -0.6779   22.3910 C   0  0  0  0  0  0  0  0  0  0  0  0
    6.3486    0.6536   17.8865 C   0  0  0  0  0  0  0  0  0  0  0  0
    8.3671   -0.1876   18.5910 C   0  0  0  0  0  0  0  0  0  0  0  0
    7.9838   -0.1401   19.9216 C   0  0  0  0  0  0  0  0  0  0  0  0
   12.5979   -0.9310   23.1952 C   0  0  0  0  0  0  0  0  0  0  0  0
   10.4364    0.1690   22.8100 C   0  0  0  0  0  0  0  0  0  0  0  0
   10.5962    0.8096   24.0588 C   0  0  0  0  0  0  0  0  0  0  0  0
    8.8934   -0.5765   20.9913 C   0  0  0  0  0  0  0  0  0  0  0  0
    8.3360    1.4786   22.3014 C   0  0  0  0  0  0  0  0  0  0  0  0
    8.9000    2.6311   23.1063 C   0  0  0  0  0  0  0  0  0  0  0  0
   13.6638   -1.8601   22.7180 C   0  0  0  0  0  0  0  0  0  0  0  0
    7.5795    0.1985   17.5622 N   0  0  0  0  0  0  0  0  0  0  0  0
    9.2609    0.3725   21.9796 N   0  0  0  0  0  0  0  0  0  0  0  0
    9.2130   -1.7618   20.9230 O   0  0  0  0  0  0  0  0  0  0  0  0
   14.6839   -2.0265   23.6108 F   0  0  0  0  0  0  0  0  0  0  0  0
   13.2117   -3.1216   22.4544 F   0  0  0  0  0  0  0  0  0  0  0  0
   14.2534   -1.4335   21.5635 F   0  0  0  0  0  0  0  0  0  0  0  0
    9.4348    2.0014   24.7004 S   0  0  0  0  0  0  0  0  0  0  0  0
    4.8735    1.1126   19.3892 H   0  0  0  0  0  0  0  0  0  0  0  0
    6.3623    0.3913   21.2434 H   0  0  0  0  0  0  0  0  0  0  0  0
   13.5548   -0.5452   25.0866 H   0  0  0  0  0  0  0  0  0  0  0  0
   11.8267    1.0087   25.8426 H   0  0  0  0  0  0  0  0  0  0  0  0
   11.4383   -1.2120   21.4456 H   0  0  0  0  0  0  0  0  0  0  0  0
    5.7329    0.9585   17.0467 H   0  0  0  0  0  0  0  0  0  0  0  0
    9.3488   -0.5488   18.2996 H   0  0  0  0  0  0  0  0  0  0  0  0
    7.4412    1.0248   22.7972 H   0  0  0  0  0  0  0  0  0  0  0  0
    7.9180    1.9159   21.3671 H   0  0  0  0  0  0  0  0  0  0  0  0
    9.7322    3.1098   22.5873 H   0  0  0  0  0  0  0  0  0  0  0  0
    8.1289    3.3836   23.2766 H   0  0  0  0  0  0  0  0  0  0  0  0
  1  2  2  0  0  0  0
  1  6  1  0  0  0  0
  2  8  1  0  0  0  0
  3  4  1  0  0  0  0
  3  9  2  0  0  0  0
  4 11  2  0  0  0  0
  5  9  1  0  0  0  0
  5 10  2  0  0  0  0
  6 16  2  0  0  0  0
  7  8  2  0  0  0  0
  7 16  1  0  0  0  0
  8 12  1  0  0  0  0
  9 15  1  0  0  0  0
 10 11  1  0  0  0  0
 10 17  1  0  0  0  0
 11 22  1  0  0  0  0
 12 17  1  0  0  0  0
 12 18  2  0  0  0  0
 13 14  1  0  0  0  0
 13 17  1  0  0  0  0
 14 22  1  0  0  0  0
 15 19  1  0  0  0  0
 15 20  1  0  0  0  0
 15 21  1  0  0  0  0
  1 23  1  0  0  0  0
  2 24  1  0  0  0  0
  3 25  1  0  0  0  0
  4 26  1  0  0  0  0
  5 27  1  0  0  0  0
  6 28  1  0  0  0  0
  7 29  1  0  0  0  0
 13 30  1  0  0  0  0
 13 31  1  0  0  0  0
 14 32  1  0  0  0  0
 14 33  1  0  0  0  0
M  END
> <Hybrid2>
-10.417596

> <fragments>
x0678

> <site>
active-noncovalent

$$$$
top_hits_only_mpro-201_1
  -OEChem-03302021283D

 31 33  0     0  0  0  0  0  0999 V2000
   13.6866   -1.6224   25.2893 C   0  0  0  0  0  0  0  0  0  0  0  0
   13.1133   -0.5266   24.6493 C   0  0  0  0  0  0  0  0  0  0  0  0
    7.7716   -4.9752   21.5904 C   0  0  0  0  0  0  0  0  0  0  0  0
    6.5203   -4.8685   21.0174 C   0  0  0  0  0  0  0  0  0  0  0  0
    6.6591   -5.5050   23.6129 C   0  0  0  0  0  0  0  0  0  0  0  0
    7.8434   -5.3045   22.9325 C   0  0  0  0  0  0  0  0  0  0  0  0
   11.7051   -2.9452   24.8167 C   0  0  0  0  0  0  0  0  0  0  0  0
   11.1203   -1.8314   24.1876 C   0  0  0  0  0  0  0  0  0  0  0  0
   12.9869   -2.8260   25.3728 C   0  0  0  0  0  0  0  0  0  0  0  0
   11.8372   -0.6305   24.0969 C   0  0  0  0  0  0  0  0  0  0  0  0
    9.1410   -5.4366   23.6130 C   0  0  0  0  0  0  0  0  0  0  0  0
    9.7531   -1.9378   23.5639 C   0  0  0  0  0  0  0  0  0  0  0  0
   10.9780   -4.2646   24.9249 C   0  0  0  0  0  0  0  0  0  0  0  0
    8.9349   -3.0485   24.2110 C   0  0  0  0  0  0  0  0  0  0  0  0
    5.3778   -5.0704   21.7074 N   0  0  0  0  0  0  0  0  0  0  0  0
    5.4484   -5.3937   23.0266 N   0  0  0  0  0  0  0  0  0  0  0  0
    9.6906   -4.2991   24.2140 N   0  0  0  0  0  0  0  0  0  0  0  0
    9.6543   -6.5545   23.5966 O   0  0  0  0  0  0  0  0  0  0  0  0
   13.5546   -3.8731   25.9887 F   0  0  0  0  0  0  0  0  0  0  0  0
   11.1751    0.9142   23.2022 Br  0  0  0  0  0  0  0  0  0  0  0  0
   14.6802   -1.5418   25.7201 H   0  0  0  0  0  0  0  0  0  0  0  0
   13.6814    0.3983   24.5869 H   0  0  0  0  0  0  0  0  0  0  0  0
    8.6649   -4.8043   20.9989 H   0  0  0  0  0  0  0  0  0  0  0  0
    6.3970   -4.6140   19.9713 H   0  0  0  0  0  0  0  0  0  0  0  0
    6.6391   -5.7660   24.6654 H   0  0  0  0  0  0  0  0  0  0  0  0
    9.1829   -1.0123   23.6939 H   0  0  0  0  0  0  0  0  0  0  0  0
    9.8626   -2.1272   22.4892 H   0  0  0  0  0  0  0  0  0  0  0  0
   11.6280   -5.0598   24.5463 H   0  0  0  0  0  0  0  0  0  0  0  0
   10.7586   -4.4690   25.9797 H   0  0  0  0  0  0  0  0  0  0  0  0
    8.6996   -2.8076   25.2553 H   0  0  0  0  0  0  0  0  0  0  0  0
    7.9845   -3.1692   23.6808 H   0  0  0  0  0  0  0  0  0  0  0  0
  1  2  2  0  0  0  0
  1  9  1  0  0  0  0
  2 10  1  0  0  0  0
  3  4  2  0  0  0  0
  3  6  1  0  0  0  0
  4 15  1  0  0  0  0
  5  6  2  0  0  0  0
  5 16  1  0  0  0  0
  6 11  1  0  0  0  0
  7  8  1  0  0  0  0
  7  9  2  0  0  0  0
  7 13  1  0  0  0  0
  8 10  2  0  0  0  0
  8 12  1  0  0  0  0
  9 19  1  0  0  0  0
 10 20  1  0  0  0  0
 11 17  1  0  0  0  0
 11 18  2  0  0  0  0
 12 14  1  0  0  0  0
 13 17  1  0  0  0  0
 14 17  1  0  0  0  0
 15 16  2  0  0  0  0
  1 21  1  0  0  0  0
  2 22  1  0  0  0  0
  3 23  1  0  0  0  0
  4 24  1  0  0  0  0
  5 25  1  0  0  0  0
 12 26  1  0  0  0  0
 12 27  1  0  0  0  0
 13 28  1  0  0  0  0
 13 29  1  0  0  0  0
 14 30  1  0  0  0  0
 14 31  1  0  0  0  0
M  END
> <Hybrid2>
-10.403386

> <fragments>
x0749

> <site>
active-covalent

$$$$
top_hits_only_mpro-0_1
  -OEChem-03302021283D

 29 31  0     0  0  0  0  0  0999 V2000
   11.4948    4.7798   23.2854 C   0  0  0  0  0  0  0  0  0  0  0  0
   12.2067    6.6246   24.3622 C   0  0  0  0  0  0  0  0  0  0  0  0
   11.0768    5.9104   24.0297 C   0  0  0  0  0  0  0  0  0  0  0  0
   12.8674    4.8373   23.1859 C   0  0  0  0  0  0  0  0  0  0  0  0
   12.8271   -1.6230   23.0455 C   0  0  0  0  0  0  0  0  0  0  0  0
   13.8830    0.1891   22.4296 C   0  0  0  0  0  0  0  0  0  0  0  0
   11.6859   -2.4633   23.1707 C   0  0  0  0  0  0  0  0  0  0  0  0
   10.5020   -2.0471   22.6791 C   0  0  0  0  0  0  0  0  0  0  0  0
   10.3609   -0.7555   22.0212 C   0  0  0  0  0  0  0  0  0  0  0  0
   11.4380    0.0389   21.9026 C   0  0  0  0  0  0  0  0  0  0  0  0
   13.7838    3.8871   22.5045 C   0  0  0  0  0  0  0  0  0  0  0  0
   14.1550    1.5211   21.8562 C   0  0  0  0  0  0  0  0  0  0  0  0
   14.0849   -1.7452   23.4128 N   0  0  0  0  0  0  0  0  0  0  0  0
   14.7508   -0.5999   23.0231 N   0  0  0  0  0  0  0  0  0  0  0  0
   13.2893    5.9628   23.8443 N   0  0  0  0  0  0  0  0  0  0  0  0
   12.6522   -0.4019   22.4132 N   0  0  0  0  0  0  0  0  0  0  0  0
   13.3622    2.5686   22.4629 N   0  0  0  0  0  0  0  0  0  0  0  0
   14.8449    4.3015   22.0453 O   0  0  0  0  0  0  0  0  0  0  0  0
    9.3028    6.3154   24.4558 Br  0  0  0  0  0  0  0  0  0  0  0  0
   10.8665    4.0050   22.8657 H   0  0  0  0  0  0  0  0  0  0  0  0
   12.3408    7.5420   24.9185 H   0  0  0  0  0  0  0  0  0  0  0  0
   11.7813   -3.4270   23.6580 H   0  0  0  0  0  0  0  0  0  0  0  0
    9.6176   -2.6697   22.7611 H   0  0  0  0  0  0  0  0  0  0  0  0
    9.3891   -0.4628   21.6432 H   0  0  0  0  0  0  0  0  0  0  0  0
   11.3993    1.0102   21.4255 H   0  0  0  0  0  0  0  0  0  0  0  0
   15.2137    1.8132   21.9769 H   0  0  0  0  0  0  0  0  0  0  0  0
   13.9512    1.5596   20.7712 H   0  0  0  0  0  0  0  0  0  0  0  0
   14.2508    6.2613   23.9349 H   0  0  0  0  0  0  0  0  0  0  0  0
   12.5014    2.2879   22.9193 H   0  0  0  0  0  0  0  0  0  0  0  0
  1  3  1  0  0  0  0
  1  4  2  0  0  0  0
  2  3  2  0  0  0  0
  2 15  1  0  0  0  0
  3 19  1  0  0  0  0
  4 11  1  0  0  0  0
  4 15  1  0  0  0  0
  5  7  1  0  0  0  0
  5 13  2  0  0  0  0
  5 16  1  0  0  0  0
  6 12  1  0  0  0  0
  6 14  2  0  0  0  0
  6 16  1  0  0  0  0
  7  8  2  0  0  0  0
  8  9  1  0  0  0  0
  9 10  2  0  0  0  0
 10 16  1  0  0  0  0
 11 17  1  0  0  0  0
 11 18  2  0  0  0  0
 12 17  1  0  0  0  0
 13 14  1  0  0  0  0
  1 20  1  0  0  0  0
  2 21  1  0  0  0  0
  7 22  1  0  0  0  0
  8 23  1  0  0  0  0
  9 24  1  0  0  0  0
 10 25  1  0  0  0  0
 12 26  1  0  0  0  0
 12 27  1  0  0  0  0
 15 28  1  0  0  0  0
 17 29  1  0  0  0  0
M  END
> <Hybrid2>
-10.379951

> <fragments>
x0195

> <site>
active-noncovalent

$$$$
top_hits_only_mpro-106_1
  -OEChem-03302021283D

 37 40  0     0  0  0  0  0  0999 V2000
    5.3991    1.1254   19.2711 C   0  0  0  0  0  0  0  0  0  0  0  0
   10.2539   -2.5110   26.8617 C   0  0  0  0  0  0  0  0  0  0  0  0
    8.8665   -4.1664   25.7793 C   0  0  0  0  0  0  0  0  0  0  0  0
    6.0631    0.5544   20.3511 C   0  0  0  0  0  0  0  0  0  0  0  0
    9.9395   -3.0602   28.1047 C   0  0  0  0  0  0  0  0  0  0  0  0
    8.5521   -4.7157   27.0224 C   0  0  0  0  0  0  0  0  0  0  0  0
    5.9508    0.9621   18.0106 C   0  0  0  0  0  0  0  0  0  0  0  0
    7.7109   -0.2587   18.8411 C   0  0  0  0  0  0  0  0  0  0  0  0
   11.3524   -2.4509   23.9962 C   0  0  0  0  0  0  0  0  0  0  0  0
    9.7173   -3.0641   25.6990 C   0  0  0  0  0  0  0  0  0  0  0  0
   10.0410   -2.4972   24.4155 C   0  0  0  0  0  0  0  0  0  0  0  0
    7.2419   -0.1525   20.1405 C   0  0  0  0  0  0  0  0  0  0  0  0
    9.1582   -1.9406   23.4481 C   0  0  0  0  0  0  0  0  0  0  0  0
    9.0887   -4.1626   28.1851 C   0  0  0  0  0  0  0  0  0  0  0  0
    9.8229   -1.4883   22.3232 C   0  0  0  0  0  0  0  0  0  0  0  0
    7.9733   -0.7731   21.2749 C   0  0  0  0  0  0  0  0  0  0  0  0
    7.7146   -1.8039   23.5053 C   0  0  0  0  0  0  0  0  0  0  0  0
    7.9060   -5.8252   29.4069 C   0  0  0  0  0  0  0  0  0  0  0  0
    7.0937    0.2824   17.7669 N   0  0  0  0  0  0  0  0  0  0  0  0
    9.2700   -0.9064   21.2237 N   0  0  0  0  0  0  0  0  0  0  0  0
    7.1933   -1.2014   22.3596 N   0  0  0  0  0  0  0  0  0  0  0  0
    7.0393   -2.1818   24.4566 O   0  0  0  0  0  0  0  0  0  0  0  0
    8.7819   -4.6989   29.3978 O   0  0  0  0  0  0  0  0  0  0  0  0
   11.5091   -1.7401   22.4466 S   0  0  0  0  0  0  0  0  0  0  0  0
    4.4785    1.6802   19.4111 H   0  0  0  0  0  0  0  0  0  0  0  0
   10.9188   -1.6517   26.8156 H   0  0  0  0  0  0  0  0  0  0  0  0
    8.4397   -4.6088   24.8823 H   0  0  0  0  0  0  0  0  0  0  0  0
    5.6542    0.6668   21.3516 H   0  0  0  0  0  0  0  0  0  0  0  0
   10.3604   -2.6255   29.0073 H   0  0  0  0  0  0  0  0  0  0  0  0
    7.8880   -5.5740   27.0780 H   0  0  0  0  0  0  0  0  0  0  0  0
    5.4716    1.3885   17.1355 H   0  0  0  0  0  0  0  0  0  0  0  0
    8.6253   -0.7987   18.6142 H   0  0  0  0  0  0  0  0  0  0  0  0
   12.2349   -2.7975   24.5173 H   0  0  0  0  0  0  0  0  0  0  0  0
    7.7443   -6.1536   30.4365 H   0  0  0  0  0  0  0  0  0  0  0  0
    8.3462   -6.6350   28.8197 H   0  0  0  0  0  0  0  0  0  0  0  0
    6.9497   -5.5353   28.9649 H   0  0  0  0  0  0  0  0  0  0  0  0
    6.1863   -1.0667   22.3219 H   0  0  0  0  0  0  0  0  0  0  0  0
  1  4  2  0  0  0  0
  1  7  1  0  0  0  0
  2  5  2  0  0  0  0
  2 10  1  0  0  0  0
  3  6  1  0  0  0  0
  3 10  2  0  0  0  0
  4 12  1  0  0  0  0
  5 14  1  0  0  0  0
  6 14  2  0  0  0  0
  7 19  2  0  0  0  0
  8 12  2  0  0  0  0
  8 19  1  0  0  0  0
  9 11  2  0  0  0  0
  9 24  1  0  0  0  0
 10 11  1  0  0  0  0
 11 13  1  0  0  0  0
 12 16  1  0  0  0  0
 13 15  2  0  0  0  0
 13 17  1  0  0  0  0
 14 23  1  0  0  0  0
 15 20  1  0  0  0  0
 15 24  1  0  0  0  0
 16 20  2  0  0  0  0
 16 21  1  0  0  0  0
 17 21  1  0  0  0  0
 17 22  2  0  0  0  0
 18 23  1  0  0  0  0
  1 25  1  0  0  0  0
  2 26  1  0  0  0  0
  3 27  1  0  0  0  0
  4 28  1  0  0  0  0
  5 29  1  0  0  0  0
  6 30  1  0  0  0  0
  7 31  1  0  0  0  0
  8 32  1  0  0  0  0
  9 33  1  0  0  0  0
 18 34  1  0  0  0  0
 18 35  1  0  0  0  0
 18 36  1  0  0  0  0
 21 37  1  0  0  0  0
M  END
> <Hybrid2>
-10.370603

> <fragments>
x0387

> <site>
active-noncovalent

$$$$
top_hits_only_mpro-236_1
  -OEChem-03302021283D

 46 49  0     1  0  0  0  0  0999 V2000
   12.8895   -0.0512   25.0734 C   0  0  0  0  0  0  0  0  0  0  0  0
    5.1347   -2.3883   25.0405 C   0  0  0  0  0  0  0  0  0  0  0  0
   11.5625    0.2889   24.8140 C   0  0  0  0  0  0  0  0  0  0  0  0
    6.1310   -2.7758   25.9234 C   0  0  0  0  0  0  0  0  0  0  0  0
   13.2556   -1.3902   25.2016 C   0  0  0  0  0  0  0  0  0  0  0  0
    5.1849   -2.8188   23.7191 C   0  0  0  0  0  0  0  0  0  0  0  0
   10.5954   -0.7095   24.6815 C   0  0  0  0  0  0  0  0  0  0  0  0
    7.1674   -3.6062   25.4883 C   0  0  0  0  0  0  0  0  0  0  0  0
   12.2834   -2.3858   25.0679 C   0  0  0  0  0  0  0  0  0  0  0  0
    6.2400   -3.6327   23.2601 C   0  0  0  0  0  0  0  0  0  0  0  0
   10.9444   -2.0585   24.8068 C   0  0  0  0  0  0  0  0  0  0  0  0
    7.2450   -4.0728   24.1592 C   0  0  0  0  0  0  0  0  0  0  0  0
   12.6491   -3.8128   25.2001 C   0  0  0  0  0  0  0  0  0  0  0  0
   10.2977   -4.2774   24.7891 C   0  0  0  0  0  0  0  0  0  0  0  0
    6.0108   -2.9092   20.8841 C   0  0  0  0  0  0  0  0  0  0  0  0
    7.6107   -4.6144   21.3931 C   0  0  0  0  0  0  0  0  0  0  0  0
    6.2475   -4.0790   21.8184 C   0  0  1  0  0  0  0  0  0  0  0  0
    8.1745   -5.5870   22.4285 C   0  0  2  0  0  0  0  0  0  0  0  0
    7.3691   -6.8833   22.5375 C   0  0  0  0  0  0  0  0  0  0  0  0
    9.3047   -5.3757   24.6559 C   0  0  0  0  0  0  0  0  0  0  0  0
    9.9429   -3.0375   24.6671 N   0  0  0  0  0  0  0  0  0  0  0  0
   11.5887   -4.6907   25.0447 N   0  0  0  0  0  0  0  0  0  0  0  0
    8.2646   -4.9292   23.7374 N   0  0  3  0  0  0  0  0  0  0  0  0
    6.9542   -1.9147   20.9907 N   0  0  0  0  0  0  0  0  0  0  0  0
   13.8022   -4.1595   25.4279 O   0  0  0  0  0  0  0  0  0  0  0  0
    5.0657   -2.8811   20.0997 O   0  0  0  0  0  0  0  0  0  0  0  0
   13.6388    0.7284   25.1756 H   0  0  0  0  0  0  0  0  0  0  0  0
    4.3204   -1.7543   25.3774 H   0  0  0  0  0  0  0  0  0  0  0  0
   11.2807    1.3333   24.7149 H   0  0  0  0  0  0  0  0  0  0  0  0
    6.1013   -2.4429   26.9568 H   0  0  0  0  0  0  0  0  0  0  0  0
   14.2939   -1.6371   25.4037 H   0  0  0  0  0  0  0  0  0  0  0  0
    4.3894   -2.5119   23.0442 H   0  0  0  0  0  0  0  0  0  0  0  0
    9.5651   -0.4266   24.4793 H   0  0  0  0  0  0  0  0  0  0  0  0
    7.9113   -3.8923   26.2282 H   0  0  0  0  0  0  0  0  0  0  0  0
    7.5323   -5.1045   20.4140 H   0  0  0  0  0  0  0  0  0  0  0  0
    8.3244   -3.7887   21.2589 H   0  0  0  0  0  0  0  0  0  0  0  0
    5.4771   -4.7969   21.6489 H   0  0  0  0  0  0  0  0  0  0  0  0
    9.1833   -5.8559   22.0917 H   0  0  0  0  0  0  0  0  0  0  0  0
    6.3579   -6.6595   22.8702 H   0  0  0  0  0  0  0  0  0  0  0  0
    7.8433   -7.5500   23.2543 H   0  0  0  0  0  0  0  0  0  0  0  0
    7.3275   -7.3715   21.5662 H   0  0  0  0  0  0  0  0  0  0  0  0
    8.8771   -5.5956   25.6372 H   0  0  0  0  0  0  0  0  0  0  0  0
    9.8026   -6.2660   24.2637 H   0  0  0  0  0  0  0  0  0  0  0  0
   11.7708   -5.6874   25.1229 H   0  0  0  0  0  0  0  0  0  0  0  0
    7.7094   -2.0295   21.6585 H   0  0  0  0  0  0  0  0  0  0  0  0
    6.9254   -1.0704   20.4283 H   0  0  0  0  0  0  0  0  0  0  0  0
  1  3  1  0  0  0  0
  1  5  2  0  0  0  0
  2  4  2  0  0  0  0
  2  6  1  0  0  0  0
  3  7  2  0  0  0  0
  4  8  1  0  0  0  0
  5  9  1  0  0  0  0
  6 10  2  0  0  0  0
  7 11  1  0  0  0  0
  8 12  2  0  0  0  0
  9 11  2  0  0  0  0
  9 13  1  0  0  0  0
 10 12  1  0  0  0  0
 10 17  1  0  0  0  0
 11 21  1  0  0  0  0
 12 23  1  0  0  0  0
 13 22  1  0  0  0  0
 13 25  2  0  0  0  0
 14 20  1  0  0  0  0
 14 21  2  0  0  0  0
 14 22  1  0  0  0  0
 15 17  1  0  0  0  0
 15 24  1  0  0  0  0
 15 26  2  0  0  0  0
 16 17  1  0  0  0  0
 16 18  1  0  0  0  0
 18 19  1  0  0  0  0
 18 23  1  0  0  0  0
 20 23  1  0  0  0  0
  1 27  1  0  0  0  0
  2 28  1  0  0  0  0
  3 29  1  0  0  0  0
  4 30  1  0  0  0  0
  5 31  1  0  0  0  0
  6 32  1  0  0  0  0
  7 33  1  0  0  0  0
  8 34  1  0  0  0  0
 16 35  1  0  0  0  0
 16 36  1  0  0  0  0
 17 37  1  0  0  0  0
 18 38  1  0  0  0  0
 19 39  1  0  0  0  0
 19 40  1  0  0  0  0
 19 41  1  0  0  0  0
 20 42  1  0  0  0  0
 20 43  1  0  0  0  0
 22 44  1  0  0  0  0
 24 45  1  0  0  0  0
 24 46  1  0  0  0  0
M  END
> <Hybrid2>
-10.368786

> <fragments>
x0749

> <site>
active-covalent

$$$$
top_hits_only_mpro-210_1
  -OEChem-03302021283D

 39 42  0     0  0  0  0  0  0999 V2000
    5.9335   -4.2796   24.9529 C   0  0  0  0  0  0  0  0  0  0  0  0
    5.0043   -5.1202   25.5764 C   0  0  0  0  0  0  0  0  0  0  0  0
    6.7416   -6.0994   26.9647 C   0  0  0  0  0  0  0  0  0  0  0  0
    5.7009    0.6451   18.2601 C   0  0  0  0  0  0  0  0  0  0  0  0
    5.3124    1.2212   19.4495 C   0  0  0  0  0  0  0  0  0  0  0  0
    7.7353    0.1351   19.1717 C   0  0  0  0  0  0  0  0  0  0  0  0
    9.5148   -4.1601   25.6745 C   0  0  0  0  0  0  0  0  0  0  0  0
    7.2874   -4.3464   25.3377 C   0  0  0  0  0  0  0  0  0  0  0  0
    8.4683   -3.6641   24.9318 C   0  0  0  0  0  0  0  0  0  0  0  0
    7.6594   -5.2530   26.3327 C   0  0  0  0  0  0  0  0  0  0  0  0
    5.4043   -6.0153   26.5666 C   0  0  0  0  0  0  0  0  0  0  0  0
    7.3471    0.7119   20.3608 C   0  0  0  0  0  0  0  0  0  0  0  0
    8.2631   -2.8223   22.6170 C   0  0  0  0  0  0  0  0  0  0  0  0
    8.6003   -2.6049   23.9029 C   0  0  0  0  0  0  0  0  0  0  0  0
    8.2474    0.7528   21.5236 C   0  0  0  0  0  0  0  0  0  0  0  0
    8.3400   -1.7871   21.5300 C   0  0  0  0  0  0  0  0  0  0  0  0
    9.1122   -1.2526   24.3378 C   0  0  0  0  0  0  0  0  0  0  0  0
    9.6548   -0.4494   23.1586 C   0  0  0  0  0  0  0  0  0  0  0  0
    6.9193    0.0916   18.0999 N   0  0  0  0  0  0  0  0  0  0  0  0
    6.1285    1.2650   20.5212 N   0  0  0  0  0  0  0  0  0  0  0  0
    9.0171   -5.1181   26.5165 N   0  0  0  0  0  0  0  0  0  0  0  0
    8.7021   -0.4611   22.0507 N   0  0  0  0  0  0  0  0  0  0  0  0
    8.5407    1.8699   21.9472 O   0  0  0  0  0  0  0  0  0  0  0  0
    4.4932   -6.8088   27.1469 F   0  0  0  0  0  0  0  0  0  0  0  0
    5.6045   -3.5882   24.1822 H   0  0  0  0  0  0  0  0  0  0  0  0
    3.9587   -5.0730   25.2840 H   0  0  0  0  0  0  0  0  0  0  0  0
    7.0523   -6.7969   27.7352 H   0  0  0  0  0  0  0  0  0  0  0  0
    5.0450    0.6105   17.3990 H   0  0  0  0  0  0  0  0  0  0  0  0
    4.3322    1.6641   19.5780 H   0  0  0  0  0  0  0  0  0  0  0  0
    8.7128   -0.3126   19.0350 H   0  0  0  0  0  0  0  0  0  0  0  0
   10.5698   -3.9214   25.6835 H   0  0  0  0  0  0  0  0  0  0  0  0
    7.9117   -3.8066   22.3148 H   0  0  0  0  0  0  0  0  0  0  0  0
    9.0686   -2.1108   20.7812 H   0  0  0  0  0  0  0  0  0  0  0  0
    7.3657   -1.6930   21.0382 H   0  0  0  0  0  0  0  0  0  0  0  0
    8.3080   -0.6709   24.8061 H   0  0  0  0  0  0  0  0  0  0  0  0
    9.8976   -1.3883   25.0923 H   0  0  0  0  0  0  0  0  0  0  0  0
    9.8168    0.5986   23.4405 H   0  0  0  0  0  0  0  0  0  0  0  0
   10.6226   -0.8552   22.8458 H   0  0  0  0  0  0  0  0  0  0  0  0
    9.5656   -5.6504   27.1778 H   0  0  0  0  0  0  0  0  0  0  0  0
  1  2  2  0  0  0  0
  1  8  1  0  0  0  0
  2 11  1  0  0  0  0
  3 10  1  0  0  0  0
  3 11  2  0  0  0  0
  4  5  2  0  0  0  0
  4 19  1  0  0  0  0
  5 20  1  0  0  0  0
  6 12  1  0  0  0  0
  6 19  2  0  0  0  0
  7  9  2  0  0  0  0
  7 21  1  0  0  0  0
  8  9  1  0  0  0  0
  8 10  2  0  0  0  0
  9 14  1  0  0  0  0
 10 21  1  0  0  0  0
 11 24  1  0  0  0  0
 12 15  1  0  0  0  0
 12 20  2  0  0  0  0
 13 14  2  0  0  0  0
 13 16  1  0  0  0  0
 14 17  1  0  0  0  0
 15 22  1  0  0  0  0
 15 23  2  0  0  0  0
 16 22  1  0  0  0  0
 17 18  1  0  0  0  0
 18 22  1  0  0  0  0
  1 25  1  0  0  0  0
  2 26  1  0  0  0  0
  3 27  1  0  0  0  0
  4 28  1  0  0  0  0
  5 29  1  0  0  0  0
  6 30  1  0  0  0  0
  7 31  1  0  0  0  0
 13 32  1  0  0  0  0
 16 33  1  0  0  0  0
 16 34  1  0  0  0  0
 17 35  1  0  0  0  0
 17 36  1  0  0  0  0
 18 37  1  0  0  0  0
 18 38  1  0  0  0  0
 21 39  1  0  0  0  0
M  END
> <Hybrid2>
-10.363797

> <fragments>
x0107

> <site>
active-noncovalent

$$$$
top_hits_only_mpro-178_1
  -OEChem-03302021283D

 32 34  0     1  0  0  0  0  0999 V2000
    9.3225   -4.9582   25.8472 C   0  0  0  0  0  0  0  0  0  0  0  0
    5.0567    1.3783   19.0607 C   0  0  0  0  0  0  0  0  0  0  0  0
    5.5742    0.9693   20.2847 C   0  0  0  0  0  0  0  0  0  0  0  0
    9.2529   -3.8486   25.0048 C   0  0  0  0  0  0  0  0  0  0  0  0
    8.2395   -5.2824   26.6644 C   0  0  0  0  0  0  0  0  0  0  0  0
    7.0176   -3.3873   25.7969 C   0  0  0  0  0  0  0  0  0  0  0  0
    5.7545    1.0346   17.9141 C   0  0  0  0  0  0  0  0  0  0  0  0
    7.3786   -0.0535   19.1210 C   0  0  0  0  0  0  0  0  0  0  0  0
    6.7570    0.2394   20.3242 C   0  0  0  0  0  0  0  0  0  0  0  0
    8.1005   -3.0632   24.9797 C   0  0  0  0  0  0  0  0  0  0  0  0
    7.0871   -4.4969   26.6393 C   0  0  0  0  0  0  0  0  0  0  0  0
    7.3340   -0.2109   21.6170 C   0  0  0  0  0  0  0  0  0  0  0  0
    9.2694   -1.0624   23.8384 C   0  0  0  0  0  0  0  0  0  0  0  0
    8.0268   -1.8779   24.0795 C   0  0  1  0  0  0  0  0  0  0  0  0
    8.7272   -1.9292   22.7406 C   0  0  1  0  0  0  0  0  0  0  0  0
    6.9062    0.3268   17.9127 N   0  0  0  0  0  0  0  0  0  0  0  0
    8.1274   -1.3634   21.5847 N   0  0  0  0  0  0  0  0  0  0  0  0
    7.0800    0.4202   22.6396 O   0  0  0  0  0  0  0  0  0  0  0  0
    5.7512   -4.8975   27.6478 Cl  0  0  0  0  0  0  0  0  0  0  0  0
   10.2198   -5.5698   25.8668 H   0  0  0  0  0  0  0  0  0  0  0  0
    4.1359    1.9476   19.0056 H   0  0  0  0  0  0  0  0  0  0  0  0
    5.0487    1.2250   21.2009 H   0  0  0  0  0  0  0  0  0  0  0  0
   10.1021   -3.6045   24.3720 H   0  0  0  0  0  0  0  0  0  0  0  0
    8.3079   -6.1500   27.3157 H   0  0  0  0  0  0  0  0  0  0  0  0
    6.1208   -2.7720   25.7740 H   0  0  0  0  0  0  0  0  0  0  0  0
    5.3929    1.3302   16.9348 H   0  0  0  0  0  0  0  0  0  0  0  0
    8.3040   -0.6207   19.0879 H   0  0  0  0  0  0  0  0  0  0  0  0
    9.1499    0.0117   23.7555 H   0  0  0  0  0  0  0  0  0  0  0  0
   10.1982   -1.3666   24.3072 H   0  0  0  0  0  0  0  0  0  0  0  0
    7.0954   -1.3260   24.1248 H   0  0  0  0  0  0  0  0  0  0  0  0
    9.3011   -2.8187   22.5013 H   0  0  0  0  0  0  0  0  0  0  0  0
    8.2308   -1.8578   20.6910 H   0  0  0  0  0  0  0  0  0  0  0  0
  1  4  1  0  0  0  0
  1  5  2  0  0  0  0
  2  3  2  0  0  0  0
  2  7  1  0  0  0  0
  3  9  1  0  0  0  0
  4 10  2  0  0  0  0
  5 11  1  0  0  0  0
  6 10  1  0  0  0  0
  6 11  2  0  0  0  0
  7 16  2  0  0  0  0
  8  9  2  0  0  0  0
  8 16  1  0  0  0  0
  9 12  1  0  0  0  0
 10 14  1  0  0  0  0
 11 19  1  0  0  0  0
 12 17  1  0  0  0  0
 12 18  2  0  0  0  0
 13 14  1  0  0  0  0
 13 15  1  0  0  0  0
 14 15  1  0  0  0  0
 15 17  1  0  0  0  0
  1 20  1  0  0  0  0
  2 21  1  0  0  0  0
  3 22  1  0  0  0  0
  4 23  1  0  0  0  0
  5 24  1  0  0  0  0
  6 25  1  0  0  0  0
  7 26  1  0  0  0  0
  8 27  1  0  0  0  0
 13 28  1  0  0  0  0
 13 29  1  0  0  0  0
 14 30  1  0  0  0  0
 15 31  1  0  0  0  0
 17 32  1  0  0  0  0
M  END
> <Hybrid2>
-10.344867

> <fragments>
x0107

> <site>
active-noncovalent

$$$$
top_hits_only_mpro-142_1
  -OEChem-03302021283D

 42 45  0     0  0  0  0  0  0999 V2000
    5.0347   -5.1039   25.7259 C   0  0  0  0  0  0  0  0  0  0  0  0
    5.9927   -4.3677   25.0312 C   0  0  0  0  0  0  0  0  0  0  0  0
    6.7942    1.4274   20.8443 C   0  0  0  0  0  0  0  0  0  0  0  0
    5.8720    1.6236   19.8223 C   0  0  0  0  0  0  0  0  0  0  0  0
    5.4583   -6.1124   26.5810 C   0  0  0  0  0  0  0  0  0  0  0  0
    8.0937    0.1118   19.3485 C   0  0  0  0  0  0  0  0  0  0  0  0
    9.5831   -4.9589   25.3469 C   0  0  0  0  0  0  0  0  0  0  0  0
    7.3438   -4.6902   25.2371 C   0  0  0  0  0  0  0  0  0  0  0  0
    8.5895   -4.2121   24.7513 C   0  0  0  0  0  0  0  0  0  0  0  0
    7.9289    0.6584   20.6110 C   0  0  0  0  0  0  0  0  0  0  0  0
    6.1290    1.0340   18.5950 C   0  0  0  0  0  0  0  0  0  0  0  0
    7.6272   -5.7254   26.1233 C   0  0  0  0  0  0  0  0  0  0  0  0
    8.3389   -3.1589   22.5294 C   0  0  0  0  0  0  0  0  0  0  0  0
    8.8306   -3.1159   23.7828 C   0  0  0  0  0  0  0  0  0  0  0  0
    8.9240    0.4323   21.6707 C   0  0  0  0  0  0  0  0  0  0  0  0
    8.5161   -2.0710   21.5076 C   0  0  0  0  0  0  0  0  0  0  0  0
    9.6363   -1.9253   24.2443 C   0  0  0  0  0  0  0  0  0  0  0  0
   10.2139   -1.1447   23.0665 C   0  0  0  0  0  0  0  0  0  0  0  0
    5.1596    1.2223   17.4760 C   0  0  0  0  0  0  0  0  0  0  0  0
    7.2198    0.2804   18.3309 N   0  0  0  0  0  0  0  0  0  0  0  0
    6.7429   -6.4662   26.8177 N   0  0  0  0  0  0  0  0  0  0  0  0
    8.9882   -5.8737   26.1765 N   0  0  0  0  0  0  0  0  0  0  0  0
    9.1784   -0.8848   22.0686 N   0  0  0  0  0  0  0  0  0  0  0  0
    9.4692    1.4352   22.1297 O   0  0  0  0  0  0  0  0  0  0  0  0
    3.9780   -4.8928   25.6007 H   0  0  0  0  0  0  0  0  0  0  0  0
    5.6936   -3.5737   24.3543 H   0  0  0  0  0  0  0  0  0  0  0  0
    6.6196    1.8778   21.8176 H   0  0  0  0  0  0  0  0  0  0  0  0
    4.9830    2.2221   19.9902 H   0  0  0  0  0  0  0  0  0  0  0  0
    4.7250   -6.6966   27.1307 H   0  0  0  0  0  0  0  0  0  0  0  0
    8.9589   -0.4982   19.1062 H   0  0  0  0  0  0  0  0  0  0  0  0
   10.6608   -4.9255   25.2581 H   0  0  0  0  0  0  0  0  0  0  0  0
    7.7744   -4.0307   22.2055 H   0  0  0  0  0  0  0  0  0  0  0  0
    9.0940   -2.4638   20.6661 H   0  0  0  0  0  0  0  0  0  0  0  0
    7.5377   -1.7541   21.1300 H   0  0  0  0  0  0  0  0  0  0  0  0
    9.0093   -1.2426   24.8318 H   0  0  0  0  0  0  0  0  0  0  0  0
   10.4465   -2.2687   24.9001 H   0  0  0  0  0  0  0  0  0  0  0  0
   10.6041   -0.1731   23.3946 H   0  0  0  0  0  0  0  0  0  0  0  0
   11.0497   -1.6990   22.6267 H   0  0  0  0  0  0  0  0  0  0  0  0
    5.4203    2.1130   16.8920 H   0  0  0  0  0  0  0  0  0  0  0  0
    5.1541    0.3543   16.8046 H   0  0  0  0  0  0  0  0  0  0  0  0
    4.1356    1.3397   17.8529 H   0  0  0  0  0  0  0  0  0  0  0  0
    9.4782   -6.5535   26.7413 H   0  0  0  0  0  0  0  0  0  0  0  0
  1  2  1  0  0  0  0
  1  5  2  0  0  0  0
  2  8  2  0  0  0  0
  3  4  2  0  0  0  0
  3 10  1  0  0  0  0
  4 11  1  0  0  0  0
  5 21  1  0  0  0  0
  6 10  2  0  0  0  0
  6 20  1  0  0  0  0
  7  9  2  0  0  0  0
  7 22  1  0  0  0  0
  8  9  1  0  0  0  0
  8 12  1  0  0  0  0
  9 14  1  0  0  0  0
 10 15  1  0  0  0  0
 11 19  1  0  0  0  0
 11 20  2  0  0  0  0
 12 21  2  0  0  0  0
 12 22  1  0  0  0  0
 13 14  2  0  0  0  0
 13 16  1  0  0  0  0
 14 17  1  0  0  0  0
 15 23  1  0  0  0  0
 15 24  2  0  0  0  0
 16 23  1  0  0  0  0
 17 18  1  0  0  0  0
 18 23  1  0  0  0  0
  1 25  1  0  0  0  0
  2 26  1  0  0  0  0
  3 27  1  0  0  0  0
  4 28  1  0  0  0  0
  5 29  1  0  0  0  0
  6 30  1  0  0  0  0
  7 31  1  0  0  0  0
 13 32  1  0  0  0  0
 16 33  1  0  0  0  0
 16 34  1  0  0  0  0
 17 35  1  0  0  0  0
 17 36  1  0  0  0  0
 18 37  1  0  0  0  0
 18 38  1  0  0  0  0
 19 39  1  0  0  0  0
 19 40  1  0  0  0  0
 19 41  1  0  0  0  0
 22 42  1  0  0  0  0
M  END
> <Hybrid2>
-10.336166

> <fragments>
x0107

> <site>
active-noncovalent

$$$$
top_hits_only_mpro-310_1
  -OEChem-03302021283D

 42 44  0     1  0  0  0  0  0999 V2000
    4.8149   -6.2446   23.3924 C   0  0  0  0  0  0  0  0  0  0  0  0
    4.9746   -5.3952   24.4873 C   0  0  0  0  0  0  0  0  0  0  0  0
    5.5943   -6.0636   22.2498 C   0  0  0  0  0  0  0  0  0  0  0  0
    5.2543    0.2475   19.5761 C   0  0  0  0  0  0  0  0  0  0  0  0
    6.1639    0.1407   20.6222 C   0  0  0  0  0  0  0  0  0  0  0  0
    5.9136   -4.3649   24.4395 C   0  0  0  0  0  0  0  0  0  0  0  0
    6.5333   -5.0333   22.2021 C   0  0  0  0  0  0  0  0  0  0  0  0
    5.7527    0.2746   18.2835 C   0  0  0  0  0  0  0  0  0  0  0  0
    7.9217    0.1004   19.0207 C   0  0  0  0  0  0  0  0  0  0  0  0
    7.5249    0.0653   20.3478 C   0  0  0  0  0  0  0  0  0  0  0  0
    6.6930   -4.1839   23.2969 C   0  0  0  0  0  0  0  0  0  0  0  0
    8.5108   -0.0479   21.4344 C   0  0  0  0  0  0  0  0  0  0  0  0
    8.5753    1.1494   24.1920 C   0  0  0  0  0  0  0  0  0  0  0  0
    9.7012    1.3776   25.1754 C   0  0  0  0  0  0  0  0  0  0  0  0
   10.2544   -0.4662   23.8630 C   0  0  0  0  0  0  0  0  0  0  0  0
    8.7442   -0.3163   23.8642 C   0  0  2  0  0  0  0  0  0  0  0  0
    7.7088   -3.0693   23.2445 C   0  0  0  0  0  0  0  0  0  0  0  0
    7.1345   -1.7654   22.6957 C   0  0  0  0  0  0  0  0  0  0  0  0
    7.0677    0.2036   17.9778 N   0  0  0  0  0  0  0  0  0  0  0  0
    8.1357   -0.6956   22.6236 N   0  0  0  0  0  0  0  0  0  0  0  0
    9.6224    0.4311   21.2131 O   0  0  0  0  0  0  0  0  0  0  0  0
   10.7722    0.5101   24.7794 O   0  0  0  0  0  0  0  0  0  0  0  0
    4.0847   -7.0476   23.4303 H   0  0  0  0  0  0  0  0  0  0  0  0
    4.3686   -5.5366   25.3775 H   0  0  0  0  0  0  0  0  0  0  0  0
    5.4710   -6.7254   21.3977 H   0  0  0  0  0  0  0  0  0  0  0  0
    4.1888    0.3071   19.7660 H   0  0  0  0  0  0  0  0  0  0  0  0
    5.8019    0.1178   21.6466 H   0  0  0  0  0  0  0  0  0  0  0  0
    6.0310   -3.7078   25.2973 H   0  0  0  0  0  0  0  0  0  0  0  0
    7.1360   -4.8998   21.3076 H   0  0  0  0  0  0  0  0  0  0  0  0
    5.0846    0.3573   17.4327 H   0  0  0  0  0  0  0  0  0  0  0  0
    8.9703    0.0445   18.7441 H   0  0  0  0  0  0  0  0  0  0  0  0
    7.6144    1.2982   24.6945 H   0  0  0  0  0  0  0  0  0  0  0  0
    8.6123    1.8180   23.3307 H   0  0  0  0  0  0  0  0  0  0  0  0
   10.0698    2.4068   25.1296 H   0  0  0  0  0  0  0  0  0  0  0  0
    9.4107    1.1562   26.2051 H   0  0  0  0  0  0  0  0  0  0  0  0
   10.5452   -1.4537   24.2385 H   0  0  0  0  0  0  0  0  0  0  0  0
   10.7120   -0.3304   22.8781 H   0  0  0  0  0  0  0  0  0  0  0  0
    8.2820   -0.9694   24.6453 H   0  0  0  0  0  0  0  0  0  0  0  0
    8.5462   -3.3910   22.6124 H   0  0  0  0  0  0  0  0  0  0  0  0
    8.1311   -2.9048   24.2441 H   0  0  0  0  0  0  0  0  0  0  0  0
    6.7643   -1.9204   21.6774 H   0  0  0  0  0  0  0  0  0  0  0  0
    6.3042   -1.4000   23.3089 H   0  0  0  0  0  0  0  0  0  0  0  0
  1  2  1  0  0  0  0
  1  3  2  0  0  0  0
  2  6  2  0  0  0  0
  3  7  1  0  0  0  0
  4  5  2  0  0  0  0
  4  8  1  0  0  0  0
  5 10  1  0  0  0  0
  6 11  1  0  0  0  0
  7 11  2  0  0  0  0
  8 19  2  0  0  0  0
  9 10  2  0  0  0  0
  9 19  1  0  0  0  0
 10 12  1  0  0  0  0
 11 17  1  0  0  0  0
 12 20  1  0  0  0  0
 12 21  2  0  0  0  0
 13 14  1  0  0  0  0
 13 16  1  0  0  0  0
 14 22  1  0  0  0  0
 15 16  1  0  0  0  0
 15 22  1  0  0  0  0
 16 20  1  0  0  0  0
 17 18  1  0  0  0  0
 18 20  1  0  0  0  0
  1 23  1  0  0  0  0
  2 24  1  0  0  0  0
  3 25  1  0  0  0  0
  4 26  1  0  0  0  0
  5 27  1  0  0  0  0
  6 28  1  0  0  0  0
  7 29  1  0  0  0  0
  8 30  1  0  0  0  0
  9 31  1  0  0  0  0
 13 32  1  0  0  0  0
 13 33  1  0  0  0  0
 14 34  1  0  0  0  0
 14 35  1  0  0  0  0
 15 36  1  0  0  0  0
 15 37  1  0  0  0  0
 16 38  1  0  0  0  0
 17 39  1  0  0  0  0
 17 40  1  0  0  0  0
 18 41  1  0  0  0  0
 18 42  1  0  0  0  0
M  END
> <Hybrid2>
-10.329972

> <fragments>
x0107

> <site>
active-noncovalent

$$$$
top_hits_only_mpro-40_1
  -OEChem-03302021283D

 50 54  0     0  0  0  0  0  0999 V2000
   10.6344   -5.0445   26.8875 C   0  0  0  0  0  0  0  0  0  0  0  0
    9.2745   -5.1229   27.1874 C   0  0  0  0  0  0  0  0  0  0  0  0
   11.0476   -4.8347   25.5718 C   0  0  0  0  0  0  0  0  0  0  0  0
    4.9568    1.0305   19.4054 C   0  0  0  0  0  0  0  0  0  0  0  0
    8.3276   -4.9916   26.1715 C   0  0  0  0  0  0  0  0  0  0  0  0
   10.1008   -4.7035   24.5560 C   0  0  0  0  0  0  0  0  0  0  0  0
    5.3392    0.1159   20.3804 C   0  0  0  0  0  0  0  0  0  0  0  0
    5.5793    0.9595   18.1697 C   0  0  0  0  0  0  0  0  0  0  0  0
    6.8802   -0.8164   18.8272 C   0  0  0  0  0  0  0  0  0  0  0  0
    6.8884   -5.6828   23.5594 C   0  0  0  0  0  0  0  0  0  0  0  0
    7.5520   -3.5330   22.9327 C   0  0  0  0  0  0  0  0  0  0  0  0
    8.7407   -4.7819   24.8558 C   0  0  0  0  0  0  0  0  0  0  0  0
    6.3187   -0.8284   20.0938 C   0  0  0  0  0  0  0  0  0  0  0  0
    7.7625   -4.6464   23.8058 C   0  0  0  0  0  0  0  0  0  0  0  0
    8.1774   -2.2883   22.8082 C   0  0  0  0  0  0  0  0  0  0  0  0
    6.5089   -3.7861   22.0514 C   0  0  0  0  0  0  0  0  0  0  0  0
    6.7368   -1.7892   21.0833 C   0  0  0  0  0  0  0  0  0  0  0  0
    8.9372   -0.3924   25.5191 C   0  0  0  0  0  0  0  0  0  0  0  0
   10.2775    0.2739   23.4769 C   0  0  0  0  0  0  0  0  0  0  0  0
    9.0931   -1.8530   25.0940 C   0  0  0  0  0  0  0  0  0  0  0  0
   10.3946   -1.2074   23.1025 C   0  0  0  0  0  0  0  0  0  0  0  0
   10.1059    0.4603   24.9947 C   0  0  0  0  0  0  0  0  0  0  0  0
    9.9011    1.9332   25.3410 C   0  0  0  0  0  0  0  0  0  0  0  0
    6.5346    0.0564   17.8543 N   0  0  0  0  0  0  0  0  0  0  0  0
    7.7618   -1.4095   21.8712 N   0  0  0  0  0  0  0  0  0  0  0  0
    6.0538   -2.9477   21.0998 N   0  0  0  0  0  0  0  0  0  0  0  0
    9.2341   -1.9275   23.6377 N   0  0  0  0  0  0  0  0  0  0  0  0
    5.8110   -5.3240   22.2802 S   0  0  0  0  0  0  0  0  0  0  0  0
   11.3718   -5.1457   27.6785 H   0  0  0  0  0  0  0  0  0  0  0  0
    8.9526   -5.2850   28.2118 H   0  0  0  0  0  0  0  0  0  0  0  0
   12.1065   -4.7725   25.3388 H   0  0  0  0  0  0  0  0  0  0  0  0
    4.1949    1.7751   19.6054 H   0  0  0  0  0  0  0  0  0  0  0  0
    7.2711   -5.0551   26.4213 H   0  0  0  0  0  0  0  0  0  0  0  0
   10.4391   -4.5403   23.5354 H   0  0  0  0  0  0  0  0  0  0  0  0
    4.8658    0.1510   21.3584 H   0  0  0  0  0  0  0  0  0  0  0  0
    5.3168    1.6508   17.3752 H   0  0  0  0  0  0  0  0  0  0  0  0
    7.6490   -1.5280   18.5399 H   0  0  0  0  0  0  0  0  0  0  0  0
    6.8218   -6.6375   24.0639 H   0  0  0  0  0  0  0  0  0  0  0  0
    7.9884   -0.0021   25.1396 H   0  0  0  0  0  0  0  0  0  0  0  0
    8.8979   -0.3362   26.6096 H   0  0  0  0  0  0  0  0  0  0  0  0
   11.1753    0.8019   23.1370 H   0  0  0  0  0  0  0  0  0  0  0  0
    9.4271    0.7166   22.9444 H   0  0  0  0  0  0  0  0  0  0  0  0
    9.9713   -2.2892   25.5781 H   0  0  0  0  0  0  0  0  0  0  0  0
    8.2115   -2.4099   25.4220 H   0  0  0  0  0  0  0  0  0  0  0  0
   10.4295   -1.2912   22.0159 H   0  0  0  0  0  0  0  0  0  0  0  0
   11.3161   -1.6223   23.5129 H   0  0  0  0  0  0  0  0  0  0  0  0
   11.0326    0.1257   25.4939 H   0  0  0  0  0  0  0  0  0  0  0  0
    8.9936    2.3020   24.8654 H   0  0  0  0  0  0  0  0  0  0  0  0
   10.7502    2.5171   24.9890 H   0  0  0  0  0  0  0  0  0  0  0  0
    9.8108    2.0501   26.4199 H   0  0  0  0  0  0  0  0  0  0  0  0
  1  2  1  0  0  0  0
  1  3  2  0  0  0  0
  2  5  2  0  0  0  0
  3  6  1  0  0  0  0
  4  7  2  0  0  0  0
  4  8  1  0  0  0  0
  5 12  1  0  0  0  0
  6 12  2  0  0  0  0
  7 13  1  0  0  0  0
  8 24  2  0  0  0  0
  9 13  2  0  0  0  0
  9 24  1  0  0  0  0
 10 14  2  0  0  0  0
 10 28  1  0  0  0  0
 11 14  1  0  0  0  0
 11 15  2  0  0  0  0
 11 16  1  0  0  0  0
 12 14  1  0  0  0  0
 13 17  1  0  0  0  0
 15 25  1  0  0  0  0
 15 27  1  0  0  0  0
 16 26  2  0  0  0  0
 16 28  1  0  0  0  0
 17 25  2  0  0  0  0
 17 26  1  0  0  0  0
 18 20  1  0  0  0  0
 18 22  1  0  0  0  0
 19 21  1  0  0  0  0
 19 22  1  0  0  0  0
 20 27  1  0  0  0  0
 21 27  1  0  0  0  0
 22 23  1  0  0  0  0
  1 29  1  0  0  0  0
  2 30  1  0  0  0  0
  3 31  1  0  0  0  0
  4 32  1  0  0  0  0
  5 33  1  0  0  0  0
  6 34  1  0  0  0  0
  7 35  1  0  0  0  0
  8 36  1  0  0  0  0
  9 37  1  0  0  0  0
 10 38  1  0  0  0  0
 18 39  1  0  0  0  0
 18 40  1  0  0  0  0
 19 41  1  0  0  0  0
 19 42  1  0  0  0  0
 20 43  1  0  0  0  0
 20 44  1  0  0  0  0
 21 45  1  0  0  0  0
 21 46  1  0  0  0  0
 22 47  1  0  0  0  0
 23 48  1  0  0  0  0
 23 49  1  0  0  0  0
 23 50  1  0  0  0  0
M  END
> <Hybrid2>
-10.321548

> <fragments>
x0107

> <site>
active-noncovalent

$$$$
top_hits_only_mpro-192_1
  -OEChem-03302021283D

 40 42  0     1  0  0  0  0  0999 V2000
   10.1430   -1.1743   25.5465 C   0  0  0  0  0  0  0  0  0  0  0  0
    8.8797   -0.8719   26.0123 C   0  0  0  0  0  0  0  0  0  0  0  0
    8.9229   -0.4037   18.8715 C   0  0  0  0  0  0  0  0  0  0  0  0
    7.3426   -0.0270   20.5500 C   0  0  0  0  0  0  0  0  0  0  0  0
    6.8480    0.3766   18.3683 C   0  0  0  0  0  0  0  0  0  0  0  0
    8.8637    1.0812   24.8495 C   0  0  0  0  0  0  0  0  0  0  0  0
    8.6169   -0.4386   20.2167 C   0  0  0  0  0  0  0  0  0  0  0  0
   10.7058   -0.2420   24.6990 C   0  0  0  0  0  0  0  0  0  0  0  0
    9.5860   -0.8860   21.2297 C   0  0  0  0  0  0  0  0  0  0  0  0
   14.0587   -0.0850   23.1974 C   0  0  0  0  0  0  0  0  0  0  0  0
   12.9612   -1.2900   24.9585 C   0  0  0  0  0  0  0  0  0  0  0  0
   14.1810   -1.3356   24.0489 C   0  0  1  0  0  0  0  0  0  0  0  0
   12.5440    0.0738   22.9902 C   0  0  1  0  0  0  0  0  0  0  0  0
   10.7540    1.2684   20.9680 C   0  0  0  0  0  0  0  0  0  0  0  0
   12.0599   -0.6763   21.7500 C   0  0  0  0  0  0  0  0  0  0  0  0
    8.2082    0.2510   25.6829 N   0  0  0  0  0  0  0  0  0  0  0  0
    8.0594   -0.0002   17.9166 N   0  0  0  0  0  0  0  0  0  0  0  0
    6.4292    0.3886   19.6482 N   0  0  0  0  0  0  0  0  0  0  0  0
   10.0921    0.9008   24.3280 N   0  0  0  0  0  0  0  0  0  0  0  0
   11.9718   -0.5083   24.2107 N   0  0  0  0  0  0  0  0  0  0  0  0
   10.8005   -0.1577   21.3303 N   0  0  0  0  0  0  0  0  0  0  0  0
    9.2521   -1.8536   21.9125 O   0  0  0  0  0  0  0  0  0  0  0  0
   14.0956   -2.4322   23.2502 F   0  0  0  0  0  0  0  0  0  0  0  0
   10.6475   -2.0878   25.8354 H   0  0  0  0  0  0  0  0  0  0  0  0
    8.3564   -1.5450   26.6831 H   0  0  0  0  0  0  0  0  0  0  0  0
    9.8981   -0.7087   18.5049 H   0  0  0  0  0  0  0  0  0  0  0  0
    7.0022   -0.0170   21.5808 H   0  0  0  0  0  0  0  0  0  0  0  0
    6.1346    0.7055   17.6227 H   0  0  0  0  0  0  0  0  0  0  0  0
    8.3476    1.9910   24.5682 H   0  0  0  0  0  0  0  0  0  0  0  0
   14.4446    0.7792   23.7513 H   0  0  0  0  0  0  0  0  0  0  0  0
   14.6024   -0.1732   22.2522 H   0  0  0  0  0  0  0  0  0  0  0  0
   12.5818   -2.2913   25.1843 H   0  0  0  0  0  0  0  0  0  0  0  0
   13.2098   -0.7714   25.8917 H   0  0  0  0  0  0  0  0  0  0  0  0
   15.1253   -1.3889   24.5985 H   0  0  0  0  0  0  0  0  0  0  0  0
   12.3036    1.1348   22.8896 H   0  0  0  0  0  0  0  0  0  0  0  0
   10.5157    1.8663   21.8601 H   0  0  0  0  0  0  0  0  0  0  0  0
   11.7317    1.5776   20.5700 H   0  0  0  0  0  0  0  0  0  0  0  0
    9.9798    1.4271   20.2029 H   0  0  0  0  0  0  0  0  0  0  0  0
   12.8091   -0.5361   20.9714 H   0  0  0  0  0  0  0  0  0  0  0  0
   11.9687   -1.7279   22.0203 H   0  0  0  0  0  0  0  0  0  0  0  0
  1  2  2  0  0  0  0
  1  8  1  0  0  0  0
  2 16  1  0  0  0  0
  3  7  1  0  0  0  0
  3 17  2  0  0  0  0
  4  7  2  0  0  0  0
  4 18  1  0  0  0  0
  5 17  1  0  0  0  0
  5 18  2  0  0  0  0
  6 16  2  0  0  0  0
  6 19  1  0  0  0  0
  7  9  1  0  0  0  0
  8 19  2  0  0  0  0
  8 20  1  0  0  0  0
  9 21  1  0  0  0  0
  9 22  2  0  0  0  0
 10 12  1  0  0  0  0
 10 13  1  0  0  0  0
 11 12  1  0  0  0  0
 11 20  1  0  0  0  0
 12 23  1  0  0  0  0
 13 15  1  0  0  0  0
 13 20  1  0  0  0  0
 14 21  1  0  0  0  0
 15 21  1  0  0  0  0
  1 24  1  0  0  0  0
  2 25  1  0  0  0  0
  3 26  1  0  0  0  0
  4 27  1  0  0  0  0
  5 28  1  0  0  0  0
  6 29  1  0  0  0  0
 10 30  1  0  0  0  0
 10 31  1  0  0  0  0
 11 32  1  0  0  0  0
 11 33  1  0  0  0  0
 12 34  1  0  0  0  0
 13 35  1  0  0  0  0
 14 36  1  0  0  0  0
 14 37  1  0  0  0  0
 14 38  1  0  0  0  0
 15 39  1  0  0  0  0
 15 40  1  0  0  0  0
M  END
> <Hybrid2>
-10.310182

> <fragments>
x0678

> <site>
active-noncovalent

$$$$
top_hits_only_mpro-498_1
  -OEChem-03302021283D

 48 52  0     1  0  0  0  0  0999 V2000
    7.8469    2.5275   24.8549 C   0  0  0  0  0  0  0  0  0  0  0  0
    8.1526    3.8186   24.4291 C   0  0  0  0  0  0  0  0  0  0  0  0
    9.5811    2.8945   22.7268 C   0  0  0  0  0  0  0  0  0  0  0  0
    5.1138    0.9375   23.0326 C   0  0  0  0  0  0  0  0  0  0  0  0
    9.2866    1.5800   23.1424 C   0  0  0  0  0  0  0  0  0  0  0  0
    6.4917    0.3019   20.8418 C   0  0  0  0  0  0  0  0  0  0  0  0
    8.4120    1.3920   24.2359 C   0  0  0  0  0  0  0  0  0  0  0  0
    9.0259    4.0023   23.3673 C   0  0  0  0  0  0  0  0  0  0  0  0
    6.2416    0.1683   23.1193 C   0  0  0  0  0  0  0  0  0  0  0  0
    5.3421    1.0880   20.7388 C   0  0  0  0  0  0  0  0  0  0  0  0
    7.1425    0.0215   19.6555 C   0  0  0  0  0  0  0  0  0  0  0  0
    5.6317    1.1942   18.4653 C   0  0  0  0  0  0  0  0  0  0  0  0
    9.8471    0.4914   22.3120 C   0  0  0  0  0  0  0  0  0  0  0  0
    9.9175   -0.8296   22.5396 C   0  0  0  0  0  0  0  0  0  0  0  0
    8.8428   -3.0005   26.1278 C   0  0  0  0  0  0  0  0  0  0  0  0
    8.8704   -1.6620   26.1759 C   0  0  0  0  0  0  0  0  0  0  0  0
    9.4860   -2.9202   23.6969 C   0  0  0  0  0  0  0  0  0  0  0  0
    9.5136   -1.5733   23.7200 C   0  0  0  0  0  0  0  0  0  0  0  0
    9.1272   -3.7749   24.8785 C   0  0  0  0  0  0  0  0  0  0  0  0
    9.1899   -0.7995   24.9779 C   0  0  1  0  0  0  0  0  0  0  0  0
    6.7322   -0.3380   24.4449 C   0  0  0  0  0  0  0  0  0  0  0  0
    4.6626    1.3975   21.8497 N   0  0  0  0  0  0  0  0  0  0  0  0
    6.9444   -0.1588   22.0238 N   0  0  0  0  0  0  0  0  0  0  0  0
    4.9129    1.5336   19.5518 N   0  0  0  0  0  0  0  0  0  0  0  0
    6.7433    0.4501   18.4444 N   0  0  0  0  0  0  0  0  0  0  0  0
    8.0821    0.1295   24.7424 N   0  0  2  0  0  0  0  0  0  0  0  0
    8.3175   -0.7720   19.7136 N   0  0  0  0  0  0  0  0  0  0  0  0
    5.1661    1.6752   17.2226 N   0  0  0  0  0  0  0  0  0  0  0  0
    9.3293    5.2587   22.9418 O   0  0  0  0  0  0  0  0  0  0  0  0
    7.1768    2.4159   25.7037 H   0  0  0  0  0  0  0  0  0  0  0  0
    7.7106    4.6720   24.9341 H   0  0  0  0  0  0  0  0  0  0  0  0
   10.2447    3.0669   21.8797 H   0  0  0  0  0  0  0  0  0  0  0  0
    4.5291    1.2184   23.9002 H   0  0  0  0  0  0  0  0  0  0  0  0
   10.2286    0.8204   21.3445 H   0  0  0  0  0  0  0  0  0  0  0  0
   10.3408   -1.4318   21.7338 H   0  0  0  0  0  0  0  0  0  0  0  0
    8.6059   -3.5609   27.0274 H   0  0  0  0  0  0  0  0  0  0  0  0
    8.6598   -1.1639   27.1187 H   0  0  0  0  0  0  0  0  0  0  0  0
    9.7420   -3.4577   22.7861 H   0  0  0  0  0  0  0  0  0  0  0  0
    9.9570   -4.4634   25.0757 H   0  0  0  0  0  0  0  0  0  0  0  0
    8.2503   -4.3816   24.6256 H   0  0  0  0  0  0  0  0  0  0  0  0
   10.0870   -0.2387   25.2835 H   0  0  0  0  0  0  0  0  0  0  0  0
    6.0735   -0.0034   25.2538 H   0  0  0  0  0  0  0  0  0  0  0  0
    6.7445   -1.4328   24.4673 H   0  0  0  0  0  0  0  0  0  0  0  0
    8.6586   -1.0587   20.6040 H   0  0  0  0  0  0  0  0  0  0  0  0
    8.8225   -0.9422   18.8724 H   0  0  0  0  0  0  0  0  0  0  0  0
    4.3141    2.1966   17.1908 H   0  0  0  0  0  0  0  0  0  0  0  0
    5.6442    1.4067   16.3870 H   0  0  0  0  0  0  0  0  0  0  0  0
    9.9493    5.2212   22.1959 H   0  0  0  0  0  0  0  0  0  0  0  0
  1  2  2  0  0  0  0
  1  7  1  0  0  0  0
  2  8  1  0  0  0  0
  3  5  1  0  0  0  0
  3  8  2  0  0  0  0
  4  9  1  0  0  0  0
  4 22  2  0  0  0  0
  5  7  2  0  0  0  0
  5 13  1  0  0  0  0
  6 10  1  0  0  0  0
  6 11  2  0  0  0  0
  6 23  1  0  0  0  0
  7 26  1  0  0  0  0
  8 29  1  0  0  0  0
  9 21  1  0  0  0  0
  9 23  2  0  0  0  0
 10 22  1  0  0  0  0
 10 24  2  0  0  0  0
 11 25  1  0  0  0  0
 11 27  1  0  0  0  0
 12 24  1  0  0  0  0
 12 25  2  0  0  0  0
 12 28  1  0  0  0  0
 13 14  2  0  0  0  0
 14 18  1  0  0  0  0
 15 16  2  0  0  0  0
 15 19  1  0  0  0  0
 16 20  1  0  0  0  0
 17 18  2  0  0  0  0
 17 19  1  0  0  0  0
 18 20  1  0  0  0  0
 20 26  1  0  0  0  0
 21 26  1  0  0  0  0
  1 30  1  0  0  0  0
  2 31  1  0  0  0  0
  3 32  1  0  0  0  0
  4 33  1  0  0  0  0
 13 34  1  0  0  0  0
 14 35  1  0  0  0  0
 15 36  1  0  0  0  0
 16 37  1  0  0  0  0
 17 38  1  0  0  0  0
 19 39  1  0  0  0  0
 19 40  1  0  0  0  0
 20 41  1  0  0  0  0
 21 42  1  0  0  0  0
 21 43  1  0  0  0  0
 27 44  1  0  0  0  0
 27 45  1  0  0  0  0
 28 46  1  0  0  0  0
 28 47  1  0  0  0  0
 29 48  1  0  0  0  0
M  END
> <Hybrid2>
-10.276102

> <fragments>
x0107

> <site>
active-noncovalent

$$$$
top_hits_only_mpro-339_1
  -OEChem-03302021283D

 38 40  0     0  0  0  0  0  0999 V2000
   13.9687   -0.9345   22.3055 C   0  0  0  0  0  0  0  0  0  0  0  0
   14.2296    0.4248   22.1329 C   0  0  0  0  0  0  0  0  0  0  0  0
   12.7909   -1.3448   22.9300 C   0  0  0  0  0  0  0  0  0  0  0  0
   12.1348    0.9635   23.2094 C   0  0  0  0  0  0  0  0  0  0  0  0
   10.4517    7.0135   24.4743 C   0  0  0  0  0  0  0  0  0  0  0  0
    8.9141    6.8085   22.9158 C   0  0  0  0  0  0  0  0  0  0  0  0
   13.3126    1.3738   22.5848 C   0  0  0  0  0  0  0  0  0  0  0  0
   11.8739   -0.3958   23.3820 C   0  0  0  0  0  0  0  0  0  0  0  0
   10.1081    6.2701   23.3293 C   0  0  0  0  0  0  0  0  0  0  0  0
    9.0417   -2.0835   24.8932 C   0  0  0  0  0  0  0  0  0  0  0  0
    8.6767   -0.8073   25.0440 C   0  0  0  0  0  0  0  0  0  0  0  0
   12.0236    4.6372   23.1161 C   0  0  0  0  0  0  0  0  0  0  0  0
   10.3672   -2.1949   24.2143 C   0  0  0  0  0  0  0  0  0  0  0  0
    9.7044    0.1230   24.4882 C   0  0  0  0  0  0  0  0  0  0  0  0
   13.5922    2.8270   22.4007 C   0  0  0  0  0  0  0  0  0  0  0  0
    9.5491    7.9527   24.7693 N   0  0  0  0  0  0  0  0  0  0  0  0
    8.6265    7.8032   23.8036 N   0  0  0  0  0  0  0  0  0  0  0  0
   10.6828   -0.8109   24.0131 N   0  0  0  0  0  0  0  0  0  0  0  0
   10.8102    5.2052   22.7179 N   0  0  0  0  0  0  0  0  0  0  0  0
   12.3870    3.6016   22.2458 N   0  0  0  0  0  0  0  0  0  0  0  0
   12.7050    4.9684   24.0834 O   0  0  0  0  0  0  0  0  0  0  0  0
   14.6828   -1.6735   21.9534 H   0  0  0  0  0  0  0  0  0  0  0  0
   15.1500    0.7356   21.6451 H   0  0  0  0  0  0  0  0  0  0  0  0
   12.5975   -2.4067   23.0591 H   0  0  0  0  0  0  0  0  0  0  0  0
   11.4208    1.7048   23.5610 H   0  0  0  0  0  0  0  0  0  0  0  0
   11.3215    6.9122   25.1080 H   0  0  0  0  0  0  0  0  0  0  0  0
    8.2560    6.5810   22.0891 H   0  0  0  0  0  0  0  0  0  0  0  0
    8.4561   -2.9305   25.2191 H   0  0  0  0  0  0  0  0  0  0  0  0
    7.7565   -0.4844   25.5082 H   0  0  0  0  0  0  0  0  0  0  0  0
   11.0975   -2.6916   24.8611 H   0  0  0  0  0  0  0  0  0  0  0  0
   10.2769   -2.7366   23.2672 H   0  0  0  0  0  0  0  0  0  0  0  0
    9.2858    0.7272   23.6770 H   0  0  0  0  0  0  0  0  0  0  0  0
   10.1062    0.7744   25.2709 H   0  0  0  0  0  0  0  0  0  0  0  0
   14.1396    3.2373   23.2610 H   0  0  0  0  0  0  0  0  0  0  0  0
   14.2143    3.0086   21.5134 H   0  0  0  0  0  0  0  0  0  0  0  0
    7.8212    8.4166   23.8102 H   0  0  0  0  0  0  0  0  0  0  0  0
   10.3751    4.8077   21.8891 H   0  0  0  0  0  0  0  0  0  0  0  0
   11.7702    3.3857   21.4666 H   0  0  0  0  0  0  0  0  0  0  0  0
  1  2  2  0  0  0  0
  1  3  1  0  0  0  0
  2  7  1  0  0  0  0
  3  8  2  0  0  0  0
  4  7  2  0  0  0  0
  4  8  1  0  0  0  0
  5  9  1  0  0  0  0
  5 16  2  0  0  0  0
  6  9  2  0  0  0  0
  6 17  1  0  0  0  0
  7 15  1  0  0  0  0
  8 18  1  0  0  0  0
  9 19  1  0  0  0  0
 10 11  2  0  0  0  0
 10 13  1  0  0  0  0
 11 14  1  0  0  0  0
 12 19  1  0  0  0  0
 12 20  1  0  0  0  0
 12 21  2  0  0  0  0
 13 18  1  0  0  0  0
 14 18  1  0  0  0  0
 15 20  1  0  0  0  0
 16 17  1  0  0  0  0
  1 22  1  0  0  0  0
  2 23  1  0  0  0  0
  3 24  1  0  0  0  0
  4 25  1  0  0  0  0
  5 26  1  0  0  0  0
  6 27  1  0  0  0  0
 10 28  1  0  0  0  0
 11 29  1  0  0  0  0
 13 30  1  0  0  0  0
 13 31  1  0  0  0  0
 14 32  1  0  0  0  0
 14 33  1  0  0  0  0
 15 34  1  0  0  0  0
 15 35  1  0  0  0  0
 17 36  1  0  0  0  0
 19 37  1  0  0  0  0
 20 38  1  0  0  0  0
M  END
> <Hybrid2>
-10.249241

> <fragments>
x0195

> <site>
active-noncovalent

$$$$
top_hits_only_mpro-224_1
  -OEChem-03302021283D

 52 55  0     1  0  0  0  0  0999 V2000
    6.7872   -1.3685   21.8974 C   0  0  0  0  0  0  0  0  0  0  0  0
    5.0095   -5.5756   24.3518 C   0  0  0  0  0  0  0  0  0  0  0  0
    6.3973   -5.6589   24.3338 C   0  0  0  0  0  0  0  0  0  0  0  0
    4.3652   -5.2299   23.1749 C   0  0  0  0  0  0  0  0  0  0  0  0
    6.3513   -5.0603   22.0325 C   0  0  0  0  0  0  0  0  0  0  0  0
    7.0887   -5.3978   23.1560 C   0  0  0  0  0  0  0  0  0  0  0  0
    9.2765   -4.5056   24.0817 C   0  0  0  0  0  0  0  0  0  0  0  0
   13.4919   -1.4760   23.8495 C   0  0  0  0  0  0  0  0  0  0  0  0
   12.5285   -1.4619   26.1649 C   0  0  0  0  0  0  0  0  0  0  0  0
   11.8461    0.2966   24.5123 C   0  0  0  0  0  0  0  0  0  0  0  0
   11.8603   -3.2506   24.5396 C   0  0  0  0  0  0  0  0  0  0  0  0
   11.1772   -1.4902   22.8853 C   0  0  0  0  0  0  0  0  0  0  0  0
   10.2121   -1.4755   25.2041 C   0  0  0  0  0  0  0  0  0  0  0  0
   13.0201   -2.3596   25.0166 C   0  0  0  0  0  0  0  0  0  0  0  0
   12.3343   -0.5920   23.3555 C   0  0  0  0  0  0  0  0  0  0  0  0
   11.3658   -0.5776   25.6832 C   0  0  0  0  0  0  0  0  0  0  0  0
   10.6822   -2.3817   24.0457 C   0  0  0  0  0  0  0  0  0  0  0  0
    9.0447   -6.9255   23.3782 C   0  0  0  0  0  0  0  0  0  0  0  0
    7.5995   -1.9111   22.9966 C   0  0  0  0  0  0  0  0  0  0  0  0
    8.8071   -2.6881   22.4832 C   0  0  0  0  0  0  0  0  0  0  0  0
    8.6047   -5.4811   23.1035 C   0  0  1  0  0  0  0  0  0  0  0  0
    6.1449   -0.9395   21.0316 N   0  0  0  0  0  0  0  0  0  0  0  0
    5.0026   -4.9692   22.0115 N   0  0  0  0  0  0  0  0  0  0  0  0
    9.5952   -3.2231   23.5957 N   0  0  0  0  0  0  0  0  0  0  0  0
    9.4997   -4.8621   25.2441 O   0  0  0  0  0  0  0  0  0  0  0  0
    4.4498   -5.7751   25.2584 H   0  0  0  0  0  0  0  0  0  0  0  0
    6.9312   -5.9280   25.2412 H   0  0  0  0  0  0  0  0  0  0  0  0
    3.2837   -5.1511   23.1370 H   0  0  0  0  0  0  0  0  0  0  0  0
    6.8358   -4.8457   21.0850 H   0  0  0  0  0  0  0  0  0  0  0  0
   14.3316   -0.8479   24.1710 H   0  0  0  0  0  0  0  0  0  0  0  0
   13.8604   -2.1039   23.0289 H   0  0  0  0  0  0  0  0  0  0  0  0
   12.2038   -2.0801   27.0110 H   0  0  0  0  0  0  0  0  0  0  0  0
   13.3512   -0.8332   26.5271 H   0  0  0  0  0  0  0  0  0  0  0  0
   12.6570    0.9558   24.8457 H   0  0  0  0  0  0  0  0  0  0  0  0
   11.0304    0.9443   24.1685 H   0  0  0  0  0  0  0  0  0  0  0  0
   12.2129   -3.9085   23.7345 H   0  0  0  0  0  0  0  0  0  0  0  0
   11.5350   -3.8997   25.3631 H   0  0  0  0  0  0  0  0  0  0  0  0
   10.3574   -0.8641   22.5097 H   0  0  0  0  0  0  0  0  0  0  0  0
   11.5145   -2.1112   22.0451 H   0  0  0  0  0  0  0  0  0  0  0  0
    9.8508   -2.0856   26.0422 H   0  0  0  0  0  0  0  0  0  0  0  0
    9.3713   -0.8479   24.8806 H   0  0  0  0  0  0  0  0  0  0  0  0
   13.8492   -2.9854   25.3649 H   0  0  0  0  0  0  0  0  0  0  0  0
   12.6762    0.0359   22.5252 H   0  0  0  0  0  0  0  0  0  0  0  0
   11.0215    0.0609   26.5044 H   0  0  0  0  0  0  0  0  0  0  0  0
    8.7203   -7.2452   24.3748 H   0  0  0  0  0  0  0  0  0  0  0  0
    8.6210   -7.6292   22.6523 H   0  0  0  0  0  0  0  0  0  0  0  0
   10.1357   -7.0191   23.3334 H   0  0  0  0  0  0  0  0  0  0  0  0
    6.9766   -2.5813   23.6003 H   0  0  0  0  0  0  0  0  0  0  0  0
    7.9232   -1.0951   23.6534 H   0  0  0  0  0  0  0  0  0  0  0  0
    8.4682   -3.5249   21.8638 H   0  0  0  0  0  0  0  0  0  0  0  0
    9.4450   -2.0514   21.8601 H   0  0  0  0  0  0  0  0  0  0  0  0
    8.9657   -5.2431   22.0965 H   0  0  0  0  0  0  0  0  0  0  0  0
  1 19  1  0  0  0  0
  1 22  3  0  0  0  0
  2  3  2  0  0  0  0
  2  4  1  0  0  0  0
  3  6  1  0  0  0  0
  4 23  2  0  0  0  0
  5  6  2  0  0  0  0
  5 23  1  0  0  0  0
  6 21  1  0  0  0  0
  7 21  1  0  0  0  0
  7 24  1  0  0  0  0
  7 25  2  0  0  0  0
  8 14  1  0  0  0  0
  8 15  1  0  0  0  0
  9 14  1  0  0  0  0
  9 16  1  0  0  0  0
 10 15  1  0  0  0  0
 10 16  1  0  0  0  0
 11 14  1  0  0  0  0
 11 17  1  0  0  0  0
 12 15  1  0  0  0  0
 12 17  1  0  0  0  0
 13 16  1  0  0  0  0
 13 17  1  0  0  0  0
 17 24  1  0  0  0  0
 18 21  1  0  0  0  0
 19 20  1  0  0  0  0
 20 24  1  0  0  0  0
  2 26  1  0  0  0  0
  3 27  1  0  0  0  0
  4 28  1  0  0  0  0
  5 29  1  0  0  0  0
  8 30  1  0  0  0  0
  8 31  1  0  0  0  0
  9 32  1  0  0  0  0
  9 33  1  0  0  0  0
 10 34  1  0  0  0  0
 10 35  1  0  0  0  0
 11 36  1  0  0  0  0
 11 37  1  0  0  0  0
 12 38  1  0  0  0  0
 12 39  1  0  0  0  0
 13 40  1  0  0  0  0
 13 41  1  0  0  0  0
 14 42  1  0  0  0  0
 15 43  1  0  0  0  0
 16 44  1  0  0  0  0
 18 45  1  0  0  0  0
 18 46  1  0  0  0  0
 18 47  1  0  0  0  0
 19 48  1  0  0  0  0
 19 49  1  0  0  0  0
 20 50  1  0  0  0  0
 20 51  1  0  0  0  0
 21 52  1  0  0  0  0
M  END
> <Hybrid2>
-10.248231

> <fragments>
x0749

> <site>
active-covalent

$$$$
-12.24492073059082_2
  -OEChem-03302021283D

 49 53  0     0  0  0  0  0  0999 V2000
    9.3345   -5.5761   26.4886 C   0  0  0  0  0  0  0  0  0  0  0  0
    9.5440   -4.2143   26.2710 C   0  0  0  0  0  0  0  0  0  0  0  0
    8.5588   -6.3140   25.5945 C   0  0  0  0  0  0  0  0  0  0  0  0
   13.2924    0.1463   22.7668 C   0  0  0  0  0  0  0  0  0  0  0  0
   12.6116    1.0256   23.6120 C   0  0  0  0  0  0  0  0  0  0  0  0
    8.9776   -3.5904   25.1594 C   0  0  0  0  0  0  0  0  0  0  0  0
    7.9924   -5.6901   24.4829 C   0  0  0  0  0  0  0  0  0  0  0  0
    7.5343   -0.2312   20.5106 C   0  0  0  0  0  0  0  0  0  0  0  0
    6.3416   -1.8028   19.1161 C   0  0  0  0  0  0  0  0  0  0  0  0
   12.6356   -0.9405   22.1761 C   0  0  0  0  0  0  0  0  0  0  0  0
   11.2533    0.8523   23.8977 C   0  0  0  0  0  0  0  0  0  0  0  0
    7.4776    0.7176   19.4898 C   0  0  0  0  0  0  0  0  0  0  0  0
    6.2848   -0.8539   18.0953 C   0  0  0  0  0  0  0  0  0  0  0  0
    6.9663   -1.4915   20.3237 C   0  0  0  0  0  0  0  0  0  0  0  0
    8.2018   -4.3283   24.2653 C   0  0  0  0  0  0  0  0  0  0  0  0
    8.0251   -2.6119   22.3589 C   0  0  0  0  0  0  0  0  0  0  0  0
   11.2709   -1.1298   22.4522 C   0  0  0  0  0  0  0  0  0  0  0  0
   10.6196   -0.2367   23.2984 C   0  0  0  0  0  0  0  0  0  0  0  0
    6.8528    0.4063   18.2821 C   0  0  0  0  0  0  0  0  0  0  0  0
    7.0251   -2.4726   21.3779 C   0  0  0  0  0  0  0  0  0  0  0  0
    7.6170   -3.6833   23.1154 C   0  0  0  0  0  0  0  0  0  0  0  0
    9.2514   -1.8139   22.5669 C   0  0  0  0  0  0  0  0  0  0  0  0
    8.2496   -0.1047   24.1096 C   0  0  0  0  0  0  0  0  0  0  0  0
    7.3976    2.6003   17.5438 C   0  0  0  0  0  0  0  0  0  0  0  0
   10.4051   -2.1025   22.0076 N   0  0  0  0  0  0  0  0  0  0  0  0
    6.0548   -3.3827   21.4977 N   0  0  0  0  0  0  0  0  0  0  0  0
    6.4433   -4.1043   22.5629 N   0  0  0  0  0  0  0  0  0  0  0  0
    9.3296   -0.6985   23.3536 N   0  0  0  0  0  0  0  0  0  0  0  0
    6.7971    1.3320   17.2859 O   0  0  0  0  0  0  0  0  0  0  0  0
    9.7760   -6.0619   27.3538 H   0  0  0  0  0  0  0  0  0  0  0  0
   10.1479   -3.6399   26.9675 H   0  0  0  0  0  0  0  0  0  0  0  0
    8.3966   -7.3746   25.7633 H   0  0  0  0  0  0  0  0  0  0  0  0
   14.3485    0.3068   22.5655 H   0  0  0  0  0  0  0  0  0  0  0  0
   13.1464    1.8620   24.0554 H   0  0  0  0  0  0  0  0  0  0  0  0
    9.1523   -2.5288   25.0023 H   0  0  0  0  0  0  0  0  0  0  0  0
    7.3893   -6.2789   23.7959 H   0  0  0  0  0  0  0  0  0  0  0  0
    8.0247    0.0267   21.4463 H   0  0  0  0  0  0  0  0  0  0  0  0
    5.8945   -2.7809   18.9547 H   0  0  0  0  0  0  0  0  0  0  0  0
   13.1731   -1.6183   21.5207 H   0  0  0  0  0  0  0  0  0  0  0  0
   10.7254    1.5360   24.5529 H   0  0  0  0  0  0  0  0  0  0  0  0
    7.9216    1.6978   19.6407 H   0  0  0  0  0  0  0  0  0  0  0  0
    5.7973   -1.1032   17.1567 H   0  0  0  0  0  0  0  0  0  0  0  0
    7.7506    0.6262   23.4678 H   0  0  0  0  0  0  0  0  0  0  0  0
    7.5482   -0.8853   24.4173 H   0  0  0  0  0  0  0  0  0  0  0  0
    8.6569    0.3820   25.0003 H   0  0  0  0  0  0  0  0  0  0  0  0
    7.2824    3.2437   16.6680 H   0  0  0  0  0  0  0  0  0  0  0  0
    8.4577    2.4630   17.7713 H   0  0  0  0  0  0  0  0  0  0  0  0
    6.9000    3.0618   18.4000 H   0  0  0  0  0  0  0  0  0  0  0  0
    5.8537   -4.8727   22.8585 H   0  0  0  0  0  0  0  0  0  0  0  0
  1  2  1  0  0  0  0
  1  3  2  0  0  0  0
  2  6  2  0  0  0  0
  3  7  1  0  0  0  0
  4  5  2  0  0  0  0
  4 10  1  0  0  0  0
  5 11  1  0  0  0  0
  6 15  1  0  0  0  0
  7 15  2  0  0  0  0
  8 12  2  0  0  0  0
  8 14  1  0  0  0  0
  9 13  1  0  0  0  0
  9 14  2  0  0  0  0
 10 17  2  0  0  0  0
 11 18  2  0  0  0  0
 12 19  1  0  0  0  0
 13 19  2  0  0  0  0
 14 20  1  0  0  0  0
 15 21  1  0  0  0  0
 16 20  1  0  0  0  0
 16 21  2  0  0  0  0
 16 22  1  0  0  0  0
 17 18  1  0  0  0  0
 17 25  1  0  0  0  0
 18 28  1  0  0  0  0
 19 29  1  0  0  0  0
 20 26  2  0  0  0  0
 21 27  1  0  0  0  0
 22 25  2  0  0  0  0
 22 28  1  0  0  0  0
 23 28  1  0  0  0  0
 24 29  1  0  0  0  0
 26 27  1  0  0  0  0
  1 30  1  0  0  0  0
  2 31  1  0  0  0  0
  3 32  1  0  0  0  0
  4 33  1  0  0  0  0
  5 34  1  0  0  0  0
  6 35  1  0  0  0  0
  7 36  1  0  0  0  0
  8 37  1  0  0  0  0
  9 38  1  0  0  0  0
 10 39  1  0  0  0  0
 11 40  1  0  0  0  0
 12 41  1  0  0  0  0
 13 42  1  0  0  0  0
 23 43  1  0  0  0  0
 23 44  1  0  0  0  0
 23 45  1  0  0  0  0
 24 46  1  0  0  0  0
 24 47  1  0  0  0  0
 24 48  1  0  0  0  0
 27 49  1  0  0  0  0
M  END
> <Hybrid2>
-10.191413

> <fragments>
x1418

> <site>
active-covalent

$$$$
top_hits_only_mpro-198_1
  -OEChem-03302021283D

 26 27  0     0  0  0  0  0  0999 V2000
   12.6256   -1.2747   21.1697 C   0  0  0  0  0  0  0  0  0  0  0  0
   13.8209   -1.6284   21.7956 C   0  0  0  0  0  0  0  0  0  0  0  0
   12.9083   -0.9434   23.9252 C   0  0  0  0  0  0  0  0  0  0  0  0
   11.5717   -0.7553   21.9214 C   0  0  0  0  0  0  0  0  0  0  0  0
   13.9622   -1.4628   23.1734 C   0  0  0  0  0  0  0  0  0  0  0  0
   11.7130   -0.5897   23.2992 C   0  0  0  0  0  0  0  0  0  0  0  0
    6.9645    0.6275   21.3139 C   0  0  0  0  0  0  0  0  0  0  0  0
    8.0659    0.0244   20.8576 C   0  0  0  0  0  0  0  0  0  0  0  0
    5.9409    1.0760   20.3383 C   0  0  0  0  0  0  0  0  0  0  0  0
    7.3979    0.1825   18.5348 C   0  0  0  0  0  0  0  0  0  0  0  0
    9.0765   -0.4184   21.8178 C   0  0  0  0  0  0  0  0  0  0  0  0
    8.2914   -0.1980   19.5263 N   0  0  0  0  0  0  0  0  0  0  0  0
    6.2441    0.8139   19.0089 N   0  0  0  0  0  0  0  0  0  0  0  0
   10.3594   -0.3965   21.2831 N   0  0  0  0  0  0  0  0  0  0  0  0
    4.9157    1.6349   20.7172 O   0  0  0  0  0  0  0  0  0  0  0  0
    7.6020   -0.0179   17.3371 O   0  0  0  0  0  0  0  0  0  0  0  0
    8.7396   -0.7548   22.9546 O   0  0  0  0  0  0  0  0  0  0  0  0
   15.1099   -1.8034   23.7743 F   0  0  0  0  0  0  0  0  0  0  0  0
   10.7073   -0.0899   24.0315 F   0  0  0  0  0  0  0  0  0  0  0  0
   12.5272   -1.4073   20.0952 H   0  0  0  0  0  0  0  0  0  0  0  0
   14.6419   -2.0319   21.2103 H   0  0  0  0  0  0  0  0  0  0  0  0
   13.0181   -0.8157   24.9979 H   0  0  0  0  0  0  0  0  0  0  0  0
    6.7764    0.8083   22.3659 H   0  0  0  0  0  0  0  0  0  0  0  0
    9.1526   -0.6625   19.2532 H   0  0  0  0  0  0  0  0  0  0  0  0
    5.5631    1.1078   18.3143 H   0  0  0  0  0  0  0  0  0  0  0  0
   10.4568   -0.0878   20.3179 H   0  0  0  0  0  0  0  0  0  0  0  0
  1  2  2  0  0  0  0
  1  4  1  0  0  0  0
  2  5  1  0  0  0  0
  3  5  2  0  0  0  0
  3  6  1  0  0  0  0
  4  6  2  0  0  0  0
  4 14  1  0  0  0  0
  5 18  1  0  0  0  0
  6 19  1  0  0  0  0
  7  8  2  0  0  0  0
  7  9  1  0  0  0  0
  8 11  1  0  0  0  0
  8 12  1  0  0  0  0
  9 13  1  0  0  0  0
  9 15  2  0  0  0  0
 10 12  1  0  0  0  0
 10 13  1  0  0  0  0
 10 16  2  0  0  0  0
 11 14  1  0  0  0  0
 11 17  2  0  0  0  0
  1 20  1  0  0  0  0
  2 21  1  0  0  0  0
  3 22  1  0  0  0  0
  7 23  1  0  0  0  0
 12 24  1  0  0  0  0
 13 25  1  0  0  0  0
 14 26  1  0  0  0  0
M  END
> <Hybrid2>
-10.190528

> <fragments>
x0678

> <site>
active-noncovalent

$$$$
top_hits_only_mpro-213_1
  -OEChem-03302021283D

 39 43  0     0  0  0  0  0  0999 V2000
    9.3747   -4.6985   26.8738 C   0  0  0  0  0  0  0  0  0  0  0  0
    9.0442   -3.3453   26.8013 C   0  0  0  0  0  0  0  0  0  0  0  0
    9.2563   -5.5069   25.7432 C   0  0  0  0  0  0  0  0  0  0  0  0
   13.1741    1.2423   24.2323 C   0  0  0  0  0  0  0  0  0  0  0  0
   13.7543    0.8118   23.0368 C   0  0  0  0  0  0  0  0  0  0  0  0
    8.5953   -2.8005   25.5982 C   0  0  0  0  0  0  0  0  0  0  0  0
    8.8074   -4.9621   24.5402 C   0  0  0  0  0  0  0  0  0  0  0  0
   11.8822    0.8394   24.5933 C   0  0  0  0  0  0  0  0  0  0  0  0
   13.0675   -0.0346   22.1602 C   0  0  0  0  0  0  0  0  0  0  0  0
    5.6227   -2.9398   20.5017 C   0  0  0  0  0  0  0  0  0  0  0  0
    5.6468   -2.0820   19.3984 C   0  0  0  0  0  0  0  0  0  0  0  0
    7.6799   -1.0199   20.1955 C   0  0  0  0  0  0  0  0  0  0  0  0
    7.6765   -1.8739   21.3163 C   0  0  0  0  0  0  0  0  0  0  0  0
    8.4769   -3.6089   24.4676 C   0  0  0  0  0  0  0  0  0  0  0  0
    8.5288   -2.0319   22.4449 C   0  0  0  0  0  0  0  0  0  0  0  0
   11.1776   -0.0108   23.7243 C   0  0  0  0  0  0  0  0  0  0  0  0
    6.6501   -2.8122   21.4433 C   0  0  0  0  0  0  0  0  0  0  0  0
   11.7823   -0.4229   22.5402 C   0  0  0  0  0  0  0  0  0  0  0  0
    6.6586   -1.1361   19.2456 C   0  0  0  0  0  0  0  0  0  0  0  0
    8.0126   -3.0440   23.2209 C   0  0  0  0  0  0  0  0  0  0  0  0
    9.7484   -1.2665   22.7548 C   0  0  0  0  0  0  0  0  0  0  0  0
    9.9148   -0.5449   23.8404 N   0  0  0  0  0  0  0  0  0  0  0  0
    6.8797   -3.5086   22.6084 N   0  0  0  0  0  0  0  0  0  0  0  0
   10.8456   -1.2250   21.9403 N   0  0  0  0  0  0  0  0  0  0  0  0
    6.6545   -0.3283   18.1764 F   0  0  0  0  0  0  0  0  0  0  0  0
    9.7248   -5.1225   27.8104 H   0  0  0  0  0  0  0  0  0  0  0  0
    9.1363   -2.7161   27.6818 H   0  0  0  0  0  0  0  0  0  0  0  0
    9.5146   -6.5604   25.7994 H   0  0  0  0  0  0  0  0  0  0  0  0
   13.7330    1.8997   24.8932 H   0  0  0  0  0  0  0  0  0  0  0  0
   14.7590    1.1403   22.7820 H   0  0  0  0  0  0  0  0  0  0  0  0
    8.3442   -1.7433   25.5572 H   0  0  0  0  0  0  0  0  0  0  0  0
    8.7195   -5.6058   23.6681 H   0  0  0  0  0  0  0  0  0  0  0  0
   11.4401    1.1790   25.5243 H   0  0  0  0  0  0  0  0  0  0  0  0
   13.5158   -0.3699   21.2317 H   0  0  0  0  0  0  0  0  0  0  0  0
    4.8349   -3.6762   20.6199 H   0  0  0  0  0  0  0  0  0  0  0  0
    4.8637   -2.1547   18.6480 H   0  0  0  0  0  0  0  0  0  0  0  0
    8.4608   -0.2770   20.0607 H   0  0  0  0  0  0  0  0  0  0  0  0
    6.2923   -4.2543   22.9565 H   0  0  0  0  0  0  0  0  0  0  0  0
   10.9512   -1.6996   21.0533 H   0  0  0  0  0  0  0  0  0  0  0  0
  1  2  1  0  0  0  0
  1  3  2  0  0  0  0
  2  6  2  0  0  0  0
  3  7  1  0  0  0  0
  4  5  2  0  0  0  0
  4  8  1  0  0  0  0
  5  9  1  0  0  0  0
  6 14  1  0  0  0  0
  7 14  2  0  0  0  0
  8 16  2  0  0  0  0
  9 18  2  0  0  0  0
 10 11  2  0  0  0  0
 10 17  1  0  0  0  0
 11 19  1  0  0  0  0
 12 13  1  0  0  0  0
 12 19  2  0  0  0  0
 13 15  1  0  0  0  0
 13 17  2  0  0  0  0
 14 20  1  0  0  0  0
 15 20  2  0  0  0  0
 15 21  1  0  0  0  0
 16 18  1  0  0  0  0
 16 22  1  0  0  0  0
 17 23  1  0  0  0  0
 18 24  1  0  0  0  0
 19 25  1  0  0  0  0
 20 23  1  0  0  0  0
 21 22  2  0  0  0  0
 21 24  1  0  0  0  0
  1 26  1  0  0  0  0
  2 27  1  0  0  0  0
  3 28  1  0  0  0  0
  4 29  1  0  0  0  0
  5 30  1  0  0  0  0
  6 31  1  0  0  0  0
  7 32  1  0  0  0  0
  8 33  1  0  0  0  0
  9 34  1  0  0  0  0
 10 35  1  0  0  0  0
 11 36  1  0  0  0  0
 12 37  1  0  0  0  0
 23 38  1  0  0  0  0
 24 39  1  0  0  0  0
M  END
> <Hybrid2>
-10.170182

> <fragments>
x0830

> <site>
active-covalent

$$$$
top_hits_only_mpro-21_1
  -OEChem-03302021283D

 43 44  0     1  0  0  0  0  0999 V2000
    5.7628    0.8106   18.9626 C   0  0  0  0  0  0  0  0  0  0  0  0
    6.4607    0.3353   20.0674 C   0  0  0  0  0  0  0  0  0  0  0  0
    6.3875    0.7534   17.7272 C   0  0  0  0  0  0  0  0  0  0  0  0
    8.2796   -0.1886   18.6275 C   0  0  0  0  0  0  0  0  0  0  0  0
    7.7437   -0.1754   19.9052 C   0  0  0  0  0  0  0  0  0  0  0  0
    9.8543    0.0091   21.1974 C   0  0  0  0  0  0  0  0  0  0  0  0
   13.2455   -2.2321   22.8164 C   0  0  0  0  0  0  0  0  0  0  0  0
   11.8023   -2.5100   23.2328 C   0  0  0  0  0  0  0  0  0  0  0  0
   13.3578   -1.1990   21.6968 C   0  0  0  0  0  0  0  0  0  0  0  0
   10.7949   -2.1365   22.1527 C   0  0  0  0  0  0  0  0  0  0  0  0
   12.2624   -0.1283   21.7549 C   0  0  2  0  0  0  0  0  0  0  0  0
    7.7698   -0.5800   22.4011 C   0  0  0  0  0  0  0  0  0  0  0  0
   11.3950    1.9125   22.9620 C   0  0  0  0  0  0  0  0  0  0  0  0
    8.5272   -0.6996   21.0847 C   0  0  1  0  0  0  0  0  0  0  0  0
   12.4247    0.7998   22.9623 C   0  0  2  0  0  0  0  0  0  0  0  0
    7.6323    0.2643   17.5304 N   0  0  0  0  0  0  0  0  0  0  0  0
   10.9168   -0.7347   21.7227 N   0  0  0  0  0  0  0  0  0  0  0  0
   13.7816    1.4000   22.9029 N   0  3  0  0  0  0  0  0  0  0  0  0
    9.9467    1.1845   20.8342 O   0  0  0  0  0  0  0  0  0  0  0  0
    4.7615    1.2128   19.0654 H   0  0  0  0  0  0  0  0  0  0  0  0
    5.9974    0.3666   21.0497 H   0  0  0  0  0  0  0  0  0  0  0  0
    5.8853    1.1119   16.8346 H   0  0  0  0  0  0  0  0  0  0  0  0
    9.2765   -0.5753   18.4394 H   0  0  0  0  0  0  0  0  0  0  0  0
   13.8274   -1.8974   23.6977 H   0  0  0  0  0  0  0  0  0  0  0  0
   13.7229   -3.1777   22.4939 H   0  0  0  0  0  0  0  0  0  0  0  0
   11.6912   -3.5783   23.4848 H   0  0  0  0  0  0  0  0  0  0  0  0
   11.5755   -1.9534   24.1566 H   0  0  0  0  0  0  0  0  0  0  0  0
   14.3501   -0.7318   21.7296 H   0  0  0  0  0  0  0  0  0  0  0  0
   13.2934   -1.7192   20.7311 H   0  0  0  0  0  0  0  0  0  0  0  0
   10.9156   -2.8110   21.2959 H   0  0  0  0  0  0  0  0  0  0  0  0
    9.7690   -2.2771   22.5185 H   0  0  0  0  0  0  0  0  0  0  0  0
   12.3976    0.4976   20.8635 H   0  0  0  0  0  0  0  0  0  0  0  0
    7.5048    0.4639   22.6030 H   0  0  0  0  0  0  0  0  0  0  0  0
    6.8362   -1.1536   22.3968 H   0  0  0  0  0  0  0  0  0  0  0  0
    8.3825   -0.9417   23.2341 H   0  0  0  0  0  0  0  0  0  0  0  0
   11.4479    2.4903   22.0332 H   0  0  0  0  0  0  0  0  0  0  0  0
   11.5445    2.6044   23.7982 H   0  0  0  0  0  0  0  0  0  0  0  0
   10.3831    1.5009   23.0419 H   0  0  0  0  0  0  0  0  0  0  0  0
    8.7709   -1.7550   20.9238 H   0  0  0  0  0  0  0  0  0  0  0  0
   12.3759    0.2212   23.8859 H   0  0  0  0  0  0  0  0  0  0  0  0
   13.9781    1.9439   23.7493 H   0  0  0  0  0  0  0  0  0  0  0  0
   13.8685    2.0265   22.0960 H   0  0  0  0  0  0  0  0  0  0  0  0
   14.4995    0.6730   22.8190 H   0  0  0  0  0  0  0  0  0  0  0  0
  1  2  2  0  0  0  0
  1  3  1  0  0  0  0
  2  5  1  0  0  0  0
  3 16  2  0  0  0  0
  4  5  2  0  0  0  0
  4 16  1  0  0  0  0
  5 14  1  0  0  0  0
  6 14  1  0  0  0  0
  6 17  1  0  0  0  0
  6 19  2  0  0  0  0
  7  8  1  0  0  0  0
  7  9  1  0  0  0  0
  8 10  1  0  0  0  0
  9 11  1  0  0  0  0
 10 17  1  0  0  0  0
 11 15  1  0  0  0  0
 11 17  1  0  0  0  0
 12 14  1  0  0  0  0
 13 15  1  0  0  0  0
 15 18  1  0  0  0  0
  1 20  1  0  0  0  0
  2 21  1  0  0  0  0
  3 22  1  0  0  0  0
  4 23  1  0  0  0  0
  7 24  1  0  0  0  0
  7 25  1  0  0  0  0
  8 26  1  0  0  0  0
  8 27  1  0  0  0  0
  9 28  1  0  0  0  0
  9 29  1  0  0  0  0
 10 30  1  0  0  0  0
 10 31  1  0  0  0  0
 11 32  1  0  0  0  0
 12 33  1  0  0  0  0
 12 34  1  0  0  0  0
 12 35  1  0  0  0  0
 13 36  1  0  0  0  0
 13 37  1  0  0  0  0
 13 38  1  0  0  0  0
 14 39  1  0  0  0  0
 15 40  1  0  0  0  0
 18 41  1  0  0  0  0
 18 42  1  0  0  0  0
 18 43  1  0  0  0  0
M  CHG  1  18   1
M  END
> <Hybrid2>
-10.139837

> <fragments>
x0678

> <site>
active-noncovalent

$$$$
top_hits_only_mpro-212_1
  -OEChem-03302021283D

 46 49  0     1  0  0  0  0  0999 V2000
    5.3743   -4.1869   25.2113 C   0  0  0  0  0  0  0  0  0  0  0  0
    4.3898   -5.0518   25.7029 C   0  0  0  0  0  0  0  0  0  0  0  0
    6.0557   -6.3527   26.9016 C   0  0  0  0  0  0  0  0  0  0  0  0
    8.9547   -4.4228   25.9078 C   0  0  0  0  0  0  0  0  0  0  0  0
    6.7201   -4.4042   25.5674 C   0  0  0  0  0  0  0  0  0  0  0  0
    7.9448   -3.7464   25.2632 C   0  0  0  0  0  0  0  0  0  0  0  0
    7.0292   -5.4799   26.4027 C   0  0  0  0  0  0  0  0  0  0  0  0
    4.7276   -6.1174   26.5349 C   0  0  0  0  0  0  0  0  0  0  0  0
    6.8920    0.3980   20.3475 C   0  0  0  0  0  0  0  0  0  0  0  0
    7.6519   -2.8296   22.9673 C   0  0  0  0  0  0  0  0  0  0  0  0
    7.3580   -1.3424   24.9894 C   0  0  0  0  0  0  0  0  0  0  0  0
    7.7762   -1.5922   22.0874 C   0  0  0  0  0  0  0  0  0  0  0  0
    7.4849   -0.1165   24.0941 C   0  0  0  0  0  0  0  0  0  0  0  0
    8.1138   -2.5472   24.4060 C   0  0  0  0  0  0  0  0  0  0  0  0
    5.8394    1.6622   22.2675 C   0  0  0  0  0  0  0  0  0  0  0  0
    4.6148   -0.6974   20.4132 C   0  0  0  0  0  0  0  0  0  0  0  0
    6.9801    0.7550   21.8133 C   0  0  1  0  0  0  0  0  0  0  0  0
    7.7796    0.6285   19.4076 N   0  0  0  0  0  0  0  0  0  0  0  0
    7.2367    0.1167   18.2507 N   0  0  0  0  0  0  0  0  0  0  0  0
    6.0426   -0.4163   18.4792 N   0  0  0  0  0  0  0  0  0  0  0  0
    8.3927   -5.4668   26.5923 N   0  0  0  0  0  0  0  0  0  0  0  0
    5.8294   -0.2391   19.7905 N   0  0  0  0  0  0  0  0  0  0  0  0
    6.9979   -0.4558   22.7057 N   0  3  0  0  0  0  0  0  0  0  0  0
    3.7645   -6.9302   26.9913 F   0  0  0  0  0  0  0  0  0  0  0  0
    5.0948   -3.3612   24.5631 H   0  0  0  0  0  0  0  0  0  0  0  0
    3.3501   -4.8886   25.4321 H   0  0  0  0  0  0  0  0  0  0  0  0
    6.3174   -7.1823   27.5496 H   0  0  0  0  0  0  0  0  0  0  0  0
   10.0225   -4.2563   25.9422 H   0  0  0  0  0  0  0  0  0  0  0  0
    6.6109   -3.1797   22.9639 H   0  0  0  0  0  0  0  0  0  0  0  0
    8.2512   -3.6402   22.5343 H   0  0  0  0  0  0  0  0  0  0  0  0
    7.7480   -1.1021   25.9864 H   0  0  0  0  0  0  0  0  0  0  0  0
    6.2963   -1.5901   25.1246 H   0  0  0  0  0  0  0  0  0  0  0  0
    8.8173   -1.2667   21.9848 H   0  0  0  0  0  0  0  0  0  0  0  0
    7.3516   -1.7809   21.0957 H   0  0  0  0  0  0  0  0  0  0  0  0
    6.8616    0.7011   24.4709 H   0  0  0  0  0  0  0  0  0  0  0  0
    8.5234    0.2225   24.0100 H   0  0  0  0  0  0  0  0  0  0  0  0
    9.1852   -2.3079   24.3863 H   0  0  0  0  0  0  0  0  0  0  0  0
    4.8576    1.2090   22.0905 H   0  0  0  0  0  0  0  0  0  0  0  0
    5.9167    1.8788   23.3389 H   0  0  0  0  0  0  0  0  0  0  0  0
    5.8655    2.6177   21.7316 H   0  0  0  0  0  0  0  0  0  0  0  0
    3.8831    0.1132   20.3623 H   0  0  0  0  0  0  0  0  0  0  0  0
    4.2450   -1.5801   19.8840 H   0  0  0  0  0  0  0  0  0  0  0  0
    4.8203   -0.9637   21.4537 H   0  0  0  0  0  0  0  0  0  0  0  0
    7.9312    1.2614   22.0159 H   0  0  0  0  0  0  0  0  0  0  0  0
    8.9043   -6.1318   27.1557 H   0  0  0  0  0  0  0  0  0  0  0  0
    6.0203   -0.7663   22.7923 H   0  0  0  0  0  0  0  0  0  0  0  0
  1  2  2  0  0  0  0
  1  5  1  0  0  0  0
  2  8  1  0  0  0  0
  3  7  1  0  0  0  0
  3  8  2  0  0  0  0
  4  6  2  0  0  0  0
  4 21  1  0  0  0  0
  5  6  1  0  0  0  0
  5  7  2  0  0  0  0
  6 14  1  0  0  0  0
  7 21  1  0  0  0  0
  8 24  1  0  0  0  0
  9 17  1  0  0  0  0
  9 18  2  0  0  0  0
  9 22  1  0  0  0  0
 10 12  1  0  0  0  0
 10 14  1  0  0  0  0
 11 13  1  0  0  0  0
 11 14  1  0  0  0  0
 12 23  1  0  0  0  0
 13 23  1  0  0  0  0
 15 17  1  0  0  0  0
 16 22  1  0  0  0  0
 17 23  1  0  0  0  0
 18 19  1  0  0  0  0
 19 20  2  0  0  0  0
 20 22  1  0  0  0  0
  1 25  1  0  0  0  0
  2 26  1  0  0  0  0
  3 27  1  0  0  0  0
  4 28  1  0  0  0  0
 10 29  1  0  0  0  0
 10 30  1  0  0  0  0
 11 31  1  0  0  0  0
 11 32  1  0  0  0  0
 12 33  1  0  0  0  0
 12 34  1  0  0  0  0
 13 35  1  0  0  0  0
 13 36  1  0  0  0  0
 14 37  1  0  0  0  0
 15 38  1  0  0  0  0
 15 39  1  0  0  0  0
 15 40  1  0  0  0  0
 16 41  1  0  0  0  0
 16 42  1  0  0  0  0
 16 43  1  0  0  0  0
 17 44  1  0  0  0  0
 21 45  1  0  0  0  0
 23 46  1  0  0  0  0
M  CHG  1  23   1
M  END
> <Hybrid2>
-10.121290

> <fragments>
x0107

> <site>
active-noncovalent

$$$$
top_hits_only_mpro-463_1
  -OEChem-03302021283D

 43 45  0     1  0  0  0  0  0999 V2000
   14.3076   -1.1618   23.8154 C   0  0  0  0  0  0  0  0  0  0  0  0
   13.7144    0.0682   23.5313 C   0  0  0  0  0  0  0  0  0  0  0  0
   13.5821   -2.3413   23.6477 C   0  0  0  0  0  0  0  0  0  0  0  0
   12.3957    0.1189   23.0796 C   0  0  0  0  0  0  0  0  0  0  0  0
   12.2633   -2.2907   23.1960 C   0  0  0  0  0  0  0  0  0  0  0  0
   11.6701   -1.0606   22.9120 C   0  0  0  0  0  0  0  0  0  0  0  0
    5.3838    1.2449   18.6038 C   0  0  0  0  0  0  0  0  0  0  0  0
    5.9783    0.9604   17.4349 C   0  0  0  0  0  0  0  0  0  0  0  0
    6.0953    0.9200   19.8692 C   0  0  0  0  0  0  0  0  0  0  0  0
    7.8236    0.1031   18.3790 C   0  0  0  0  0  0  0  0  0  0  0  0
    9.2275   -0.5442   20.2528 C   0  0  0  0  0  0  0  0  0  0  0  0
    9.9457   -1.9007   25.4688 C   0  0  0  0  0  0  0  0  0  0  0  0
    7.9762   -0.7477   24.4605 C   0  0  0  0  0  0  0  0  0  0  0  0
    7.9294   -3.2219   24.7849 C   0  0  0  0  0  0  0  0  0  0  0  0
    9.3967   -2.1799   22.9740 C   0  0  0  0  0  0  0  0  0  0  0  0
   10.2346   -1.0062   22.4205 C   0  0  2  0  0  0  0  0  0  0  0  0
    8.8325   -2.0310   24.4184 C   0  0  0  0  0  0  0  0  0  0  0  0
    7.2164    0.3809   17.2734 N   0  0  0  0  0  0  0  0  0  0  0  0
    8.1211   -0.0235   20.6916 N   0  0  0  0  0  0  0  0  0  0  0  0
    7.3300    0.3411   19.6421 N   0  0  0  0  0  0  0  0  0  0  0  0
   10.2388   -1.0145   20.9707 N   0  0  0  0  0  0  0  0  0  0  0  0
    5.5900    1.1632   20.9593 O   0  0  0  0  0  0  0  0  0  0  0  0
    9.3897   -0.6290   18.4985 S   0  0  0  0  0  0  0  0  0  0  0  0
   15.3349   -1.2011   24.1658 H   0  0  0  0  0  0  0  0  0  0  0  0
   14.2796    0.9867   23.6608 H   0  0  0  0  0  0  0  0  0  0  0  0
   14.0439   -3.2992   23.8677 H   0  0  0  0  0  0  0  0  0  0  0  0
   11.9416    1.0818   22.8610 H   0  0  0  0  0  0  0  0  0  0  0  0
   11.7057   -3.2148   23.0684 H   0  0  0  0  0  0  0  0  0  0  0  0
    4.4044    1.7034   18.6581 H   0  0  0  0  0  0  0  0  0  0  0  0
    5.4619    1.1963   16.5098 H   0  0  0  0  0  0  0  0  0  0  0  0
   10.5855   -2.7899   25.4801 H   0  0  0  0  0  0  0  0  0  0  0  0
   10.5859   -1.0361   25.2580 H   0  0  0  0  0  0  0  0  0  0  0  0
    9.5399   -1.7564   26.4750 H   0  0  0  0  0  0  0  0  0  0  0  0
    7.1638   -0.7902   23.7262 H   0  0  0  0  0  0  0  0  0  0  0  0
    7.5266   -0.6037   25.4495 H   0  0  0  0  0  0  0  0  0  0  0  0
    8.5781    0.1407   24.2378 H   0  0  0  0  0  0  0  0  0  0  0  0
    7.1217   -3.3450   24.0549 H   0  0  0  0  0  0  0  0  0  0  0  0
    7.4674   -3.0767   25.7684 H   0  0  0  0  0  0  0  0  0  0  0  0
    8.4889   -4.1613   24.8295 H   0  0  0  0  0  0  0  0  0  0  0  0
   10.0175   -3.0878   22.9582 H   0  0  0  0  0  0  0  0  0  0  0  0
    8.5594   -2.3820   22.2906 H   0  0  0  0  0  0  0  0  0  0  0  0
    9.7946   -0.0591   22.7468 H   0  0  0  0  0  0  0  0  0  0  0  0
   11.0432   -1.3940   20.4772 H   0  0  0  0  0  0  0  0  0  0  0  0
  1  2  1  0  0  0  0
  1  3  2  0  0  0  0
  2  4  2  0  0  0  0
  3  5  1  0  0  0  0
  4  6  1  0  0  0  0
  5  6  2  0  0  0  0
  6 16  1  0  0  0  0
  7  8  2  0  0  0  0
  7  9  1  0  0  0  0
  8 18  1  0  0  0  0
  9 20  1  0  0  0  0
  9 22  2  0  0  0  0
 10 18  2  0  0  0  0
 10 20  1  0  0  0  0
 10 23  1  0  0  0  0
 11 19  2  0  0  0  0
 11 21  1  0  0  0  0
 11 23  1  0  0  0  0
 12 17  1  0  0  0  0
 13 17  1  0  0  0  0
 14 17  1  0  0  0  0
 15 16  1  0  0  0  0
 15 17  1  0  0  0  0
 16 21  1  0  0  0  0
 19 20  1  0  0  0  0
  1 24  1  0  0  0  0
  2 25  1  0  0  0  0
  3 26  1  0  0  0  0
  4 27  1  0  0  0  0
  5 28  1  0  0  0  0
  7 29  1  0  0  0  0
  8 30  1  0  0  0  0
 12 31  1  0  0  0  0
 12 32  1  0  0  0  0
 12 33  1  0  0  0  0
 13 34  1  0  0  0  0
 13 35  1  0  0  0  0
 13 36  1  0  0  0  0
 14 37  1  0  0  0  0
 14 38  1  0  0  0  0
 14 39  1  0  0  0  0
 15 40  1  0  0  0  0
 15 41  1  0  0  0  0
 16 42  1  0  0  0  0
 21 43  1  0  0  0  0
M  END
> <Hybrid2>
-10.118191

> <fragments>
x0678

> <site>
active-noncovalent

$$$$
top_hits_only_mpro-387_1
  -OEChem-03302021283D

 44 46  0     1  0  0  0  0  0999 V2000
   14.2061   -1.5501   22.0767 C   0  0  0  0  0  0  0  0  0  0  0  0
   13.0454   -2.2925   22.2938 C   0  0  0  0  0  0  0  0  0  0  0  0
   14.4567   -0.4087   22.8384 C   0  0  0  0  0  0  0  0  0  0  0  0
    5.3317    1.2850   18.4655 C   0  0  0  0  0  0  0  0  0  0  0  0
   12.1352   -1.8936   23.2726 C   0  0  0  0  0  0  0  0  0  0  0  0
   13.5465   -0.0098   23.8172 C   0  0  0  0  0  0  0  0  0  0  0  0
    5.8741    1.2023   19.7430 C   0  0  0  0  0  0  0  0  0  0  0  0
    6.1169    0.8759   17.3997 C   0  0  0  0  0  0  0  0  0  0  0  0
    7.8699    0.3356   18.7829 C   0  0  0  0  0  0  0  0  0  0  0  0
   12.3857   -0.7522   24.0343 C   0  0  0  0  0  0  0  0  0  0  0  0
    7.1670    0.7197   19.9134 C   0  0  0  0  0  0  0  0  0  0  0  0
   11.4275   -0.3323   25.0646 C   0  0  0  0  0  0  0  0  0  0  0  0
    7.8788   -0.4782   25.5859 C   0  0  0  0  0  0  0  0  0  0  0  0
    7.3124   -0.5008   24.1656 C   0  0  0  0  0  0  0  0  0  0  0  0
    9.1403    0.3783   25.6739 C   0  0  0  0  0  0  0  0  0  0  0  0
    9.6310   -0.0218   23.2817 C   0  0  0  0  0  0  0  0  0  0  0  0
    8.3920   -0.9045   23.1623 C   0  0  2  0  0  0  0  0  0  0  0  0
    7.7802    0.6176   21.2789 C   0  0  0  0  0  0  0  0  0  0  0  0
    7.3765    0.4016   17.5260 N   0  0  0  0  0  0  0  0  0  0  0  0
   10.1224   -0.0296   24.6680 N   0  0  0  0  0  0  0  0  0  0  0  0
    7.8415   -0.7786   21.7872 N   0  3  0  0  0  0  0  0  0  0  0  0
   11.8544   -0.2900   26.2176 O   0  0  0  0  0  0  0  0  0  0  0  0
   14.9147   -1.8607   21.3146 H   0  0  0  0  0  0  0  0  0  0  0  0
   12.8503   -3.1810   21.7005 H   0  0  0  0  0  0  0  0  0  0  0  0
   15.3606    0.1692   22.6696 H   0  0  0  0  0  0  0  0  0  0  0  0
    4.3259    1.6578   18.3089 H   0  0  0  0  0  0  0  0  0  0  0  0
   11.2338   -2.4795   23.4335 H   0  0  0  0  0  0  0  0  0  0  0  0
   13.7520    0.8813   24.4048 H   0  0  0  0  0  0  0  0  0  0  0  0
    5.2828    1.5156   20.5991 H   0  0  0  0  0  0  0  0  0  0  0  0
    5.7397    0.9211   16.3833 H   0  0  0  0  0  0  0  0  0  0  0  0
    8.8828   -0.0488   18.8536 H   0  0  0  0  0  0  0  0  0  0  0  0
    7.1219   -0.0924   26.2780 H   0  0  0  0  0  0  0  0  0  0  0  0
    8.1112   -1.5022   25.9039 H   0  0  0  0  0  0  0  0  0  0  0  0
    6.4669   -1.1972   24.1193 H   0  0  0  0  0  0  0  0  0  0  0  0
    6.9231    0.4969   23.9241 H   0  0  0  0  0  0  0  0  0  0  0  0
    8.9008    1.4320   25.4880 H   0  0  0  0  0  0  0  0  0  0  0  0
    9.5657    0.3111   26.6803 H   0  0  0  0  0  0  0  0  0  0  0  0
   10.4024   -0.3590   22.5841 H   0  0  0  0  0  0  0  0  0  0  0  0
    9.3995    1.0221   23.0346 H   0  0  0  0  0  0  0  0  0  0  0  0
    8.6597   -1.9598   23.2890 H   0  0  0  0  0  0  0  0  0  0  0  0
    8.8071    0.9985   21.2812 H   0  0  0  0  0  0  0  0  0  0  0  0
    7.2084    1.1950   22.0134 H   0  0  0  0  0  0  0  0  0  0  0  0
    8.4089   -1.3468   21.1432 H   0  0  0  0  0  0  0  0  0  0  0  0
    6.8972   -1.1877   21.7631 H   0  0  0  0  0  0  0  0  0  0  0  0
  1  2  1  0  0  0  0
  1  3  2  0  0  0  0
  2  5  2  0  0  0  0
  3  6  1  0  0  0  0
  4  7  2  0  0  0  0
  4  8  1  0  0  0  0
  5 10  1  0  0  0  0
  6 10  2  0  0  0  0
  7 11  1  0  0  0  0
  8 19  2  0  0  0  0
  9 11  2  0  0  0  0
  9 19  1  0  0  0  0
 10 12  1  0  0  0  0
 11 18  1  0  0  0  0
 12 20  1  0  0  0  0
 12 22  2  0  0  0  0
 13 14  1  0  0  0  0
 13 15  1  0  0  0  0
 14 17  1  0  0  0  0
 15 20  1  0  0  0  0
 16 17  1  0  0  0  0
 16 20  1  0  0  0  0
 17 21  1  0  0  0  0
 18 21  1  0  0  0  0
  1 23  1  0  0  0  0
  2 24  1  0  0  0  0
  3 25  1  0  0  0  0
  4 26  1  0  0  0  0
  5 27  1  0  0  0  0
  6 28  1  0  0  0  0
  7 29  1  0  0  0  0
  8 30  1  0  0  0  0
  9 31  1  0  0  0  0
 13 32  1  0  0  0  0
 13 33  1  0  0  0  0
 14 34  1  0  0  0  0
 14 35  1  0  0  0  0
 15 36  1  0  0  0  0
 15 37  1  0  0  0  0
 16 38  1  0  0  0  0
 16 39  1  0  0  0  0
 17 40  1  0  0  0  0
 18 41  1  0  0  0  0
 18 42  1  0  0  0  0
 21 43  1  0  0  0  0
 21 44  1  0  0  0  0
M  CHG  1  21   1
M  END
> <Hybrid2>
-10.111010

> <fragments>
x0678

> <site>
active-noncovalent

$$$$
top_hits_only_mpro-431_1
  -OEChem-03302021283D

 42 46  0     1  0  0  0  0  0999 V2000
    6.0100   -4.2122   27.0124 C   0  0  0  0  0  0  0  0  0  0  0  0
    5.6831   -2.9639   26.4630 C   0  0  0  0  0  0  0  0  0  0  0  0
    7.3100   -4.7105   26.9177 C   0  0  0  0  0  0  0  0  0  0  0  0
    6.6523   -2.1953   25.8136 C   0  0  0  0  0  0  0  0  0  0  0  0
    7.3606    0.1830   21.4231 C   0  0  0  0  0  0  0  0  0  0  0  0
    8.2677   -3.9360   26.2826 C   0  0  0  0  0  0  0  0  0  0  0  0
    7.9478   -2.6856   25.7349 C   0  0  0  0  0  0  0  0  0  0  0  0
    8.5084   -0.3587   20.9120 C   0  0  0  0  0  0  0  0  0  0  0  0
    7.1669    0.1090   19.2100 C   0  0  0  0  0  0  0  0  0  0  0  0
    4.6846    1.1993   19.1888 C   0  0  0  0  0  0  0  0  0  0  0  0
    5.2883    1.0188   20.3699 C   0  0  0  0  0  0  0  0  0  0  0  0
    5.4286    0.7840   17.9653 C   0  0  0  0  0  0  0  0  0  0  0  0
    9.7578   -0.0408   23.9380 C   0  0  0  0  0  0  0  0  0  0  0  0
    9.1308   -2.2310   23.5613 C   0  0  0  0  0  0  0  0  0  0  0  0
    9.6973   -4.2926   26.0245 C   0  0  0  0  0  0  0  0  0  0  0  0
    9.3566   -0.5701   25.2871 C   0  0  0  0  0  0  0  0  0  0  0  0
   10.2956   -2.9189   25.6804 C   0  0  0  0  0  0  0  0  0  0  0  0
    9.1492   -2.0728   25.0695 C   0  0  1  0  0  0  0  0  0  0  0  0
    9.7533   -0.8578   21.5867 C   0  0  0  0  0  0  0  0  0  0  0  0
    6.6151    0.2591   17.9242 N   0  0  0  0  0  0  0  0  0  0  0  0
    6.5429    0.4654   20.3489 N   0  0  0  0  0  0  0  0  0  0  0  0
    8.3614   -0.3922   19.5465 N   0  3  0  0  0  0  0  0  0  0  0  0
    9.5616   -1.0409   23.0126 N   0  0  0  0  0  0  0  0  0  0  0  0
   10.1475    1.1021   23.7420 O   0  0  0  0  0  0  0  0  0  0  0  0
    8.8105   -3.2494   22.9627 O   0  0  0  0  0  0  0  0  0  0  0  0
    5.2423   -4.7977   27.5105 H   0  0  0  0  0  0  0  0  0  0  0  0
    4.6641   -2.5938   26.5388 H   0  0  0  0  0  0  0  0  0  0  0  0
    7.5590   -5.6820   27.3309 H   0  0  0  0  0  0  0  0  0  0  0  0
    6.3851   -1.2374   25.3790 H   0  0  0  0  0  0  0  0  0  0  0  0
    7.0081    0.4089   22.4120 H   0  0  0  0  0  0  0  0  0  0  0  0
    3.6964    1.6259   19.0873 H   0  0  0  0  0  0  0  0  0  0  0  0
    4.8479    1.2805   21.3231 H   0  0  0  0  0  0  0  0  0  0  0  0
    4.8900    0.9518   17.0185 H   0  0  0  0  0  0  0  0  0  0  0  0
   10.1842   -4.7291   26.9009 H   0  0  0  0  0  0  0  0  0  0  0  0
    9.7677   -4.9812   25.1765 H   0  0  0  0  0  0  0  0  0  0  0  0
   10.1861   -0.3694   25.9760 H   0  0  0  0  0  0  0  0  0  0  0  0
    8.4611   -0.0518   25.6453 H   0  0  0  0  0  0  0  0  0  0  0  0
   10.6474   -2.4507   26.6091 H   0  0  0  0  0  0  0  0  0  0  0  0
   11.1588   -3.0143   25.0151 H   0  0  0  0  0  0  0  0  0  0  0  0
   10.0639   -1.8187   21.1621 H   0  0  0  0  0  0  0  0  0  0  0  0
   10.5834   -0.1573   21.4477 H   0  0  0  0  0  0  0  0  0  0  0  0
    9.0502   -0.7431   18.8869 H   0  0  0  0  0  0  0  0  0  0  0  0
  1  2  2  0  0  0  0
  1  3  1  0  0  0  0
  2  4  1  0  0  0  0
  3  6  2  0  0  0  0
  4  7  2  0  0  0  0
  5  8  2  0  0  0  0
  5 21  1  0  0  0  0
  6  7  1  0  0  0  0
  6 15  1  0  0  0  0
  7 18  1  0  0  0  0
  8 19  1  0  0  0  0
  8 22  1  0  0  0  0
  9 20  1  0  0  0  0
  9 21  1  0  0  0  0
  9 22  2  0  0  0  0
 10 11  2  0  0  0  0
 10 12  1  0  0  0  0
 11 21  1  0  0  0  0
 12 20  2  0  0  0  0
 13 16  1  0  0  0  0
 13 23  1  0  0  0  0
 13 24  2  0  0  0  0
 14 18  1  0  0  0  0
 14 23  1  0  0  0  0
 14 25  2  0  0  0  0
 15 17  1  0  0  0  0
 16 18  1  0  0  0  0
 17 18  1  0  0  0  0
 19 23  1  0  0  0  0
  1 26  1  0  0  0  0
  2 27  1  0  0  0  0
  3 28  1  0  0  0  0
  4 29  1  0  0  0  0
  5 30  1  0  0  0  0
 10 31  1  0  0  0  0
 11 32  1  0  0  0  0
 12 33  1  0  0  0  0
 15 34  1  0  0  0  0
 15 35  1  0  0  0  0
 16 36  1  0  0  0  0
 16 37  1  0  0  0  0
 17 38  1  0  0  0  0
 17 39  1  0  0  0  0
 19 40  1  0  0  0  0
 19 41  1  0  0  0  0
 22 42  1  0  0  0  0
M  CHG  1  22   1
M  END
> <Hybrid2>
-10.104204

> <fragments>
x0107

> <site>
active-noncovalent

$$$$
top_hits_only_mpro-245_2
  -OEChem-03302021283D

 39 42  0     1  0  0  0  0  0999 V2000
   11.3206    7.2281   26.2989 C   0  0  0  0  0  0  0  0  0  0  0  0
   12.3884    6.9684   25.4398 C   0  0  0  0  0  0  0  0  0  0  0  0
   10.0888    6.6088   26.0875 C   0  0  0  0  0  0  0  0  0  0  0  0
   11.2512    1.0931   24.5522 C   0  0  0  0  0  0  0  0  0  0  0  0
   12.8407    1.3231   22.7473 C   0  0  0  0  0  0  0  0  0  0  0  0
   12.2243    6.0895   24.3692 C   0  0  0  0  0  0  0  0  0  0  0  0
    9.9247    5.7299   25.0169 C   0  0  0  0  0  0  0  0  0  0  0  0
   10.7707    2.3765   24.2926 C   0  0  0  0  0  0  0  0  0  0  0  0
   12.3601    2.6065   22.4876 C   0  0  0  0  0  0  0  0  0  0  0  0
   14.5245   -2.1631   24.6293 C   0  0  0  0  0  0  0  0  0  0  0  0
   10.4252   -3.3368   23.7618 C   0  0  0  0  0  0  0  0  0  0  0  0
   12.2863    0.5663   23.7796 C   0  0  0  0  0  0  0  0  0  0  0  0
   10.9924    5.4702   24.1578 C   0  0  0  0  0  0  0  0  0  0  0  0
   11.3251    3.1333   23.2603 C   0  0  0  0  0  0  0  0  0  0  0  0
   11.9653   -1.8787   23.9738 C   0  0  0  0  0  0  0  0  0  0  0  0
   12.7806   -0.7537   24.0468 C   0  0  0  0  0  0  0  0  0  0  0  0
   12.5567   -3.1002   24.2541 C   0  0  0  0  0  0  0  0  0  0  0  0
   10.8115    4.5056   22.9829 C   0  0  1  0  0  0  0  0  0  0  0  0
   14.0846   -0.9057   24.3816 N   0  0  0  0  0  0  0  0  0  0  0  0
   13.8357   -3.3245   24.5908 N   0  0  0  0  0  0  0  0  0  0  0  0
   10.6372   -2.0406   23.6688 N   0  0  0  0  0  0  0  0  0  0  0  0
   11.5580   -4.0213   24.1141 N   0  0  0  0  0  0  0  0  0  0  0  0
    9.3965    4.4802   22.4422 N   0  3  0  0  0  0  0  0  0  0  0  0
   11.4490    7.9115   27.1333 H   0  0  0  0  0  0  0  0  0  0  0  0
   13.3479    7.4497   25.6049 H   0  0  0  0  0  0  0  0  0  0  0  0
    9.2576    6.8099   26.7568 H   0  0  0  0  0  0  0  0  0  0  0  0
   10.8091    0.5159   25.3608 H   0  0  0  0  0  0  0  0  0  0  0  0
   13.6476    0.9262   22.1358 H   0  0  0  0  0  0  0  0  0  0  0  0
   13.0617    5.8933   23.7049 H   0  0  0  0  0  0  0  0  0  0  0  0
    8.9613    5.2520   24.8599 H   0  0  0  0  0  0  0  0  0  0  0  0
    9.9648    2.7793   24.9003 H   0  0  0  0  0  0  0  0  0  0  0  0
   12.7976    3.1890   21.6810 H   0  0  0  0  0  0  0  0  0  0  0  0
   15.5730   -2.2470   24.8946 H   0  0  0  0  0  0  0  0  0  0  0  0
    9.4845   -3.8401   23.5898 H   0  0  0  0  0  0  0  0  0  0  0  0
   11.3659    4.9531   22.1347 H   0  0  0  0  0  0  0  0  0  0  0  0
   11.6389   -5.0207   24.2461 H   0  0  0  0  0  0  0  0  0  0  0  0
    8.7592    4.8225   23.1538 H   0  0  0  0  0  0  0  0  0  0  0  0
    9.1502    3.5276   22.1933 H   0  0  0  0  0  0  0  0  0  0  0  0
    9.3408    5.0729   21.6203 H   0  0  0  0  0  0  0  0  0  0  0  0
  1  2  1  0  0  0  0
  1  3  2  0  0  0  0
  2  6  2  0  0  0  0
  3  7  1  0  0  0  0
  4  8  2  0  0  0  0
  4 12  1  0  0  0  0
  5  9  1  0  0  0  0
  5 12  2  0  0  0  0
  6 13  1  0  0  0  0
  7 13  2  0  0  0  0
  8 14  1  0  0  0  0
  9 14  2  0  0  0  0
 10 19  2  0  0  0  0
 10 20  1  0  0  0  0
 11 21  2  0  0  0  0
 11 22  1  0  0  0  0
 12 16  1  0  0  0  0
 13 18  1  0  0  0  0
 14 18  1  0  0  0  0
 15 16  2  0  0  0  0
 15 17  1  0  0  0  0
 15 21  1  0  0  0  0
 16 19  1  0  0  0  0
 17 20  2  0  0  0  0
 17 22  1  0  0  0  0
 18 23  1  0  0  0  0
  1 24  1  0  0  0  0
  2 25  1  0  0  0  0
  3 26  1  0  0  0  0
  4 27  1  0  0  0  0
  5 28  1  0  0  0  0
  6 29  1  0  0  0  0
  7 30  1  0  0  0  0
  8 31  1  0  0  0  0
  9 32  1  0  0  0  0
 10 33  1  0  0  0  0
 11 34  1  0  0  0  0
 18 35  1  0  0  0  0
 22 36  1  0  0  0  0
 23 37  1  0  0  0  0
 23 38  1  0  0  0  0
 23 39  1  0  0  0  0
M  CHG  1  23   1
M  END
> <Hybrid2>
-10.090278

> <fragments>
x0161

> <site>
active-noncovalent

$$$$
top_hits_only_mpro-503_1
  -OEChem-03302021283D

 42 45  0     0  0  0  0  0  0999 V2000
    9.6644   -0.8746   25.5291 C   0  0  0  0  0  0  0  0  0  0  0  0
   13.8401   -2.2305   23.5436 C   0  0  0  0  0  0  0  0  0  0  0  0
   12.9894   -2.8689   22.6461 C   0  0  0  0  0  0  0  0  0  0  0  0
    9.5531   -1.8761   24.5646 C   0  0  0  0  0  0  0  0  0  0  0  0
    9.2168    0.4164   25.2488 C   0  0  0  0  0  0  0  0  0  0  0  0
   13.7482   -0.8514   23.7329 C   0  0  0  0  0  0  0  0  0  0  0  0
   12.0434   -2.1306   21.9345 C   0  0  0  0  0  0  0  0  0  0  0  0
   12.6955    1.2966   23.2031 C   0  0  0  0  0  0  0  0  0  0  0  0
    8.9942   -1.5866   23.3198 C   0  0  0  0  0  0  0  0  0  0  0  0
    8.6579    0.7059   24.0040 C   0  0  0  0  0  0  0  0  0  0  0  0
   11.7496    2.0350   22.4914 C   0  0  0  0  0  0  0  0  0  0  0  0
   12.8020   -0.0924   23.0251 C   0  0  0  0  0  0  0  0  0  0  0  0
   11.9369   -0.7416   22.1124 C   0  0  0  0  0  0  0  0  0  0  0  0
    8.5466   -0.2956   23.0395 C   0  0  0  0  0  0  0  0  0  0  0  0
   10.9907    0.0174   21.4045 C   0  0  0  0  0  0  0  0  0  0  0  0
   10.8989    1.3966   21.5939 C   0  0  0  0  0  0  0  0  0  0  0  0
    7.9573    0.0103   21.7271 C   0  0  0  0  0  0  0  0  0  0  0  0
    8.6359   -0.1436   20.5724 C   0  0  0  0  0  0  0  0  0  0  0  0
    7.9350    0.1954   19.2885 C   0  0  0  0  0  0  0  0  0  0  0  0
    5.9568    0.8030   20.6172 C   0  0  0  0  0  0  0  0  0  0  0  0
   10.0519   -0.6241   20.4267 C   0  0  0  0  0  0  0  0  0  0  0  0
    6.6592    0.4693   21.7500 N   0  0  0  0  0  0  0  0  0  0  0  0
    6.6321    0.6504   19.4219 N   0  0  0  0  0  0  0  0  0  0  0  0
    8.4938    0.0712   18.2010 O   0  0  0  0  0  0  0  0  0  0  0  0
    9.9821    2.1385   20.9106 O   0  0  0  0  0  0  0  0  0  0  0  0
    4.3827    1.3587   20.6799 S   0  0  0  0  0  0  0  0  0  0  0  0
   10.0984   -1.1003   26.4987 H   0  0  0  0  0  0  0  0  0  0  0  0
   14.5756   -2.8061   24.0980 H   0  0  0  0  0  0  0  0  0  0  0  0
   13.0613   -3.9426   22.4994 H   0  0  0  0  0  0  0  0  0  0  0  0
    9.9005   -2.8818   24.7831 H   0  0  0  0  0  0  0  0  0  0  0  0
    9.3023    1.1960   26.0001 H   0  0  0  0  0  0  0  0  0  0  0  0
   14.4236   -0.3735   24.4394 H   0  0  0  0  0  0  0  0  0  0  0  0
   11.3977   -2.6667   21.2427 H   0  0  0  0  0  0  0  0  0  0  0  0
   13.3498    1.8169   23.8993 H   0  0  0  0  0  0  0  0  0  0  0  0
    8.9142   -2.3779   22.5782 H   0  0  0  0  0  0  0  0  0  0  0  0
    8.3135    1.7172   23.8006 H   0  0  0  0  0  0  0  0  0  0  0  0
   11.6828    3.1088   22.6435 H   0  0  0  0  0  0  0  0  0  0  0  0
   10.3942   -0.4288   19.4008 H   0  0  0  0  0  0  0  0  0  0  0  0
   10.0709   -1.7168   20.5399 H   0  0  0  0  0  0  0  0  0  0  0  0
    6.1995    0.5650   22.6513 H   0  0  0  0  0  0  0  0  0  0  0  0
    6.1330    0.8914   18.5704 H   0  0  0  0  0  0  0  0  0  0  0  0
   10.0540    3.0726   21.1613 H   0  0  0  0  0  0  0  0  0  0  0  0
  1  4  1  0  0  0  0
  1  5  2  0  0  0  0
  2  3  1  0  0  0  0
  2  6  2  0  0  0  0
  3  7  2  0  0  0  0
  4  9  2  0  0  0  0
  5 10  1  0  0  0  0
  6 12  1  0  0  0  0
  7 13  1  0  0  0  0
  8 11  1  0  0  0  0
  8 12  2  0  0  0  0
  9 14  1  0  0  0  0
 10 14  2  0  0  0  0
 11 16  2  0  0  0  0
 12 13  1  0  0  0  0
 13 15  2  0  0  0  0
 14 17  1  0  0  0  0
 15 16  1  0  0  0  0
 15 21  1  0  0  0  0
 16 25  1  0  0  0  0
 17 18  2  0  0  0  0
 17 22  1  0  0  0  0
 18 19  1  0  0  0  0
 18 21  1  0  0  0  0
 19 23  1  0  0  0  0
 19 24  2  0  0  0  0
 20 22  1  0  0  0  0
 20 23  1  0  0  0  0
 20 26  2  0  0  0  0
  1 27  1  0  0  0  0
  2 28  1  0  0  0  0
  3 29  1  0  0  0  0
  4 30  1  0  0  0  0
  5 31  1  0  0  0  0
  6 32  1  0  0  0  0
  7 33  1  0  0  0  0
  8 34  1  0  0  0  0
  9 35  1  0  0  0  0
 10 36  1  0  0  0  0
 11 37  1  0  0  0  0
 21 38  1  0  0  0  0
 21 39  1  0  0  0  0
 22 40  1  0  0  0  0
 23 41  1  0  0  0  0
 25 42  1  0  0  0  0
M  END
> <Hybrid2>
-10.075371

> <fragments>
x0678

> <site>
active-noncovalent

$$$$
top_hits_only_mpro-166_1
  -OEChem-03302021283D

 40 43  0     0  0  0  0  0  0999 V2000
    5.0512   -5.7865   25.3172 C   0  0  0  0  0  0  0  0  0  0  0  0
    5.8613   -4.7099   24.9608 C   0  0  0  0  0  0  0  0  0  0  0  0
   11.7003    0.2812   22.6662 C   0  0  0  0  0  0  0  0  0  0  0  0
   10.8985    2.5594   22.6037 C   0  0  0  0  0  0  0  0  0  0  0  0
   13.2239    2.1098   23.0807 C   0  0  0  0  0  0  0  0  0  0  0  0
    5.6223   -6.8579   25.9907 C   0  0  0  0  0  0  0  0  0  0  0  0
    9.4325   -4.5616   25.7123 C   0  0  0  0  0  0  0  0  0  0  0  0
    7.2212   -4.7701   25.3059 C   0  0  0  0  0  0  0  0  0  0  0  0
    8.3512   -3.9262   25.1409 C   0  0  0  0  0  0  0  0  0  0  0  0
   10.6579    1.1905   22.4864 C   0  0  0  0  0  0  0  0  0  0  0  0
   12.9833    0.7409   22.9633 C   0  0  0  0  0  0  0  0  0  0  0  0
   12.1816    3.0191   22.9009 C   0  0  0  0  0  0  0  0  0  0  0  0
    7.6609   -5.9051   25.9810 C   0  0  0  0  0  0  0  0  0  0  0  0
    8.7975   -1.4952   25.1520 C   0  0  0  0  0  0  0  0  0  0  0  0
    8.4096   -2.5986   24.4837 C   0  0  0  0  0  0  0  0  0  0  0  0
    9.3048    0.7057   22.1728 C   0  0  0  0  0  0  0  0  0  0  0  0
    8.9114   -0.1264   24.5419 C   0  0  0  0  0  0  0  0  0  0  0  0
    8.0359   -2.5123   23.0233 C   0  0  0  0  0  0  0  0  0  0  0  0
    7.6663   -1.0874   22.6192 C   0  0  0  0  0  0  0  0  0  0  0  0
    6.9228   -6.9698   26.3480 N   0  0  0  0  0  0  0  0  0  0  0  0
    9.0025   -5.7609   26.2182 N   0  0  0  0  0  0  0  0  0  0  0  0
    8.6777   -0.1439   23.0908 N   0  0  0  0  0  0  0  0  0  0  0  0
    8.8182    1.0952   21.1121 O   0  0  0  0  0  0  0  0  0  0  0  0
   14.2693   -0.3814   23.1852 Cl  0  0  0  0  0  0  0  0  0  0  0  0
   12.4780    4.7082   23.0461 Cl  0  0  0  0  0  0  0  0  0  0  0  0
    3.9942   -5.7870   25.0730 H   0  0  0  0  0  0  0  0  0  0  0  0
    5.4451   -3.8579   24.4326 H   0  0  0  0  0  0  0  0  0  0  0  0
   11.5090   -0.7860   22.5742 H   0  0  0  0  0  0  0  0  0  0  0  0
   10.0835    3.2660   22.4627 H   0  0  0  0  0  0  0  0  0  0  0  0
   14.2247    2.4682   23.3125 H   0  0  0  0  0  0  0  0  0  0  0  0
    5.0055   -7.7058   26.2763 H   0  0  0  0  0  0  0  0  0  0  0  0
   10.4708   -4.2727   25.8066 H   0  0  0  0  0  0  0  0  0  0  0  0
    9.0478   -1.5694   26.2082 H   0  0  0  0  0  0  0  0  0  0  0  0
    8.1972    0.5420   25.0315 H   0  0  0  0  0  0  0  0  0  0  0  0
    9.9186    0.2712   24.7084 H   0  0  0  0  0  0  0  0  0  0  0  0
    8.8729   -2.8397   22.3935 H   0  0  0  0  0  0  0  0  0  0  0  0
    7.1948   -3.1887   22.8243 H   0  0  0  0  0  0  0  0  0  0  0  0
    7.6127   -0.9918   21.5274 H   0  0  0  0  0  0  0  0  0  0  0  0
    6.6785   -0.8322   23.0168 H   0  0  0  0  0  0  0  0  0  0  0  0
    9.5856   -6.4355   26.6937 H   0  0  0  0  0  0  0  0  0  0  0  0
  1  2  1  0  0  0  0
  1  6  2  0  0  0  0
  2  8  2  0  0  0  0
  3 10  2  0  0  0  0
  3 11  1  0  0  0  0
  4 10  1  0  0  0  0
  4 12  2  0  0  0  0
  5 11  2  0  0  0  0
  5 12  1  0  0  0  0
  6 20  1  0  0  0  0
  7  9  2  0  0  0  0
  7 21  1  0  0  0  0
  8  9  1  0  0  0  0
  8 13  1  0  0  0  0
  9 15  1  0  0  0  0
 10 16  1  0  0  0  0
 11 24  1  0  0  0  0
 12 25  1  0  0  0  0
 13 20  2  0  0  0  0
 13 21  1  0  0  0  0
 14 15  2  0  0  0  0
 14 17  1  0  0  0  0
 15 18  1  0  0  0  0
 16 22  1  0  0  0  0
 16 23  2  0  0  0  0
 17 22  1  0  0  0  0
 18 19  1  0  0  0  0
 19 22  1  0  0  0  0
  1 26  1  0  0  0  0
  2 27  1  0  0  0  0
  3 28  1  0  0  0  0
  4 29  1  0  0  0  0
  5 30  1  0  0  0  0
  6 31  1  0  0  0  0
  7 32  1  0  0  0  0
 14 33  1  0  0  0  0
 17 34  1  0  0  0  0
 17 35  1  0  0  0  0
 18 36  1  0  0  0  0
 18 37  1  0  0  0  0
 19 38  1  0  0  0  0
 19 39  1  0  0  0  0
 21 40  1  0  0  0  0
M  END
> <Hybrid2>
-10.067060

> <fragments>
x0874

> <site>
active-noncovalent

$$$$
top_hits_only_mpro-407_1
  -OEChem-03302021283D

 45 47  0     0  0  0  0  0  0999 V2000
    6.1056    0.1388   22.5517 C   0  0  0  0  0  0  0  0  0  0  0  0
    4.7011    1.2208   18.7958 C   0  0  0  0  0  0  0  0  0  0  0  0
    4.8683    0.7208   22.3555 C   0  0  0  0  0  0  0  0  0  0  0  0
    5.5131    0.9855   17.6944 C   0  0  0  0  0  0  0  0  0  0  0  0
    7.1644    0.0859   18.9964 C   0  0  0  0  0  0  0  0  0  0  0  0
    6.4229    0.2807   20.1642 C   0  0  0  0  0  0  0  0  0  0  0  0
    6.8945   -0.0838   21.4329 C   0  0  0  0  0  0  0  0  0  0  0  0
    5.1494    0.8677   20.0613 C   0  0  0  0  0  0  0  0  0  0  0  0
    8.2016   -0.6973   21.6374 C   0  0  0  0  0  0  0  0  0  0  0  0
    9.6385   -3.0730   23.9186 C   0  0  0  0  0  0  0  0  0  0  0  0
    7.1213   -3.2085   24.0458 C   0  0  0  0  0  0  0  0  0  0  0  0
    9.5143   -2.6402   22.4589 C   0  0  0  0  0  0  0  0  0  0  0  0
    7.0560   -2.7815   22.5815 C   0  0  0  0  0  0  0  0  0  0  0  0
    8.4414   -3.9342   24.3517 C   0  0  0  0  0  0  0  0  0  0  0  0
    9.8468   -5.0451   26.1060 C   0  0  0  0  0  0  0  0  0  0  0  0
    7.3463   -5.1796   26.2320 C   0  0  0  0  0  0  0  0  0  0  0  0
    8.5087   -3.0035   26.6788 C   0  0  0  0  0  0  0  0  0  0  0  0
    8.5353   -4.2886   25.8337 C   0  0  0  0  0  0  0  0  0  0  0  0
    6.7372    0.4251   17.7623 N   0  0  0  0  0  0  0  0  0  0  0  0
    4.3815    1.0851   21.1461 N   0  0  0  0  0  0  0  0  0  0  0  0
    8.2313   -1.9746   22.2262 N   0  0  0  0  0  0  0  0  0  0  0  0
    9.2254   -0.0994   21.3010 O   0  0  0  0  0  0  0  0  0  0  0  0
    6.4359   -0.1295   23.5493 H   0  0  0  0  0  0  0  0  0  0  0  0
    3.7256    1.6783   18.6587 H   0  0  0  0  0  0  0  0  0  0  0  0
    4.2084    0.9187   23.1939 H   0  0  0  0  0  0  0  0  0  0  0  0
    5.1822    1.2540   16.6962 H   0  0  0  0  0  0  0  0  0  0  0  0
    8.1540   -0.3610   19.0088 H   0  0  0  0  0  0  0  0  0  0  0  0
   10.5696   -3.6366   24.0511 H   0  0  0  0  0  0  0  0  0  0  0  0
    9.7119   -2.1820   24.5555 H   0  0  0  0  0  0  0  0  0  0  0  0
    7.0173   -2.3248   24.6882 H   0  0  0  0  0  0  0  0  0  0  0  0
    6.2743   -3.8678   24.2697 H   0  0  0  0  0  0  0  0  0  0  0  0
   10.3456   -1.9785   22.1951 H   0  0  0  0  0  0  0  0  0  0  0  0
    9.5608   -3.5101   21.7933 H   0  0  0  0  0  0  0  0  0  0  0  0
    7.0524   -3.6597   21.9249 H   0  0  0  0  0  0  0  0  0  0  0  0
    6.1254   -2.2377   22.4009 H   0  0  0  0  0  0  0  0  0  0  0  0
    8.4628   -4.8699   23.7771 H   0  0  0  0  0  0  0  0  0  0  0  0
    9.9430   -5.3137   27.1640 H   0  0  0  0  0  0  0  0  0  0  0  0
   10.7162   -4.4347   25.8367 H   0  0  0  0  0  0  0  0  0  0  0  0
    9.8954   -5.9706   25.5215 H   0  0  0  0  0  0  0  0  0  0  0  0
    7.3933   -5.4467   27.2938 H   0  0  0  0  0  0  0  0  0  0  0  0
    6.3943   -4.6651   26.0597 H   0  0  0  0  0  0  0  0  0  0  0  0
    7.3313   -6.1107   25.6545 H   0  0  0  0  0  0  0  0  0  0  0  0
    8.5750   -3.2344   27.7480 H   0  0  0  0  0  0  0  0  0  0  0  0
    7.5855   -2.4359   26.5171 H   0  0  0  0  0  0  0  0  0  0  0  0
    9.3509   -2.3493   26.4263 H   0  0  0  0  0  0  0  0  0  0  0  0
  1  3  2  0  0  0  0
  1  7  1  0  0  0  0
  2  4  2  0  0  0  0
  2  8  1  0  0  0  0
  3 20  1  0  0  0  0
  4 19  1  0  0  0  0
  5  6  1  0  0  0  0
  5 19  2  0  0  0  0
  6  7  2  0  0  0  0
  6  8  1  0  0  0  0
  7  9  1  0  0  0  0
  8 20  2  0  0  0  0
  9 21  1  0  0  0  0
  9 22  2  0  0  0  0
 10 12  1  0  0  0  0
 10 14  1  0  0  0  0
 11 13  1  0  0  0  0
 11 14  1  0  0  0  0
 12 21  1  0  0  0  0
 13 21  1  0  0  0  0
 14 18  1  0  0  0  0
 15 18  1  0  0  0  0
 16 18  1  0  0  0  0
 17 18  1  0  0  0  0
  1 23  1  0  0  0  0
  2 24  1  0  0  0  0
  3 25  1  0  0  0  0
  4 26  1  0  0  0  0
  5 27  1  0  0  0  0
 10 28  1  0  0  0  0
 10 29  1  0  0  0  0
 11 30  1  0  0  0  0
 11 31  1  0  0  0  0
 12 32  1  0  0  0  0
 12 33  1  0  0  0  0
 13 34  1  0  0  0  0
 13 35  1  0  0  0  0
 14 36  1  0  0  0  0
 15 37  1  0  0  0  0
 15 38  1  0  0  0  0
 15 39  1  0  0  0  0
 16 40  1  0  0  0  0
 16 41  1  0  0  0  0
 16 42  1  0  0  0  0
 17 43  1  0  0  0  0
 17 44  1  0  0  0  0
 17 45  1  0  0  0  0
M  END
> <Hybrid2>
-10.066088

> <fragments>
x0107

> <site>
active-noncovalent

$$$$
top_hits_only_mpro-384_1
  -OEChem-03302021283D

 46 49  0     0  0  0  0  0  0999 V2000
    6.4327    0.5428   18.0100 C   0  0  0  0  0  0  0  0  0  0  0  0
    4.9348   -4.3710   26.4400 C   0  0  0  0  0  0  0  0  0  0  0  0
    5.8092   -3.8261   25.5014 C   0  0  0  0  0  0  0  0  0  0  0  0
    7.5088    0.3193   18.8688 C   0  0  0  0  0  0  0  0  0  0  0  0
    5.1958    0.9279   18.5273 C   0  0  0  0  0  0  0  0  0  0  0  0
    5.4124   -5.3363   27.3161 C   0  0  0  0  0  0  0  0  0  0  0  0
    9.3149   -4.8136   25.2268 C   0  0  0  0  0  0  0  0  0  0  0  0
    7.1353   -4.2882   25.4949 C   0  0  0  0  0  0  0  0  0  0  0  0
    8.3050   -4.0130   24.7382 C   0  0  0  0  0  0  0  0  0  0  0  0
    7.3481    0.4808   20.2449 C   0  0  0  0  0  0  0  0  0  0  0  0
    5.0351    1.0894   19.9034 C   0  0  0  0  0  0  0  0  0  0  0  0
    6.1112    0.8659   20.7623 C   0  0  0  0  0  0  0  0  0  0  0  0
    7.4794   -5.2600   26.4299 C   0  0  0  0  0  0  0  0  0  0  0  0
    7.7361   -3.1558   22.4909 C   0  0  0  0  0  0  0  0  0  0  0  0
    8.4629   -3.0522   23.6203 C   0  0  0  0  0  0  0  0  0  0  0  0
    8.5017    0.2392   21.1253 C   0  0  0  0  0  0  0  0  0  0  0  0
    7.8205   -2.2005   21.3336 C   0  0  0  0  0  0  0  0  0  0  0  0
    9.4582   -1.9288   23.7850 C   0  0  0  0  0  0  0  0  0  0  0  0
    9.8723   -1.3406   22.4386 C   0  0  0  0  0  0  0  0  0  0  0  0
    3.7008    1.5043   20.4317 C   0  0  0  0  0  0  0  0  0  0  0  0
    5.9354    1.0405   22.2380 C   0  0  0  0  0  0  0  0  0  0  0  0
    6.6764   -5.8183   27.3554 N   0  0  0  0  0  0  0  0  0  0  0  0
    8.8030   -5.5658   26.2521 N   0  0  0  0  0  0  0  0  0  0  0  0
    8.6947   -1.0547   21.6220 N   0  0  0  0  0  0  0  0  0  0  0  0
    9.2234    1.2082   21.3569 O   0  0  0  0  0  0  0  0  0  0  0  0
    6.5573    0.4174   16.9383 H   0  0  0  0  0  0  0  0  0  0  0  0
    3.9006   -4.0467   26.4849 H   0  0  0  0  0  0  0  0  0  0  0  0
    5.4661   -3.0705   24.8017 H   0  0  0  0  0  0  0  0  0  0  0  0
    8.4672    0.0193   18.4529 H   0  0  0  0  0  0  0  0  0  0  0  0
    4.3637    1.0995   17.8495 H   0  0  0  0  0  0  0  0  0  0  0  0
    4.7445   -5.7720   28.0545 H   0  0  0  0  0  0  0  0  0  0  0  0
   10.3528   -4.9194   24.9405 H   0  0  0  0  0  0  0  0  0  0  0  0
    7.0348   -3.9801   22.3794 H   0  0  0  0  0  0  0  0  0  0  0  0
    8.1820   -2.7393   20.4531 H   0  0  0  0  0  0  0  0  0  0  0  0
    6.8244   -1.8056   21.1055 H   0  0  0  0  0  0  0  0  0  0  0  0
    9.0286   -1.1221   24.3925 H   0  0  0  0  0  0  0  0  0  0  0  0
   10.3414   -2.3029   24.3184 H   0  0  0  0  0  0  0  0  0  0  0  0
   10.4143   -0.3962   22.5742 H   0  0  0  0  0  0  0  0  0  0  0  0
   10.5471   -2.0315   21.9224 H   0  0  0  0  0  0  0  0  0  0  0  0
    3.0879    0.6222   20.6498 H   0  0  0  0  0  0  0  0  0  0  0  0
    3.8047    2.0942   21.3506 H   0  0  0  0  0  0  0  0  0  0  0  0
    3.1661    2.1318   19.7080 H   0  0  0  0  0  0  0  0  0  0  0  0
    6.1633    2.0725   22.5253 H   0  0  0  0  0  0  0  0  0  0  0  0
    4.9081    0.8092   22.5420 H   0  0  0  0  0  0  0  0  0  0  0  0
    6.5954    0.3659   22.7954 H   0  0  0  0  0  0  0  0  0  0  0  0
    9.3223   -6.2424   26.7942 H   0  0  0  0  0  0  0  0  0  0  0  0
  1  4  2  0  0  0  0
  1  5  1  0  0  0  0
  2  3  1  0  0  0  0
  2  6  2  0  0  0  0
  3  8  2  0  0  0  0
  4 10  1  0  0  0  0
  5 11  2  0  0  0  0
  6 22  1  0  0  0  0
  7  9  2  0  0  0  0
  7 23  1  0  0  0  0
  8  9  1  0  0  0  0
  8 13  1  0  0  0  0
  9 15  1  0  0  0  0
 10 12  2  0  0  0  0
 10 16  1  0  0  0  0
 11 12  1  0  0  0  0
 11 20  1  0  0  0  0
 12 21  1  0  0  0  0
 13 22  2  0  0  0  0
 13 23  1  0  0  0  0
 14 15  2  0  0  0  0
 14 17  1  0  0  0  0
 15 18  1  0  0  0  0
 16 24  1  0  0  0  0
 16 25  2  0  0  0  0
 17 24  1  0  0  0  0
 18 19  1  0  0  0  0
 19 24  1  0  0  0  0
  1 26  1  0  0  0  0
  2 27  1  0  0  0  0
  3 28  1  0  0  0  0
  4 29  1  0  0  0  0
  5 30  1  0  0  0  0
  6 31  1  0  0  0  0
  7 32  1  0  0  0  0
 14 33  1  0  0  0  0
 17 34  1  0  0  0  0
 17 35  1  0  0  0  0
 18 36  1  0  0  0  0
 18 37  1  0  0  0  0
 19 38  1  0  0  0  0
 19 39  1  0  0  0  0
 20 40  1  0  0  0  0
 20 41  1  0  0  0  0
 20 42  1  0  0  0  0
 21 43  1  0  0  0  0
 21 44  1  0  0  0  0
 21 45  1  0  0  0  0
 23 46  1  0  0  0  0
M  END
> <Hybrid2>
-10.058902

> <fragments>
x0107

> <site>
active-noncovalent

$$$$
top_hits_only_mpro-104_1
  -OEChem-03302021283D

 42 45  0     1  0  0  0  0  0999 V2000
   13.3227    0.2819   23.8290 C   0  0  0  0  0  0  0  0  0  0  0  0
   13.6649   -1.0255   23.4985 C   0  0  0  0  0  0  0  0  0  0  0  0
    8.1278   -2.7029   25.2155 C   0  0  0  0  0  0  0  0  0  0  0  0
   12.0871    0.7967   23.4400 C   0  0  0  0  0  0  0  0  0  0  0  0
    8.7967   -2.0828   24.1661 C   0  0  0  0  0  0  0  0  0  0  0  0
   12.7663   -1.8216   22.7876 C   0  0  0  0  0  0  0  0  0  0  0  0
    6.8852    0.9112   21.5179 C   0  0  0  0  0  0  0  0  0  0  0  0
    7.7569   -0.0432   19.4768 C   0  0  0  0  0  0  0  0  0  0  0  0
    5.7775    1.3923   20.8199 C   0  0  0  0  0  0  0  0  0  0  0  0
    6.6492    0.4378   18.7788 C   0  0  0  0  0  0  0  0  0  0  0  0
    7.1773   -3.6612   24.9026 C   0  0  0  0  0  0  0  0  0  0  0  0
    7.5320   -3.4055   22.6472 C   0  0  0  0  0  0  0  0  0  0  0  0
   11.1856   -0.0050   22.7256 C   0  0  0  0  0  0  0  0  0  0  0  0
    8.4990   -2.4350   22.8543 C   0  0  0  0  0  0  0  0  0  0  0  0
    7.8749    0.1935   20.8463 C   0  0  0  0  0  0  0  0  0  0  0  0
   11.5115   -1.3261   22.4059 C   0  0  0  0  0  0  0  0  0  0  0  0
    5.6595    1.1556   19.4504 C   0  0  0  0  0  0  0  0  0  0  0  0
    9.9008    0.5723   22.2500 C   0  0  0  0  0  0  0  0  0  0  0  0
    9.2149   -1.7744   21.6820 C   0  0  2  0  0  0  0  0  0  0  0  0
    3.6046    2.3509   19.5176 C   0  0  0  0  0  0  0  0  0  0  0  0
    6.8610   -4.0299   23.6410 N   0  0  0  0  0  0  0  0  0  0  0  0
   10.6242   -2.1302   21.7159 N   0  0  0  0  0  0  0  0  0  0  0  0
    9.0273   -0.3070   21.5723 N   0  0  0  0  0  0  0  0  0  0  0  0
    9.6908    1.7601   22.4863 O   0  0  0  0  0  0  0  0  0  0  0  0
    4.5786    1.6250   18.7692 O   0  0  0  0  0  0  0  0  0  0  0  0
   14.0209    0.9039   24.3814 H   0  0  0  0  0  0  0  0  0  0  0  0
   14.6298   -1.4268   23.7940 H   0  0  0  0  0  0  0  0  0  0  0  0
    8.3437   -2.4444   26.2458 H   0  0  0  0  0  0  0  0  0  0  0  0
   11.8473    1.8258   23.6938 H   0  0  0  0  0  0  0  0  0  0  0  0
    9.5478   -1.3271   24.3795 H   0  0  0  0  0  0  0  0  0  0  0  0
   13.0494   -2.8428   22.5416 H   0  0  0  0  0  0  0  0  0  0  0  0
    6.9668    1.1014   22.5851 H   0  0  0  0  0  0  0  0  0  0  0  0
    8.5220   -0.6013   18.9430 H   0  0  0  0  0  0  0  0  0  0  0  0
    5.0098    1.9507   21.3486 H   0  0  0  0  0  0  0  0  0  0  0  0
    6.5629    0.2503   17.7119 H   0  0  0  0  0  0  0  0  0  0  0  0
    6.6277   -4.1736   25.6853 H   0  0  0  0  0  0  0  0  0  0  0  0
    7.2575   -3.7215   21.6455 H   0  0  0  0  0  0  0  0  0  0  0  0
    8.7937   -2.2328   20.7537 H   0  0  0  0  0  0  0  0  0  0  0  0
    2.7962    2.6678   18.8542 H   0  0  0  0  0  0  0  0  0  0  0  0
    4.0743    3.2230   19.9794 H   0  0  0  0  0  0  0  0  0  0  0  0
    3.1995    1.7019   20.2976 H   0  0  0  0  0  0  0  0  0  0  0  0
   10.8894   -3.0869   21.5114 H   0  0  0  0  0  0  0  0  0  0  0  0
  1  2  2  0  0  0  0
  1  4  1  0  0  0  0
  2  6  1  0  0  0  0
  3  5  2  0  0  0  0
  3 11  1  0  0  0  0
  4 13  2  0  0  0  0
  5 14  1  0  0  0  0
  6 16  2  0  0  0  0
  7  9  2  0  0  0  0
  7 15  1  0  0  0  0
  8 10  1  0  0  0  0
  8 15  2  0  0  0  0
  9 17  1  0  0  0  0
 10 17  2  0  0  0  0
 11 21  2  0  0  0  0
 12 14  2  0  0  0  0
 12 21  1  0  0  0  0
 13 16  1  0  0  0  0
 13 18  1  0  0  0  0
 14 19  1  0  0  0  0
 15 23  1  0  0  0  0
 16 22  1  0  0  0  0
 17 25  1  0  0  0  0
 18 23  1  0  0  0  0
 18 24  2  0  0  0  0
 19 22  1  0  0  0  0
 19 23  1  0  0  0  0
 20 25  1  0  0  0  0
  1 26  1  0  0  0  0
  2 27  1  0  0  0  0
  3 28  1  0  0  0  0
  4 29  1  0  0  0  0
  5 30  1  0  0  0  0
  6 31  1  0  0  0  0
  7 32  1  0  0  0  0
  8 33  1  0  0  0  0
  9 34  1  0  0  0  0
 10 35  1  0  0  0  0
 11 36  1  0  0  0  0
 12 37  1  0  0  0  0
 19 38  1  0  0  0  0
 20 39  1  0  0  0  0
 20 40  1  0  0  0  0
 20 41  1  0  0  0  0
 22 42  1  0  0  0  0
M  END
> <Hybrid2>
-10.050878

> <fragments>
x1093

> <site>
active-noncovalent

$$$$
top_hits_only_mpro-222_1
  -OEChem-03302021283D

 37 39  0     0  0  0  0  0  0999 V2000
   14.5971    1.4759   21.9409 C   0  0  0  0  0  0  0  0  0  0  0  0
   13.8995    2.6373   22.2963 C   0  0  0  0  0  0  0  0  0  0  0  0
   10.2642    6.0801   23.1842 C   0  0  0  0  0  0  0  0  0  0  0  0
   11.8831    1.3582   22.7722 C   0  0  0  0  0  0  0  0  0  0  0  0
   14.2429   -1.1067   21.7440 C   0  0  0  0  0  0  0  0  0  0  0  0
   11.6809    6.9218   24.8992 C   0  0  0  0  0  0  0  0  0  0  0  0
    9.6757    7.9704   24.5020 C   0  0  0  0  0  0  0  0  0  0  0  0
   13.9250    0.2438   22.0035 C   0  0  0  0  0  0  0  0  0  0  0  0
   11.4525    5.9891   23.9004 C   0  0  0  0  0  0  0  0  0  0  0  0
   12.5967    0.2125   22.4135 C   0  0  0  0  0  0  0  0  0  0  0  0
   12.5657    2.5772   22.7045 C   0  0  0  0  0  0  0  0  0  0  0  0
    9.3534    7.0869   23.4844 C   0  0  0  0  0  0  0  0  0  0  0  0
   12.4364    4.9326   23.6079 C   0  0  0  0  0  0  0  0  0  0  0  0
    9.8436   -1.1491   21.7740 C   0  0  0  0  0  0  0  0  0  0  0  0
   10.5907   -1.4349   24.1753 C   0  0  0  0  0  0  0  0  0  0  0  0
   10.9451   -1.6608   22.7043 C   0  0  0  0  0  0  0  0  0  0  0  0
   10.8200    7.9137   25.2196 N   0  0  0  0  0  0  0  0  0  0  0  0
   13.2174   -1.9322   21.9649 N   0  0  0  0  0  0  0  0  0  0  0  0
   12.2367   -1.1073   22.3683 N   0  0  0  0  0  0  0  0  0  0  0  0
   11.8997    3.7543   23.0526 N   0  0  0  0  0  0  0  0  0  0  0  0
   13.6268    5.0859   23.8728 O   0  0  0  0  0  0  0  0  0  0  0  0
    8.2020    7.1984   22.8125 F   0  0  0  0  0  0  0  0  0  0  0  0
   15.6342    1.5349   21.6249 H   0  0  0  0  0  0  0  0  0  0  0  0
   14.4165    3.5936   22.2489 H   0  0  0  0  0  0  0  0  0  0  0  0
   10.0389    5.3727   22.3906 H   0  0  0  0  0  0  0  0  0  0  0  0
   10.8464    1.3030   23.0883 H   0  0  0  0  0  0  0  0  0  0  0  0
   15.1804   -1.5220   21.4027 H   0  0  0  0  0  0  0  0  0  0  0  0
   12.5889    6.9007   25.4942 H   0  0  0  0  0  0  0  0  0  0  0  0
    8.9996    8.7740   24.7746 H   0  0  0  0  0  0  0  0  0  0  0  0
    9.7027   -0.0667   21.8641 H   0  0  0  0  0  0  0  0  0  0  0  0
    8.8880   -1.6299   22.0088 H   0  0  0  0  0  0  0  0  0  0  0  0
   10.0833   -1.3684   20.7276 H   0  0  0  0  0  0  0  0  0  0  0  0
   10.5003   -0.3654   24.3953 H   0  0  0  0  0  0  0  0  0  0  0  0
   11.3686   -1.8483   24.8261 H   0  0  0  0  0  0  0  0  0  0  0  0
    9.6426   -1.9121   24.4453 H   0  0  0  0  0  0  0  0  0  0  0  0
   11.0202   -2.7452   22.5519 H   0  0  0  0  0  0  0  0  0  0  0  0
   10.8881    3.7620   22.8817 H   0  0  0  0  0  0  0  0  0  0  0  0
  1  2  2  0  0  0  0
  1  8  1  0  0  0  0
  2 11  1  0  0  0  0
  3  9  1  0  0  0  0
  3 12  2  0  0  0  0
  4 10  1  0  0  0  0
  4 11  2  0  0  0  0
  5  8  1  0  0  0  0
  5 18  2  0  0  0  0
  6  9  2  0  0  0  0
  6 17  1  0  0  0  0
  7 12  1  0  0  0  0
  7 17  2  0  0  0  0
  8 10  2  0  0  0  0
  9 13  1  0  0  0  0
 10 19  1  0  0  0  0
 11 20  1  0  0  0  0
 12 22  1  0  0  0  0
 13 20  1  0  0  0  0
 13 21  2  0  0  0  0
 14 16  1  0  0  0  0
 15 16  1  0  0  0  0
 16 19  1  0  0  0  0
 18 19  1  0  0  0  0
  1 23  1  0  0  0  0
  2 24  1  0  0  0  0
  3 25  1  0  0  0  0
  4 26  1  0  0  0  0
  5 27  1  0  0  0  0
  6 28  1  0  0  0  0
  7 29  1  0  0  0  0
 14 30  1  0  0  0  0
 14 31  1  0  0  0  0
 14 32  1  0  0  0  0
 15 33  1  0  0  0  0
 15 34  1  0  0  0  0
 15 35  1  0  0  0  0
 16 36  1  0  0  0  0
 20 37  1  0  0  0  0
M  END
> <Hybrid2>
-10.046934

> <fragments>
x0195

> <site>
active-noncovalent

$$$$
top_hits_only_mpro-186_1
  -OEChem-03302021283D

 47 50  0     1  0  0  0  0  0999 V2000
    4.7339    1.5372   21.4007 C   0  0  0  0  0  0  0  0  0  0  0  0
    5.6238    0.9986   22.3272 C   0  0  0  0  0  0  0  0  0  0  0  0
    5.0112    1.4545   20.0364 C   0  0  0  0  0  0  0  0  0  0  0  0
    6.7949    0.3748   21.8935 C   0  0  0  0  0  0  0  0  0  0  0  0
    6.5136    0.7182   18.2357 C   0  0  0  0  0  0  0  0  0  0  0  0
   10.7387   -2.3163   24.4419 C   0  0  0  0  0  0  0  0  0  0  0  0
    8.4750   -0.3874   18.6890 C   0  0  0  0  0  0  0  0  0  0  0  0
    6.1865    0.8289   19.5886 C   0  0  0  0  0  0  0  0  0  0  0  0
    7.0899    0.2824   20.5235 C   0  0  0  0  0  0  0  0  0  0  0  0
   10.7891   -0.9582   24.0749 C   0  0  0  0  0  0  0  0  0  0  0  0
    8.2554   -0.3367   20.0571 C   0  0  0  0  0  0  0  0  0  0  0  0
    9.8162   -0.3600   24.8380 C   0  0  0  0  0  0  0  0  0  0  0  0
   13.0357   -0.6871   21.1484 C   0  0  0  0  0  0  0  0  0  0  0  0
   13.8748   -0.8850   22.3924 C   0  0  0  0  0  0  0  0  0  0  0  0
   11.7076   -0.3110   23.0690 C   0  0  2  0  0  0  0  0  0  0  0  0
   11.6523   -0.9520   21.6880 C   0  0  1  0  0  0  0  0  0  0  0  0
    9.3696    1.0435   24.9211 C   0  0  0  0  0  0  0  0  0  0  0  0
    8.1947   -1.2299   26.5495 C   0  0  0  0  0  0  0  0  0  0  0  0
    9.2712   -0.9441   20.9669 C   0  0  0  0  0  0  0  0  0  0  0  0
    7.6337    0.1244   17.7655 N   0  0  0  0  0  0  0  0  0  0  0  0
    9.8076   -2.5665   25.3662 N   0  0  0  0  0  0  0  0  0  0  0  0
    9.2640   -1.3574   25.5867 N   0  0  0  0  0  0  0  0  0  0  0  0
   10.6204   -0.3287   20.8387 N   0  3  0  0  0  0  0  0  0  0  0  0
   13.0856   -0.4128   23.4957 O   0  0  0  0  0  0  0  0  0  0  0  0
    3.8235    2.0219   21.7410 H   0  0  0  0  0  0  0  0  0  0  0  0
    5.4061    1.0637   23.3894 H   0  0  0  0  0  0  0  0  0  0  0  0
    4.3050    1.8803   19.3272 H   0  0  0  0  0  0  0  0  0  0  0  0
    7.4654   -0.0335   22.6459 H   0  0  0  0  0  0  0  0  0  0  0  0
    5.8614    1.1179   17.4639 H   0  0  0  0  0  0  0  0  0  0  0  0
   11.3404   -3.1360   24.0760 H   0  0  0  0  0  0  0  0  0  0  0  0
    9.3640   -0.8574   18.2791 H   0  0  0  0  0  0  0  0  0  0  0  0
   13.1331    0.3501   20.8042 H   0  0  0  0  0  0  0  0  0  0  0  0
   13.3262   -1.3518   20.3303 H   0  0  0  0  0  0  0  0  0  0  0  0
   14.0900   -1.9454   22.5633 H   0  0  0  0  0  0  0  0  0  0  0  0
   14.8202   -0.3369   22.3552 H   0  0  0  0  0  0  0  0  0  0  0  0
   11.4759    0.7595   23.0320 H   0  0  0  0  0  0  0  0  0  0  0  0
   11.4433   -2.0283   21.7293 H   0  0  0  0  0  0  0  0  0  0  0  0
    8.5592    1.2467   24.2015 H   0  0  0  0  0  0  0  0  0  0  0  0
    8.9959    1.3009   25.9272 H   0  0  0  0  0  0  0  0  0  0  0  0
   10.1891    1.7525   24.7108 H   0  0  0  0  0  0  0  0  0  0  0  0
    7.2478   -1.3776   26.0236 H   0  0  0  0  0  0  0  0  0  0  0  0
    8.3184   -1.9828   27.3329 H   0  0  0  0  0  0  0  0  0  0  0  0
    8.2314   -0.2343   27.0006 H   0  0  0  0  0  0  0  0  0  0  0  0
    8.9827   -0.8392   22.0211 H   0  0  0  0  0  0  0  0  0  0  0  0
    9.4005   -2.0163   20.7680 H   0  0  0  0  0  0  0  0  0  0  0  0
   10.5553    0.6726   21.0654 H   0  0  0  0  0  0  0  0  0  0  0  0
   10.9186   -0.3753   19.8552 H   0  0  0  0  0  0  0  0  0  0  0  0
  1  2  1  0  0  0  0
  1  3  2  0  0  0  0
  2  4  2  0  0  0  0
  3  8  1  0  0  0  0
  4  9  1  0  0  0  0
  5  8  2  0  0  0  0
  5 20  1  0  0  0  0
  6 10  1  0  0  0  0
  6 21  2  0  0  0  0
  7 11  1  0  0  0  0
  7 20  2  0  0  0  0
  8  9  1  0  0  0  0
  9 11  2  0  0  0  0
 10 12  2  0  0  0  0
 10 15  1  0  0  0  0
 11 19  1  0  0  0  0
 12 17  1  0  0  0  0
 12 22  1  0  0  0  0
 13 14  1  0  0  0  0
 13 16  1  0  0  0  0
 14 24  1  0  0  0  0
 15 16  1  0  0  0  0
 15 24  1  0  0  0  0
 16 23  1  0  0  0  0
 18 22  1  0  0  0  0
 19 23  1  0  0  0  0
 21 22  1  0  0  0  0
  1 25  1  0  0  0  0
  2 26  1  0  0  0  0
  3 27  1  0  0  0  0
  4 28  1  0  0  0  0
  5 29  1  0  0  0  0
  6 30  1  0  0  0  0
  7 31  1  0  0  0  0
 13 32  1  0  0  0  0
 13 33  1  0  0  0  0
 14 34  1  0  0  0  0
 14 35  1  0  0  0  0
 15 36  1  0  0  0  0
 16 37  1  0  0  0  0
 17 38  1  0  0  0  0
 17 39  1  0  0  0  0
 17 40  1  0  0  0  0
 18 41  1  0  0  0  0
 18 42  1  0  0  0  0
 18 43  1  0  0  0  0
 19 44  1  0  0  0  0
 19 45  1  0  0  0  0
 23 46  1  0  0  0  0
 23 47  1  0  0  0  0
M  CHG  1  23   1
M  END
> <Hybrid2>
-10.044714

> <fragments>
x0678

> <site>
active-noncovalent

$$$$
top_hits_only_mpro-432_1
  -OEChem-03302021283D

 36 39  0     1  0  0  0  0  0999 V2000
    5.7626   -0.8970   25.4776 C   0  0  0  0  0  0  0  0  0  0  0  0
    4.8598    0.9886   19.1355 C   0  0  0  0  0  0  0  0  0  0  0  0
    6.3462   -2.0314   26.0750 C   0  0  0  0  0  0  0  0  0  0  0  0
    6.1395   -0.4740   24.1941 C   0  0  0  0  0  0  0  0  0  0  0  0
    5.6093    0.9785   20.3065 C   0  0  0  0  0  0  0  0  0  0  0  0
    5.4960    0.6394   17.9552 C   0  0  0  0  0  0  0  0  0  0  0  0
    7.4957    0.2914   19.0315 C   0  0  0  0  0  0  0  0  0  0  0  0
    7.2922   -2.7709   25.3680 C   0  0  0  0  0  0  0  0  0  0  0  0
    7.6184   -2.3664   24.0901 C   0  0  0  0  0  0  0  0  0  0  0  0
    7.1072   -1.2054   23.5310 C   0  0  0  0  0  0  0  0  0  0  0  0
    6.9532    0.6244   20.2622 C   0  0  0  0  0  0  0  0  0  0  0  0
    8.0070   -3.9420   25.9204 C   0  0  0  0  0  0  0  0  0  0  0  0
    9.1157   -4.5739   25.0764 C   0  0  0  0  0  0  0  0  0  0  0  0
    9.6847   -3.6520   23.9855 C   0  0  0  0  0  0  0  0  0  0  0  0
    8.8882   -1.9432   22.1715 C   0  0  0  0  0  0  0  0  0  0  0  0
    8.5479   -3.0723   23.1598 C   0  0  2  0  0  0  0  0  0  0  0  0
    6.7993    0.2898   17.8727 N   0  0  0  0  0  0  0  0  0  0  0  0
    7.6981   -1.0024   22.2377 N   0  0  2  0  0  0  0  0  0  0  0  0
    7.6834   -4.4001   27.0118 O   0  0  0  0  0  0  0  0  0  0  0  0
    9.3219    0.7816   21.3290 O   0  0  0  0  0  0  0  0  0  0  0  0
    7.3258    1.5072   22.6842 O   0  0  0  0  0  0  0  0  0  0  0  0
    7.9382    0.6000   21.7301 S   0  0  0  0  0  0  0  0  0  0  0  0
    5.0178   -0.3288   26.0295 H   0  0  0  0  0  0  0  0  0  0  0  0
    3.8107    1.2612   19.1462 H   0  0  0  0  0  0  0  0  0  0  0  0
    6.0517   -2.3105   27.0825 H   0  0  0  0  0  0  0  0  0  0  0  0
    5.6903    0.4117   23.7596 H   0  0  0  0  0  0  0  0  0  0  0  0
    5.1374    1.2477   21.2474 H   0  0  0  0  0  0  0  0  0  0  0  0
    4.9556    0.6317   17.0144 H   0  0  0  0  0  0  0  0  0  0  0  0
    8.5387    0.0065   18.9336 H   0  0  0  0  0  0  0  0  0  0  0  0
    9.9291   -4.8657   25.7499 H   0  0  0  0  0  0  0  0  0  0  0  0
    8.7036   -5.4819   24.6213 H   0  0  0  0  0  0  0  0  0  0  0  0
   10.2628   -2.8489   24.4618 H   0  0  0  0  0  0  0  0  0  0  0  0
   10.3758   -4.2114   23.3454 H   0  0  0  0  0  0  0  0  0  0  0  0
    9.7961   -1.4078   22.4758 H   0  0  0  0  0  0  0  0  0  0  0  0
    9.0168   -2.3239   21.1540 H   0  0  0  0  0  0  0  0  0  0  0  0
    7.9951   -3.8667   22.6416 H   0  0  0  0  0  0  0  0  0  0  0  0
  1  3  1  0  0  0  0
  1  4  2  0  0  0  0
  2  5  2  0  0  0  0
  2  6  1  0  0  0  0
  3  8  2  0  0  0  0
  4 10  1  0  0  0  0
  5 11  1  0  0  0  0
  6 17  2  0  0  0  0
  7 11  2  0  0  0  0
  7 17  1  0  0  0  0
  8  9  1  0  0  0  0
  8 12  1  0  0  0  0
  9 10  2  0  0  0  0
  9 16  1  0  0  0  0
 10 18  1  0  0  0  0
 11 22  1  0  0  0  0
 12 13  1  0  0  0  0
 12 19  2  0  0  0  0
 13 14  1  0  0  0  0
 14 16  1  0  0  0  0
 15 16  1  0  0  0  0
 15 18  1  0  0  0  0
 18 22  1  0  0  0  0
 20 22  2  0  0  0  0
 21 22  2  0  0  0  0
  1 23  1  0  0  0  0
  2 24  1  0  0  0  0
  3 25  1  0  0  0  0
  4 26  1  0  0  0  0
  5 27  1  0  0  0  0
  6 28  1  0  0  0  0
  7 29  1  0  0  0  0
 13 30  1  0  0  0  0
 13 31  1  0  0  0  0
 14 32  1  0  0  0  0
 14 33  1  0  0  0  0
 15 34  1  0  0  0  0
 15 35  1  0  0  0  0
 16 36  1  0  0  0  0
M  END
> <Hybrid2>
-10.027751

> <fragments>
x0107

> <site>
active-noncovalent

$$$$
top_hits_only_mpro-79_1
  -OEChem-03302021283D

 42 43  0     1  0  0  0  0  0999 V2000
    9.9719   -1.2885   23.3930 C   0  0  0  0  0  0  0  0  0  0  0  0
   11.9437   -1.6381   22.4850 C   0  0  0  0  0  0  0  0  0  0  0  0
   11.2281   -0.6913   23.1762 C   0  0  0  0  0  0  0  0  0  0  0  0
   11.1699    5.7453   23.8117 C   0  0  0  0  0  0  0  0  0  0  0  0
    8.9588    6.4863   22.9487 C   0  0  0  0  0  0  0  0  0  0  0  0
   12.7514    1.2038   22.6417 C   0  0  0  0  0  0  0  0  0  0  0  0
   10.4942    1.6305   23.6952 C   0  0  0  0  0  0  0  0  0  0  0  0
   13.1907    2.6077   23.0375 C   0  0  0  0  0  0  0  0  0  0  0  0
   10.9509    3.0310   24.0832 C   0  0  0  0  0  0  0  0  0  0  0  0
   11.6801    0.6572   23.5991 C   0  0  0  0  0  0  0  0  0  0  0  0
   12.9730    5.5173   22.0805 C   0  0  0  0  0  0  0  0  0  0  0  0
    6.8955    6.9524   21.6159 C   0  0  0  0  0  0  0  0  0  0  0  0
   12.3761    4.9430   23.3558 C   0  0  2  0  0  0  0  0  0  0  0  0
    9.8908   -2.5194   22.8808 N   0  0  0  0  0  0  0  0  0  0  0  0
   11.1052   -2.7033   22.3353 N   0  0  0  0  0  0  0  0  0  0  0  0
   10.1858    5.8172   22.8239 N   0  0  0  0  0  0  0  0  0  0  0  0
    8.2057    6.3660   21.7825 N   0  0  0  0  0  0  0  0  0  0  0  0
   11.9883    3.5275   23.0969 N   0  3  0  0  0  0  0  0  0  0  0  0
   11.0944    6.2589   24.9254 O   0  0  0  0  0  0  0  0  0  0  0  0
    8.5976    7.0968   23.9533 O   0  0  0  0  0  0  0  0  0  0  0  0
    9.1104   -0.8804   23.9028 H   0  0  0  0  0  0  0  0  0  0  0  0
   12.9512   -1.6517   22.0939 H   0  0  0  0  0  0  0  0  0  0  0  0
   12.3708    1.2148   21.6115 H   0  0  0  0  0  0  0  0  0  0  0  0
   13.6255    0.5406   22.6404 H   0  0  0  0  0  0  0  0  0  0  0  0
    9.7715    1.2689   24.4373 H   0  0  0  0  0  0  0  0  0  0  0  0
    9.9585    1.6713   22.7370 H   0  0  0  0  0  0  0  0  0  0  0  0
   13.6672    2.6238   24.0240 H   0  0  0  0  0  0  0  0  0  0  0  0
   13.8781    3.0206   22.2916 H   0  0  0  0  0  0  0  0  0  0  0  0
   10.1108    3.7324   24.0504 H   0  0  0  0  0  0  0  0  0  0  0  0
   11.4067    3.0509   25.0794 H   0  0  0  0  0  0  0  0  0  0  0  0
   12.1260    0.5543   24.5972 H   0  0  0  0  0  0  0  0  0  0  0  0
   12.2275    5.5531   21.2789 H   0  0  0  0  0  0  0  0  0  0  0  0
   13.8086    4.9060   21.7213 H   0  0  0  0  0  0  0  0  0  0  0  0
   13.3401    6.5367   22.2403 H   0  0  0  0  0  0  0  0  0  0  0  0
    6.1278    6.2341   21.9396 H   0  0  0  0  0  0  0  0  0  0  0  0
    6.8226    7.8658   22.2245 H   0  0  0  0  0  0  0  0  0  0  0  0
    6.7386    7.2041   20.5567 H   0  0  0  0  0  0  0  0  0  0  0  0
   13.1232    4.9083   24.1557 H   0  0  0  0  0  0  0  0  0  0  0  0
   11.2947   -3.5838   21.8731 H   0  0  0  0  0  0  0  0  0  0  0  0
   10.3641    5.3502   21.9388 H   0  0  0  0  0  0  0  0  0  0  0  0
    8.5944    5.8429   21.0044 H   0  0  0  0  0  0  0  0  0  0  0  0
   11.5469    3.4994   22.1630 H   0  0  0  0  0  0  0  0  0  0  0  0
  1  3  1  0  0  0  0
  1 14  2  0  0  0  0
  2  3  2  0  0  0  0
  2 15  1  0  0  0  0
  3 10  1  0  0  0  0
  4 13  1  0  0  0  0
  4 16  1  0  0  0  0
  4 19  2  0  0  0  0
  5 16  1  0  0  0  0
  5 17  1  0  0  0  0
  5 20  2  0  0  0  0
  6  8  1  0  0  0  0
  6 10  1  0  0  0  0
  7  9  1  0  0  0  0
  7 10  1  0  0  0  0
  8 18  1  0  0  0  0
  9 18  1  0  0  0  0
 11 13  1  0  0  0  0
 12 17  1  0  0  0  0
 13 18  1  0  0  0  0
 14 15  1  0  0  0  0
  1 21  1  0  0  0  0
  2 22  1  0  0  0  0
  6 23  1  0  0  0  0
  6 24  1  0  0  0  0
  7 25  1  0  0  0  0
  7 26  1  0  0  0  0
  8 27  1  0  0  0  0
  8 28  1  0  0  0  0
  9 29  1  0  0  0  0
  9 30  1  0  0  0  0
 10 31  1  0  0  0  0
 11 32  1  0  0  0  0
 11 33  1  0  0  0  0
 11 34  1  0  0  0  0
 12 35  1  0  0  0  0
 12 36  1  0  0  0  0
 12 37  1  0  0  0  0
 13 38  1  0  0  0  0
 15 39  1  0  0  0  0
 16 40  1  0  0  0  0
 17 41  1  0  0  0  0
 18 42  1  0  0  0  0
M  CHG  1  18   1
M  END
> <Hybrid2>
-10.008091

> <fragments>
x0104

> <site>
active-noncovalent

$$$$
top_hits_only_mpro-162_1
  -OEChem-03302021283D

 37 40  0     1  0  0  0  0  0999 V2000
    8.0111    0.4242   21.4112 C   0  0  0  0  0  0  0  0  0  0  0  0
    6.7627    0.9616   21.0478 C   0  0  0  0  0  0  0  0  0  0  0  0
    8.7044   -0.1356   19.0865 C   0  0  0  0  0  0  0  0  0  0  0  0
   13.6393   -1.8841   23.4021 C   0  0  0  0  0  0  0  0  0  0  0  0
    8.9398   -0.1006   20.4733 C   0  0  0  0  0  0  0  0  0  0  0  0
    6.5009    0.9396   19.6652 C   0  0  0  0  0  0  0  0  0  0  0  0
    7.4619    0.3963   18.6944 C   0  0  0  0  0  0  0  0  0  0  0  0
   12.2649   -1.6562   23.2156 C   0  0  0  0  0  0  0  0  0  0  0  0
   14.0387   -0.8381   24.1911 C   0  0  0  0  0  0  0  0  0  0  0  0
   10.2126   -0.6362   20.9769 C   0  0  0  0  0  0  0  0  0  0  0  0
    9.2143   -3.6829   22.6890 C   0  0  0  0  0  0  0  0  0  0  0  0
   10.6057   -3.5601   23.2954 C   0  0  0  0  0  0  0  0  0  0  0  0
    8.8892   -2.2511   22.3009 C   0  0  0  0  0  0  0  0  0  0  0  0
   11.2858   -2.4925   22.4216 C   0  0  1  0  0  0  0  0  0  0  0  0
   15.3262   -0.4361   24.7706 C   0  0  0  0  0  0  0  0  0  0  0  0
    5.4214    1.3672   18.9899 N   0  0  0  0  0  0  0  0  0  0  0  0
    6.9287    0.5151   17.4673 N   0  0  0  0  0  0  0  0  0  0  0  0
   11.8441   -0.5533   23.8412 N   0  0  0  0  0  0  0  0  0  0  0  0
    5.7493    1.0853   17.7264 N   0  0  0  0  0  0  0  0  0  0  0  0
   10.1670   -1.6984   21.8734 N   0  0  0  0  0  0  0  0  0  0  0  0
   11.2415   -0.1060   20.5607 O   0  0  0  0  0  0  0  0  0  0  0  0
   12.9763   -0.0369   24.4600 O   0  0  0  0  0  0  0  0  0  0  0  0
    8.2700    0.4149   22.4702 H   0  0  0  0  0  0  0  0  0  0  0  0
    6.0687    1.3573   21.7785 H   0  0  0  0  0  0  0  0  0  0  0  0
    9.4192   -0.5376   18.3787 H   0  0  0  0  0  0  0  0  0  0  0  0
   14.2500   -2.6887   23.0196 H   0  0  0  0  0  0  0  0  0  0  0  0
    9.1918   -4.3637   21.8357 H   0  0  0  0  0  0  0  0  0  0  0  0
    8.5044   -4.0412   23.4412 H   0  0  0  0  0  0  0  0  0  0  0  0
   10.5700   -3.3071   24.3563 H   0  0  0  0  0  0  0  0  0  0  0  0
   11.1324   -4.5123   23.1806 H   0  0  0  0  0  0  0  0  0  0  0  0
    8.2087   -2.2145   21.4477 H   0  0  0  0  0  0  0  0  0  0  0  0
    8.4690   -1.6667   23.1191 H   0  0  0  0  0  0  0  0  0  0  0  0
   11.8434   -2.9800   21.5861 H   0  0  0  0  0  0  0  0  0  0  0  0
   15.8864    0.2307   24.0902 H   0  0  0  0  0  0  0  0  0  0  0  0
   15.2075    0.0998   25.7313 H   0  0  0  0  0  0  0  0  0  0  0  0
   15.9781   -1.3025   24.9917 H   0  0  0  0  0  0  0  0  0  0  0  0
    5.1091    1.3016   16.9710 H   0  0  0  0  0  0  0  0  0  0  0  0
  1  2  2  0  0  0  0
  1  5  1  0  0  0  0
  2  6  1  0  0  0  0
  3  5  2  0  0  0  0
  3  7  1  0  0  0  0
  4  8  1  0  0  0  0
  4  9  2  0  0  0  0
  5 10  1  0  0  0  0
  6  7  1  0  0  0  0
  6 16  2  0  0  0  0
  7 17  2  0  0  0  0
  8 14  1  0  0  0  0
  8 18  2  0  0  0  0
  9 15  1  0  0  0  0
  9 22  1  0  0  0  0
 10 20  1  0  0  0  0
 10 21  2  0  0  0  0
 11 12  1  0  0  0  0
 11 13  1  0  0  0  0
 12 14  1  0  0  0  0
 13 20  1  0  0  0  0
 14 20  1  0  0  0  0
 16 19  1  0  0  0  0
 17 19  1  0  0  0  0
 18 22  1  0  0  0  0
  1 23  1  0  0  0  0
  2 24  1  0  0  0  0
  3 25  1  0  0  0  0
  4 26  1  0  0  0  0
 11 27  1  0  0  0  0
 11 28  1  0  0  0  0
 12 29  1  0  0  0  0
 12 30  1  0  0  0  0
 13 31  1  0  0  0  0
 13 32  1  0  0  0  0
 14 33  1  0  0  0  0
 15 34  1  0  0  0  0
 15 35  1  0  0  0  0
 15 36  1  0  0  0  0
 19 37  1  0  0  0  0
M  END
> <Hybrid2>
-10.007730

> <fragments>
x0678

> <site>
active-noncovalent

$$$$
top_hits_only_mpro-150_1
  -OEChem-03302021283D

 37 40  0     0  0  0  0  0  0999 V2000
   14.3909   -2.1252   23.1871 C   0  0  0  0  0  0  0  0  0  0  0  0
   14.5911   -1.2177   24.2254 C   0  0  0  0  0  0  0  0  0  0  0  0
    4.8937    1.2747   20.9945 C   0  0  0  0  0  0  0  0  0  0  0  0
   13.1430   -2.2359   22.5630 C   0  0  0  0  0  0  0  0  0  0  0  0
    4.9566    1.4931   19.6189 C   0  0  0  0  0  0  0  0  0  0  0  0
    5.8897    0.5333   21.6334 C   0  0  0  0  0  0  0  0  0  0  0  0
   13.5542   -0.3938   24.6725 C   0  0  0  0  0  0  0  0  0  0  0  0
   10.1640   -0.2913   23.4027 C   0  0  0  0  0  0  0  0  0  0  0  0
   12.0826   -1.4156   22.9968 C   0  0  0  0  0  0  0  0  0  0  0  0
    7.0091    0.2301   19.5207 C   0  0  0  0  0  0  0  0  0  0  0  0
    6.0147    0.9717   18.8761 C   0  0  0  0  0  0  0  0  0  0  0  0
   10.7231   -1.2630   22.6050 C   0  0  0  0  0  0  0  0  0  0  0  0
    6.9589    0.0023   20.9041 C   0  0  0  0  0  0  0  0  0  0  0  0
   12.3122   -0.5153   24.0394 C   0  0  0  0  0  0  0  0  0  0  0  0
    8.1409   -0.3325   18.7525 C   0  0  0  0  0  0  0  0  0  0  0  0
    8.9218   -1.2179   20.8786 C   0  0  0  0  0  0  0  0  0  0  0  0
    6.0089    1.2504   17.4080 C   0  0  0  0  0  0  0  0  0  0  0  0
   10.0140   -2.0217   21.5186 C   0  0  0  0  0  0  0  0  0  0  0  0
    7.9444   -0.7399   21.5817 N   0  0  0  0  0  0  0  0  0  0  0  0
   11.1303    0.1538   24.2645 N   0  0  0  0  0  0  0  0  0  0  0  0
    9.0516   -1.0443   19.5163 N   0  0  0  0  0  0  0  0  0  0  0  0
    8.2672   -0.1847   17.5428 O   0  0  0  0  0  0  0  0  0  0  0  0
   15.2127   -2.7548   22.8566 H   0  0  0  0  0  0  0  0  0  0  0  0
   15.5685   -1.1485   24.6960 H   0  0  0  0  0  0  0  0  0  0  0  0
    4.0682    1.6821   21.5710 H   0  0  0  0  0  0  0  0  0  0  0  0
   13.0032   -2.9476   21.7544 H   0  0  0  0  0  0  0  0  0  0  0  0
    4.1732    2.0725   19.1369 H   0  0  0  0  0  0  0  0  0  0  0  0
    5.8254    0.3725   22.7069 H   0  0  0  0  0  0  0  0  0  0  0  0
   13.7107    0.3116   25.4816 H   0  0  0  0  0  0  0  0  0  0  0  0
    9.1665    0.1248   23.4342 H   0  0  0  0  0  0  0  0  0  0  0  0
    6.5452    2.1825   17.1970 H   0  0  0  0  0  0  0  0  0  0  0  0
    6.4870    0.4369   16.8491 H   0  0  0  0  0  0  0  0  0  0  0  0
    4.9845    1.3416   17.0268 H   0  0  0  0  0  0  0  0  0  0  0  0
   10.7308   -2.3242   20.7494 H   0  0  0  0  0  0  0  0  0  0  0  0
    9.5851   -2.9458   21.9164 H   0  0  0  0  0  0  0  0  0  0  0  0
   10.9962    0.8699   24.9650 H   0  0  0  0  0  0  0  0  0  0  0  0
    9.8540   -1.4587   19.0504 H   0  0  0  0  0  0  0  0  0  0  0  0
  1  2  2  0  0  0  0
  1  4  1  0  0  0  0
  2  7  1  0  0  0  0
  3  5  2  0  0  0  0
  3  6  1  0  0  0  0
  4  9  2  0  0  0  0
  5 11  1  0  0  0  0
  6 13  2  0  0  0  0
  7 14  2  0  0  0  0
  8 12  2  0  0  0  0
  8 20  1  0  0  0  0
  9 12  1  0  0  0  0
  9 14  1  0  0  0  0
 10 11  2  0  0  0  0
 10 13  1  0  0  0  0
 10 15  1  0  0  0  0
 11 17  1  0  0  0  0
 12 18  1  0  0  0  0
 13 19  1  0  0  0  0
 14 20  1  0  0  0  0
 15 21  1  0  0  0  0
 15 22  2  0  0  0  0
 16 18  1  0  0  0  0
 16 19  2  0  0  0  0
 16 21  1  0  0  0  0
  1 23  1  0  0  0  0
  2 24  1  0  0  0  0
  3 25  1  0  0  0  0
  4 26  1  0  0  0  0
  5 27  1  0  0  0  0
  6 28  1  0  0  0  0
  7 29  1  0  0  0  0
  8 30  1  0  0  0  0
 17 31  1  0  0  0  0
 17 32  1  0  0  0  0
 17 33  1  0  0  0  0
 18 34  1  0  0  0  0
 18 35  1  0  0  0  0
 20 36  1  0  0  0  0
 21 37  1  0  0  0  0
M  END
> <Hybrid2>
-9.982383

> <fragments>
x0678

> <site>
active-noncovalent

$$$$
top_hits_only_mpro-388_1
  -OEChem-03302021283D

 38 41  0     0  0  0  0  0  0999 V2000
   14.0353   -1.6650   22.0105 C   0  0  0  0  0  0  0  0  0  0  0  0
   14.0071   -1.8183   23.3966 C   0  0  0  0  0  0  0  0  0  0  0  0
   13.0209   -0.9566   21.3663 C   0  0  0  0  0  0  0  0  0  0  0  0
    6.0649    1.8474   24.9977 C   0  0  0  0  0  0  0  0  0  0  0  0
    7.1851    1.7697   25.8252 C   0  0  0  0  0  0  0  0  0  0  0  0
   12.9645   -1.2632   24.1385 C   0  0  0  0  0  0  0  0  0  0  0  0
   11.9783   -0.4015   22.1083 C   0  0  0  0  0  0  0  0  0  0  0  0
    6.1300    1.3693   23.6889 C   0  0  0  0  0  0  0  0  0  0  0  0
    8.3705    1.2140   25.3438 C   0  0  0  0  0  0  0  0  0  0  0  0
    7.9439   -0.8577   20.2606 C   0  0  0  0  0  0  0  0  0  0  0  0
    6.9999    0.0490   19.7602 C   0  0  0  0  0  0  0  0  0  0  0  0
   11.9501   -0.5548   23.4944 C   0  0  0  0  0  0  0  0  0  0  0  0
    7.3154    0.8136   23.2076 C   0  0  0  0  0  0  0  0  0  0  0  0
    8.4356    0.7359   24.0350 C   0  0  0  0  0  0  0  0  0  0  0  0
    6.6333    0.8165   20.8416 C   0  0  0  0  0  0  0  0  0  0  0  0
    5.2093    2.0683   19.7312 C   0  0  0  0  0  0  0  0  0  0  0  0
    6.3996    0.3113   18.4761 C   0  0  0  0  0  0  0  0  0  0  0  0
   10.8491    0.0313   24.2780 C   0  0  0  0  0  0  0  0  0  0  0  0
    8.1658   -0.6838   21.5697 N   0  0  0  0  0  0  0  0  0  0  0  0
    5.7463    1.8385   20.8938 N   0  0  0  0  0  0  0  0  0  0  0  0
    7.3536    0.3432   21.8955 N   0  0  0  0  0  0  0  0  0  0  0  0
    5.4861    1.3706   18.5517 N   0  0  0  0  0  0  0  0  0  0  0  0
    9.6370    0.1839   23.5790 N   0  0  0  0  0  0  0  0  0  0  0  0
    6.6649   -0.3199   17.4603 O   0  0  0  0  0  0  0  0  0  0  0  0
   11.0192    0.3824   25.4436 O   0  0  0  0  0  0  0  0  0  0  0  0
   14.8470   -2.0972   21.4328 H   0  0  0  0  0  0  0  0  0  0  0  0
   14.7968   -2.3701   23.8979 H   0  0  0  0  0  0  0  0  0  0  0  0
   13.0430   -0.8370   20.2871 H   0  0  0  0  0  0  0  0  0  0  0  0
    5.1420    2.2802   25.3727 H   0  0  0  0  0  0  0  0  0  0  0  0
    7.1342    2.1420   26.8442 H   0  0  0  0  0  0  0  0  0  0  0  0
   12.9524   -1.3887   25.2182 H   0  0  0  0  0  0  0  0  0  0  0  0
   11.1932    0.1484   21.5957 H   0  0  0  0  0  0  0  0  0  0  0  0
    5.2484    1.4367   23.0559 H   0  0  0  0  0  0  0  0  0  0  0  0
    9.2365    1.1592   25.9987 H   0  0  0  0  0  0  0  0  0  0  0  0
    8.4816   -1.6367   19.7395 H   0  0  0  0  0  0  0  0  0  0  0  0
    4.4641    2.8663   19.5890 H   0  0  0  0  0  0  0  0  0  0  0  0
    4.9988    1.6467   17.7041 H   0  0  0  0  0  0  0  0  0  0  0  0
    9.6344   -0.1531   22.6109 H   0  0  0  0  0  0  0  0  0  0  0  0
  1  2  1  0  0  0  0
  1  3  2  0  0  0  0
  2  6  2  0  0  0  0
  3  7  1  0  0  0  0
  4  5  1  0  0  0  0
  4  8  2  0  0  0  0
  5  9  2  0  0  0  0
  6 12  1  0  0  0  0
  7 12  2  0  0  0  0
  8 13  1  0  0  0  0
  9 14  1  0  0  0  0
 10 11  1  0  0  0  0
 10 19  2  0  0  0  0
 11 15  2  0  0  0  0
 11 17  1  0  0  0  0
 12 18  1  0  0  0  0
 13 14  2  0  0  0  0
 13 21  1  0  0  0  0
 14 23  1  0  0  0  0
 15 20  1  0  0  0  0
 15 21  1  0  0  0  0
 16 20  2  0  0  0  0
 16 22  1  0  0  0  0
 17 22  1  0  0  0  0
 17 24  2  0  0  0  0
 18 23  1  0  0  0  0
 18 25  2  0  0  0  0
 19 21  1  0  0  0  0
  1 26  1  0  0  0  0
  2 27  1  0  0  0  0
  3 28  1  0  0  0  0
  4 29  1  0  0  0  0
  5 30  1  0  0  0  0
  6 31  1  0  0  0  0
  7 32  1  0  0  0  0
  8 33  1  0  0  0  0
  9 34  1  0  0  0  0
 10 35  1  0  0  0  0
 16 36  1  0  0  0  0
 22 37  1  0  0  0  0
 23 38  1  0  0  0  0
M  END
> <Hybrid2>
-9.963902

> <fragments>
x0678

> <site>
active-noncovalent

$$$$
top_hits_only_mpro-490_1
  -OEChem-03302021283D

 34 36  0     1  0  0  0  0  0999 V2000
    7.4545   -3.0495   23.0165 C   0  0  0  0  0  0  0  0  0  0  0  0
    9.6940   -2.1439   23.0509 C   0  0  0  0  0  0  0  0  0  0  0  0
    7.8093   -3.9648   24.0074 C   0  0  0  0  0  0  0  0  0  0  0  0
   10.0489   -3.0591   24.0419 C   0  0  0  0  0  0  0  0  0  0  0  0
    6.8154   -1.1079   20.9602 C   0  0  0  0  0  0  0  0  0  0  0  0
    8.8584   -0.2820   20.9909 C   0  0  0  0  0  0  0  0  0  0  0  0
    8.3969   -2.1391   22.5382 C   0  0  0  0  0  0  0  0  0  0  0  0
    9.1065   -3.9696   24.5202 C   0  0  0  0  0  0  0  0  0  0  0  0
    6.9560   -0.0800   20.0578 C   0  0  0  0  0  0  0  0  0  0  0  0
    5.9104    0.4398   19.1625 C   0  0  0  0  0  0  0  0  0  0  0  0
    2.5463    1.7364   19.9322 C   0  0  0  0  0  0  0  0  0  0  0  0
    3.6803    1.5014   18.9437 C   0  0  0  0  0  0  0  0  0  0  0  0
    4.4898    1.1112   21.1778 C   0  0  0  0  0  0  0  0  0  0  0  0
    3.2822    2.0392   21.2332 C   0  0  1  0  0  0  0  0  0  0  0  0
    8.2301    0.4296   20.0816 N   0  0  0  0  0  0  0  0  0  0  0  0
    8.0424   -1.2259   21.5500 N   0  0  0  0  0  0  0  0  0  0  0  0
    4.7628    0.9533   19.7471 N   0  0  0  0  0  0  0  0  0  0  0  0
    6.1282    0.3939   17.9534 O   0  0  0  0  0  0  0  0  0  0  0  0
    3.7320    3.3895   21.2413 O   0  0  0  0  0  0  0  0  0  0  0  0
    9.5868   -5.2090   25.8638 Br  0  0  0  0  0  0  0  0  0  0  0  0
    6.4399   -3.0571   22.6256 H   0  0  0  0  0  0  0  0  0  0  0  0
   10.4382   -1.4397   22.6869 H   0  0  0  0  0  0  0  0  0  0  0  0
    7.0633   -4.6675   24.3698 H   0  0  0  0  0  0  0  0  0  0  0  0
   11.0640   -3.0496   24.4310 H   0  0  0  0  0  0  0  0  0  0  0  0
    5.9781   -1.7416   21.2215 H   0  0  0  0  0  0  0  0  0  0  0  0
    9.8935   -0.1575   21.2805 H   0  0  0  0  0  0  0  0  0  0  0  0
    1.8977    2.5555   19.6078 H   0  0  0  0  0  0  0  0  0  0  0  0
    1.9498    0.8229   20.0377 H   0  0  0  0  0  0  0  0  0  0  0  0
    3.4093    0.8158   18.1352 H   0  0  0  0  0  0  0  0  0  0  0  0
    4.0343    2.4404   18.5039 H   0  0  0  0  0  0  0  0  0  0  0  0
    5.3713    1.5104   21.6882 H   0  0  0  0  0  0  0  0  0  0  0  0
    4.2497    0.1182   21.5729 H   0  0  0  0  0  0  0  0  0  0  0  0
    2.6609    1.8721   22.1146 H   0  0  0  0  0  0  0  0  0  0  0  0
    4.1901    3.5262   22.0860 H   0  0  0  0  0  0  0  0  0  0  0  0
  1  3  2  0  0  0  0
  1  7  1  0  0  0  0
  2  4  1  0  0  0  0
  2  7  2  0  0  0  0
  3  8  1  0  0  0  0
  4  8  2  0  0  0  0
  5  9  2  0  0  0  0
  5 16  1  0  0  0  0
  6 15  2  0  0  0  0
  6 16  1  0  0  0  0
  7 16  1  0  0  0  0
  8 20  1  0  0  0  0
  9 10  1  0  0  0  0
  9 15  1  0  0  0  0
 10 17  1  0  0  0  0
 10 18  2  0  0  0  0
 11 12  1  0  0  0  0
 11 14  1  0  0  0  0
 12 17  1  0  0  0  0
 13 14  1  0  0  0  0
 13 17  1  0  0  0  0
 14 19  1  0  0  0  0
  1 21  1  0  0  0  0
  2 22  1  0  0  0  0
  3 23  1  0  0  0  0
  4 24  1  0  0  0  0
  5 25  1  0  0  0  0
  6 26  1  0  0  0  0
 11 27  1  0  0  0  0
 11 28  1  0  0  0  0
 12 29  1  0  0  0  0
 12 30  1  0  0  0  0
 13 31  1  0  0  0  0
 13 32  1  0  0  0  0
 14 33  1  0  0  0  0
 19 34  1  0  0  0  0
M  END
> <Hybrid2>
-9.935746

> <fragments>
x0107

> <site>
active-noncovalent

$$$$
top_hits_only_mpro-200_1
  -OEChem-03302021283D

 32 34  0     0  0  0  0  0  0999 V2000
    5.3483    0.6171   19.6435 C   0  0  0  0  0  0  0  0  0  0  0  0
    6.3594    0.4535   20.5838 C   0  0  0  0  0  0  0  0  0  0  0  0
    7.1997   -4.9602   24.6403 C   0  0  0  0  0  0  0  0  0  0  0  0
    8.3788   -4.9020   25.3786 C   0  0  0  0  0  0  0  0  0  0  0  0
    5.6571    0.3872   18.3125 C   0  0  0  0  0  0  0  0  0  0  0  0
    7.8370   -0.1353   18.8157 C   0  0  0  0  0  0  0  0  0  0  0  0
    7.6304    0.0703   20.1702 C   0  0  0  0  0  0  0  0  0  0  0  0
    8.0353   -3.2301   23.1541 C   0  0  0  0  0  0  0  0  0  0  0  0
    9.2329   -3.1864   23.8902 C   0  0  0  0  0  0  0  0  0  0  0  0
    7.0276   -4.1286   23.5339 C   0  0  0  0  0  0  0  0  0  0  0  0
    9.3903   -4.0163   25.0087 C   0  0  0  0  0  0  0  0  0  0  0  0
    8.7198   -0.1102   21.1423 C   0  0  0  0  0  0  0  0  0  0  0  0
   10.3225   -2.2156   23.5169 C   0  0  0  0  0  0  0  0  0  0  0  0
    7.8135   -2.3447   21.9508 C   0  0  0  0  0  0  0  0  0  0  0  0
   10.2418   -1.8343   22.0439 C   0  0  0  0  0  0  0  0  0  0  0  0
    6.8798    0.0139   17.8728 N   0  0  0  0  0  0  0  0  0  0  0  0
    8.8947   -1.3764   21.7109 N   0  0  0  0  0  0  0  0  0  0  0  0
    9.4087    0.8810   21.3801 O   0  0  0  0  0  0  0  0  0  0  0  0
    5.8873   -4.1985   22.8320 F   0  0  0  0  0  0  0  0  0  0  0  0
   10.9685   -4.0431   26.0733 Br  0  0  0  0  0  0  0  0  0  0  0  0
    4.3499    0.9147   19.9427 H   0  0  0  0  0  0  0  0  0  0  0  0
    6.1466    0.6277   21.6351 H   0  0  0  0  0  0  0  0  0  0  0  0
    6.4151   -5.6559   24.9228 H   0  0  0  0  0  0  0  0  0  0  0  0
    8.4916   -5.5605   26.2363 H   0  0  0  0  0  0  0  0  0  0  0  0
    4.9037    0.5016   17.5402 H   0  0  0  0  0  0  0  0  0  0  0  0
    8.8076   -0.4362   18.4327 H   0  0  0  0  0  0  0  0  0  0  0  0
   10.2387   -1.2845   24.0865 H   0  0  0  0  0  0  0  0  0  0  0  0
   11.2971   -2.6679   23.7365 H   0  0  0  0  0  0  0  0  0  0  0  0
    7.6826   -2.9755   21.0655 H   0  0  0  0  0  0  0  0  0  0  0  0
    6.8972   -1.7604   22.0981 H   0  0  0  0  0  0  0  0  0  0  0  0
   10.9318   -1.0133   21.8108 H   0  0  0  0  0  0  0  0  0  0  0  0
   10.5276   -2.6885   21.4211 H   0  0  0  0  0  0  0  0  0  0  0  0
  1  2  2  0  0  0  0
  1  5  1  0  0  0  0
  2  7  1  0  0  0  0
  3  4  2  0  0  0  0
  3 10  1  0  0  0  0
  4 11  1  0  0  0  0
  5 16  2  0  0  0  0
  6  7  2  0  0  0  0
  6 16  1  0  0  0  0
  7 12  1  0  0  0  0
  8  9  1  0  0  0  0
  8 10  2  0  0  0  0
  8 14  1  0  0  0  0
  9 11  2  0  0  0  0
  9 13  1  0  0  0  0
 10 19  1  0  0  0  0
 11 20  1  0  0  0  0
 12 17  1  0  0  0  0
 12 18  2  0  0  0  0
 13 15  1  0  0  0  0
 14 17  1  0  0  0  0
 15 17  1  0  0  0  0
  1 21  1  0  0  0  0
  2 22  1  0  0  0  0
  3 23  1  0  0  0  0
  4 24  1  0  0  0  0
  5 25  1  0  0  0  0
  6 26  1  0  0  0  0
 13 27  1  0  0  0  0
 13 28  1  0  0  0  0
 14 29  1  0  0  0  0
 14 30  1  0  0  0  0
 15 31  1  0  0  0  0
 15 32  1  0  0  0  0
M  END
> <Hybrid2>
-9.927475

> <fragments>
x0107

> <site>
active-noncovalent

$$$$
top_hits_only_mpro-151_1
  -OEChem-03302021283D

 43 46  0     0  0  0  0  0  0999 V2000
   10.9510    2.8798   23.9987 C   0  0  0  0  0  0  0  0  0  0  0  0
   12.2715    2.4442   24.1091 C   0  0  0  0  0  0  0  0  0  0  0  0
    5.2363   -5.1566   27.0755 C   0  0  0  0  0  0  0  0  0  0  0  0
    5.9984   -4.3809   26.2038 C   0  0  0  0  0  0  0  0  0  0  0  0
   10.0235    2.1206   23.2852 C   0  0  0  0  0  0  0  0  0  0  0  0
   12.6645    1.2495   23.5060 C   0  0  0  0  0  0  0  0  0  0  0  0
    5.8344   -6.2434   27.6990 C   0  0  0  0  0  0  0  0  0  0  0  0
    9.5105   -5.0650   25.4708 C   0  0  0  0  0  0  0  0  0  0  0  0
    7.3396   -4.7456   26.0036 C   0  0  0  0  0  0  0  0  0  0  0  0
    8.4244   -4.2506   25.2325 C   0  0  0  0  0  0  0  0  0  0  0  0
   10.4165    0.9259   22.6821 C   0  0  0  0  0  0  0  0  0  0  0  0
   11.7370    0.4903   22.7925 C   0  0  0  0  0  0  0  0  0  0  0  0
    7.8103   -5.8591   26.6933 C   0  0  0  0  0  0  0  0  0  0  0  0
    8.1309   -3.1944   23.0178 C   0  0  0  0  0  0  0  0  0  0  0  0
    8.4379   -3.0793   24.3243 C   0  0  0  0  0  0  0  0  0  0  0  0
    9.4181    0.1453   21.9351 C   0  0  0  0  0  0  0  0  0  0  0  0
    8.1553   -2.0581   22.0344 C   0  0  0  0  0  0  0  0  0  0  0  0
    8.8250   -1.7386   24.9006 C   0  0  0  0  0  0  0  0  0  0  0  0
    8.3317   -0.5869   24.0284 C   0  0  0  0  0  0  0  0  0  0  0  0
   12.1851   -0.7848   22.1562 C   0  0  0  0  0  0  0  0  0  0  0  0
    7.1188   -6.6406   27.5441 N   0  0  0  0  0  0  0  0  0  0  0  0
    9.1267   -6.0371   26.3578 N   0  0  0  0  0  0  0  0  0  0  0  0
    8.6800   -0.8203   22.6285 N   0  0  0  0  0  0  0  0  0  0  0  0
    9.3110    0.4017   20.7366 O   0  0  0  0  0  0  0  0  0  0  0  0
   10.6443    3.8101   24.4683 H   0  0  0  0  0  0  0  0  0  0  0  0
   12.9933    3.0360   24.6646 H   0  0  0  0  0  0  0  0  0  0  0  0
    4.1954   -4.9155   27.2632 H   0  0  0  0  0  0  0  0  0  0  0  0
    5.5596   -3.5255   25.7000 H   0  0  0  0  0  0  0  0  0  0  0  0
    8.9977    2.4714   23.2055 H   0  0  0  0  0  0  0  0  0  0  0  0
   13.6957    0.9189   23.5985 H   0  0  0  0  0  0  0  0  0  0  0  0
    5.2550   -6.8593   28.3818 H   0  0  0  0  0  0  0  0  0  0  0  0
   10.5235   -5.0444   25.0915 H   0  0  0  0  0  0  0  0  0  0  0  0
    7.8463   -4.1655   22.6183 H   0  0  0  0  0  0  0  0  0  0  0  0
    8.7600   -2.3482   21.1703 H   0  0  0  0  0  0  0  0  0  0  0  0
    7.1386   -1.8497   21.6834 H   0  0  0  0  0  0  0  0  0  0  0  0
    8.3976   -1.6147   25.9037 H   0  0  0  0  0  0  0  0  0  0  0  0
    9.9165   -1.6902   25.0034 H   0  0  0  0  0  0  0  0  0  0  0  0
    7.2397   -0.4944   24.0834 H   0  0  0  0  0  0  0  0  0  0  0  0
    8.7562    0.3577   24.3843 H   0  0  0  0  0  0  0  0  0  0  0  0
   12.0585   -1.6215   22.8527 H   0  0  0  0  0  0  0  0  0  0  0  0
   11.6103   -0.9968   21.2464 H   0  0  0  0  0  0  0  0  0  0  0  0
   13.2405   -0.7310   21.8620 H   0  0  0  0  0  0  0  0  0  0  0  0
    9.7232   -6.7726   26.7105 H   0  0  0  0  0  0  0  0  0  0  0  0
  1  2  1  0  0  0  0
  1  5  2  0  0  0  0
  2  6  2  0  0  0  0
  3  4  1  0  0  0  0
  3  7  2  0  0  0  0
  4  9  2  0  0  0  0
  5 11  1  0  0  0  0
  6 12  1  0  0  0  0
  7 21  1  0  0  0  0
  8 10  2  0  0  0  0
  8 22  1  0  0  0  0
  9 10  1  0  0  0  0
  9 13  1  0  0  0  0
 10 15  1  0  0  0  0
 11 12  2  0  0  0  0
 11 16  1  0  0  0  0
 12 20  1  0  0  0  0
 13 21  2  0  0  0  0
 13 22  1  0  0  0  0
 14 15  2  0  0  0  0
 14 17  1  0  0  0  0
 15 18  1  0  0  0  0
 16 23  1  0  0  0  0
 16 24  2  0  0  0  0
 17 23  1  0  0  0  0
 18 19  1  0  0  0  0
 19 23  1  0  0  0  0
  1 25  1  0  0  0  0
  2 26  1  0  0  0  0
  3 27  1  0  0  0  0
  4 28  1  0  0  0  0
  5 29  1  0  0  0  0
  6 30  1  0  0  0  0
  7 31  1  0  0  0  0
  8 32  1  0  0  0  0
 14 33  1  0  0  0  0
 17 34  1  0  0  0  0
 17 35  1  0  0  0  0
 18 36  1  0  0  0  0
 18 37  1  0  0  0  0
 19 38  1  0  0  0  0
 19 39  1  0  0  0  0
 20 40  1  0  0  0  0
 20 41  1  0  0  0  0
 20 42  1  0  0  0  0
 22 43  1  0  0  0  0
M  END
> <Hybrid2>
-9.899481

> <fragments>
x0874

> <site>
active-noncovalent

$$$$
top_hits_only_mpro-149_1
  -OEChem-03302021283D

 40 42  0     0  0  0  0  0  0999 V2000
    8.3877   -2.0763   24.6550 C   0  0  0  0  0  0  0  0  0  0  0  0
    8.6268   -3.1755   23.8330 C   0  0  0  0  0  0  0  0  0  0  0  0
   13.2868    5.4822   23.3749 C   0  0  0  0  0  0  0  0  0  0  0  0
    9.3474   -1.0720   24.7731 C   0  0  0  0  0  0  0  0  0  0  0  0
   12.0371    5.8798   23.8499 C   0  0  0  0  0  0  0  0  0  0  0  0
    9.8271   -3.2721   23.1273 C   0  0  0  0  0  0  0  0  0  0  0  0
   13.4422    4.2271   22.7863 C   0  0  0  0  0  0  0  0  0  0  0  0
   11.0981    3.7673   23.1480 C   0  0  0  0  0  0  0  0  0  0  0  0
   10.5491   -1.1739   24.0631 C   0  0  0  0  0  0  0  0  0  0  0  0
   10.9427    5.0223   23.7365 C   0  0  0  0  0  0  0  0  0  0  0  0
   10.7997   -2.2716   23.2360 C   0  0  0  0  0  0  0  0  0  0  0  0
   12.3479    3.3697   22.6729 C   0  0  0  0  0  0  0  0  0  0  0  0
   11.5797   -0.1198   24.1749 C   0  0  0  0  0  0  0  0  0  0  0  0
   12.8855   -1.4703   22.6210 C   0  0  0  0  0  0  0  0  0  0  0  0
    9.6067    5.4474   24.2450 C   0  0  0  0  0  0  0  0  0  0  0  0
   14.1641   -1.6287   21.8331 C   0  0  0  0  0  0  0  0  0  0  0  0
   13.7971    0.6730   23.4848 C   0  0  0  0  0  0  0  0  0  0  0  0
   13.7750    1.5205   22.2260 C   0  0  0  0  0  0  0  0  0  0  0  0
   11.9919   -2.4033   22.5122 N   0  0  0  0  0  0  0  0  0  0  0  0
   12.7402   -0.3351   23.4160 N   0  0  0  0  0  0  0  0  0  0  0  0
   11.3688    0.8496   24.8984 O   0  0  0  0  0  0  0  0  0  0  0  0
   12.5005    2.1370   22.0941 O   0  0  0  0  0  0  0  0  0  0  0  0
    7.4535   -2.0019   25.2038 H   0  0  0  0  0  0  0  0  0  0  0  0
    7.8790   -3.9578   23.7409 H   0  0  0  0  0  0  0  0  0  0  0  0
   14.1386    6.1500   23.4628 H   0  0  0  0  0  0  0  0  0  0  0  0
    9.1420   -0.2231   25.4191 H   0  0  0  0  0  0  0  0  0  0  0  0
   11.9258    6.8593   24.3074 H   0  0  0  0  0  0  0  0  0  0  0  0
    9.9995   -4.1360   22.4896 H   0  0  0  0  0  0  0  0  0  0  0  0
   14.4182    3.9234   22.4182 H   0  0  0  0  0  0  0  0  0  0  0  0
   10.2468    3.0965   23.0585 H   0  0  0  0  0  0  0  0  0  0  0  0
    9.0432    5.9603   23.4559 H   0  0  0  0  0  0  0  0  0  0  0  0
    9.0188    4.5865   24.5888 H   0  0  0  0  0  0  0  0  0  0  0  0
    9.7042    6.1276   25.1012 H   0  0  0  0  0  0  0  0  0  0  0  0
   14.0382   -1.1671   20.8601 H   0  0  0  0  0  0  0  0  0  0  0  0
   14.3801   -2.6854   21.7191 H   0  0  0  0  0  0  0  0  0  0  0  0
   14.9727   -1.1472   22.3723 H   0  0  0  0  0  0  0  0  0  0  0  0
   14.7559    0.1574   23.5993 H   0  0  0  0  0  0  0  0  0  0  0  0
   13.6178    1.2957   24.3665 H   0  0  0  0  0  0  0  0  0  0  0  0
   13.9378    0.8897   21.3466 H   0  0  0  0  0  0  0  0  0  0  0  0
   14.5425    2.3009   22.2525 H   0  0  0  0  0  0  0  0  0  0  0  0
  1  2  2  0  0  0  0
  1  4  1  0  0  0  0
  2  6  1  0  0  0  0
  3  5  2  0  0  0  0
  3  7  1  0  0  0  0
  4  9  2  0  0  0  0
  5 10  1  0  0  0  0
  6 11  2  0  0  0  0
  7 12  2  0  0  0  0
  8 10  2  0  0  0  0
  8 12  1  0  0  0  0
  9 11  1  0  0  0  0
  9 13  1  0  0  0  0
 10 15  1  0  0  0  0
 11 19  1  0  0  0  0
 12 22  1  0  0  0  0
 13 20  1  0  0  0  0
 13 21  2  0  0  0  0
 14 16  1  0  0  0  0
 14 19  2  0  0  0  0
 14 20  1  0  0  0  0
 17 18  1  0  0  0  0
 17 20  1  0  0  0  0
 18 22  1  0  0  0  0
  1 23  1  0  0  0  0
  2 24  1  0  0  0  0
  3 25  1  0  0  0  0
  4 26  1  0  0  0  0
  5 27  1  0  0  0  0
  6 28  1  0  0  0  0
  7 29  1  0  0  0  0
  8 30  1  0  0  0  0
 15 31  1  0  0  0  0
 15 32  1  0  0  0  0
 15 33  1  0  0  0  0
 16 34  1  0  0  0  0
 16 35  1  0  0  0  0
 16 36  1  0  0  0  0
 17 37  1  0  0  0  0
 17 38  1  0  0  0  0
 18 39  1  0  0  0  0
 18 40  1  0  0  0  0
M  END
> <Hybrid2>
-9.860929

> <fragments>
x0195

> <site>
active-noncovalent

$$$$
-11.929303169250488_1
  -OEChem-03302021283D

 41 43  0     1  0  0  0  0  0999 V2000
   11.9816   -0.8248   24.4054 C   0  0  0  0  0  0  0  0  0  0  0  0
   12.3776   -1.4614   22.1087 C   0  0  0  0  0  0  0  0  0  0  0  0
   13.3573   -0.7888   24.6327 C   0  0  0  0  0  0  0  0  0  0  0  0
   13.7534   -1.4254   22.3359 C   0  0  0  0  0  0  0  0  0  0  0  0
    8.8029   -4.5275   23.6697 C   0  0  0  0  0  0  0  0  0  0  0  0
    8.4772   -0.3843   18.7762 C   0  0  0  0  0  0  0  0  0  0  0  0
    8.0069   -3.8024   24.5248 C   0  0  0  0  0  0  0  0  0  0  0  0
    6.7126    0.6646   19.5642 C   0  0  0  0  0  0  0  0  0  0  0  0
   11.4917   -1.1612   23.1434 C   0  0  0  0  0  0  0  0  0  0  0  0
    7.8125   -0.0502   19.9713 C   0  0  0  0  0  0  0  0  0  0  0  0
   14.2432   -1.0891   23.5979 C   0  0  0  0  0  0  0  0  0  0  0  0
    9.3605   -2.4940   23.3791 C   0  0  0  0  0  0  0  0  0  0  0  0
    7.8160   -1.3564   25.0060 C   0  0  0  0  0  0  0  0  0  0  0  0
    5.8421    1.3602   17.3198 C   0  0  0  0  0  0  0  0  0  0  0  0
    8.2118   -0.3979   21.3751 C   0  0  0  0  0  0  0  0  0  0  0  0
   10.0210   -1.1991   22.8995 C   0  0  2  0  0  0  0  0  0  0  0  0
    9.6435   -3.7073   22.9597 N   0  0  0  0  0  0  0  0  0  0  0  0
    7.8517    0.0799   17.6912 N   0  0  0  0  0  0  0  0  0  0  0  0
    8.3759   -2.5015   24.3276 N   0  0  0  0  0  0  0  0  0  0  0  0
    6.7824    0.7130   18.2029 N   0  0  0  0  0  0  0  0  0  0  0  0
    9.6075   -0.8648   21.4802 N   0  3  0  0  0  0  0  0  0  0  0  0
   15.5644   -1.0519   23.8153 F   0  0  0  0  0  0  0  0  0  0  0  0
   11.2991   -0.5901   25.2180 H   0  0  0  0  0  0  0  0  0  0  0  0
   12.0051   -1.7243   21.1220 H   0  0  0  0  0  0  0  0  0  0  0  0
   13.7388   -0.5263   25.6148 H   0  0  0  0  0  0  0  0  0  0  0  0
   14.4434   -1.6595   21.5307 H   0  0  0  0  0  0  0  0  0  0  0  0
    8.8135   -5.5985   23.5294 H   0  0  0  0  0  0  0  0  0  0  0  0
    9.3909   -0.9474   18.6481 H   0  0  0  0  0  0  0  0  0  0  0  0
    7.2392   -4.0897   25.2296 H   0  0  0  0  0  0  0  0  0  0  0  0
    5.9055    1.1302   20.1134 H   0  0  0  0  0  0  0  0  0  0  0  0
    8.4037   -1.1796   25.9106 H   0  0  0  0  0  0  0  0  0  0  0  0
    7.8587   -0.4854   24.3460 H   0  0  0  0  0  0  0  0  0  0  0  0
    6.7725   -1.5618   25.2606 H   0  0  0  0  0  0  0  0  0  0  0  0
    6.1724    2.3918   17.1729 H   0  0  0  0  0  0  0  0  0  0  0  0
    5.8140    0.8281   16.3648 H   0  0  0  0  0  0  0  0  0  0  0  0
    4.8467    1.3370   17.7721 H   0  0  0  0  0  0  0  0  0  0  0  0
    8.1190    0.4681   22.0392 H   0  0  0  0  0  0  0  0  0  0  0  0
    7.5814   -1.1974   21.7791 H   0  0  0  0  0  0  0  0  0  0  0  0
    9.5505   -0.3642   23.4538 H   0  0  0  0  0  0  0  0  0  0  0  0
    9.7486   -1.7010   20.9129 H   0  0  0  0  0  0  0  0  0  0  0  0
   10.2498   -0.1531   21.1313 H   0  0  0  0  0  0  0  0  0  0  0  0
  1  3  2  0  0  0  0
  1  9  1  0  0  0  0
  2  4  1  0  0  0  0
  2  9  2  0  0  0  0
  3 11  1  0  0  0  0
  4 11  2  0  0  0  0
  5  7  2  0  0  0  0
  5 17  1  0  0  0  0
  6 10  1  0  0  0  0
  6 18  2  0  0  0  0
  7 19  1  0  0  0  0
  8 10  2  0  0  0  0
  8 20  1  0  0  0  0
  9 16  1  0  0  0  0
 10 15  1  0  0  0  0
 11 22  1  0  0  0  0
 12 16  1  0  0  0  0
 12 17  2  0  0  0  0
 12 19  1  0  0  0  0
 13 19  1  0  0  0  0
 14 20  1  0  0  0  0
 15 21  1  0  0  0  0
 16 21  1  0  0  0  0
 18 20  1  0  0  0  0
  1 23  1  0  0  0  0
  2 24  1  0  0  0  0
  3 25  1  0  0  0  0
  4 26  1  0  0  0  0
  5 27  1  0  0  0  0
  6 28  1  0  0  0  0
  7 29  1  0  0  0  0
  8 30  1  0  0  0  0
 13 31  1  0  0  0  0
 13 32  1  0  0  0  0
 13 33  1  0  0  0  0
 14 34  1  0  0  0  0
 14 35  1  0  0  0  0
 14 36  1  0  0  0  0
 15 37  1  0  0  0  0
 15 38  1  0  0  0  0
 16 39  1  0  0  0  0
 21 40  1  0  0  0  0
 21 41  1  0  0  0  0
M  CHG  1  21   1
M  END
> <Hybrid2>
-9.818533

> <fragments>
x0678

> <site>
active-noncovalent

$$$$
top_hits_only_mpro-54_1
  -OEChem-03302021283D

 47 50  0     0  0  0  0  0  0999 V2000
   14.3190   -1.9416   23.7271 C   0  0  0  0  0  0  0  0  0  0  0  0
   12.3865    4.3949   23.1839 C   0  0  0  0  0  0  0  0  0  0  0  0
   11.0296    4.1177   23.3112 C   0  0  0  0  0  0  0  0  0  0  0  0
    6.4527    1.0543   20.8124 C   0  0  0  0  0  0  0  0  0  0  0  0
    8.3349    0.1422   19.6031 C   0  0  0  0  0  0  0  0  0  0  0  0
   13.3211    3.3585   23.1649 C   0  0  0  0  0  0  0  0  0  0  0  0
   10.5636    2.8004   23.4051 C   0  0  0  0  0  0  0  0  0  0  0  0
    7.1174    0.8279   22.0176 C   0  0  0  0  0  0  0  0  0  0  0  0
    8.9996   -0.0842   20.8083 C   0  0  0  0  0  0  0  0  0  0  0  0
    7.0615    0.7114   19.6051 C   0  0  0  0  0  0  0  0  0  0  0  0
   12.8681    2.0304   23.2648 C   0  0  0  0  0  0  0  0  0  0  0  0
   11.5026    1.7563   23.3550 C   0  0  0  0  0  0  0  0  0  0  0  0
    8.3908    0.2587   22.0156 C   0  0  0  0  0  0  0  0  0  0  0  0
   12.7342   -0.0963   23.4491 C   0  0  0  0  0  0  0  0  0  0  0  0
   12.9678   -1.4915   23.6271 C   0  0  0  0  0  0  0  0  0  0  0  0
   11.9205   -2.3462   23.7118 C   0  0  0  0  0  0  0  0  0  0  0  0
   10.5276   -1.8448   23.5812 C   0  0  0  0  0  0  0  0  0  0  0  0
   10.2993   -0.5130   23.4138 C   0  0  0  0  0  0  0  0  0  0  0  0
    6.3685    0.9474   18.3485 C   0  0  0  0  0  0  0  0  0  0  0  0
   12.1044   -3.8344   23.9254 C   0  0  0  0  0  0  0  0  0  0  0  0
    9.3569   -3.5984   22.2928 C   0  0  0  0  0  0  0  0  0  0  0  0
    9.4228   -2.8773   23.6153 C   0  0  0  0  0  0  0  0  0  0  0  0
   15.4170   -2.3071   23.8084 N   0  0  0  0  0  0  0  0  0  0  0  0
   13.6035    0.8828   23.3156 N   0  0  0  0  0  0  0  0  0  0  0  0
   11.4163    0.3613   23.3976 N   0  0  0  0  0  0  0  0  0  0  0  0
    5.1001    1.5177   18.4056 N   0  0  0  0  0  0  0  0  0  0  0  0
    9.0558    0.0322   23.2215 N   0  0  0  0  0  0  0  0  0  0  0  0
    6.8794    0.6369   17.2581 O   0  0  0  0  0  0  0  0  0  0  0  0
   12.7213    5.4236   23.0838 H   0  0  0  0  0  0  0  0  0  0  0  0
   10.3154    4.9372   23.3334 H   0  0  0  0  0  0  0  0  0  0  0  0
    5.4607    1.4984   20.8256 H   0  0  0  0  0  0  0  0  0  0  0  0
    8.8186   -0.1288   18.6681 H   0  0  0  0  0  0  0  0  0  0  0  0
   14.3793    3.5777   23.0600 H   0  0  0  0  0  0  0  0  0  0  0  0
    9.4983    2.6285   23.4946 H   0  0  0  0  0  0  0  0  0  0  0  0
    6.6337    1.0989   22.9527 H   0  0  0  0  0  0  0  0  0  0  0  0
    9.9917   -0.5283   20.7953 H   0  0  0  0  0  0  0  0  0  0  0  0
   12.1133   -4.0350   24.9894 H   0  0  0  0  0  0  0  0  0  0  0  0
   13.0430   -4.1376   23.4778 H   0  0  0  0  0  0  0  0  0  0  0  0
   11.2840   -4.3585   23.4506 H   0  0  0  0  0  0  0  0  0  0  0  0
    9.1373   -2.8844   21.4931 H   0  0  0  0  0  0  0  0  0  0  0  0
    8.5744   -4.3648   22.2946 H   0  0  0  0  0  0  0  0  0  0  0  0
   10.3053   -4.0938   22.0594 H   0  0  0  0  0  0  0  0  0  0  0  0
    9.6401   -3.5617   24.4322 H   0  0  0  0  0  0  0  0  0  0  0  0
    8.4959   -2.3478   23.8245 H   0  0  0  0  0  0  0  0  0  0  0  0
    4.7006    1.7492   19.3087 H   0  0  0  0  0  0  0  0  0  0  0  0
    4.5660    1.7069   17.5636 H   0  0  0  0  0  0  0  0  0  0  0  0
    8.5809    0.2942   24.0698 H   0  0  0  0  0  0  0  0  0  0  0  0
  1 15  1  0  0  0  0
  1 23  3  0  0  0  0
  2  3  1  0  0  0  0
  2  6  2  0  0  0  0
  3  7  2  0  0  0  0
  4  8  2  0  0  0  0
  4 10  1  0  0  0  0
  5  9  1  0  0  0  0
  5 10  2  0  0  0  0
  6 11  1  0  0  0  0
  7 12  1  0  0  0  0
  8 13  1  0  0  0  0
  9 13  2  0  0  0  0
 10 19  1  0  0  0  0
 11 12  2  0  0  0  0
 11 24  1  0  0  0  0
 12 25  1  0  0  0  0
 13 27  1  0  0  0  0
 14 15  1  0  0  0  0
 14 24  2  0  0  0  0
 14 25  1  0  0  0  0
 15 16  2  0  0  0  0
 16 17  1  0  0  0  0
 16 20  1  0  0  0  0
 17 18  2  0  0  0  0
 17 22  1  0  0  0  0
 18 25  1  0  0  0  0
 18 27  1  0  0  0  0
 19 26  1  0  0  0  0
 19 28  2  0  0  0  0
 21 22  1  0  0  0  0
  2 29  1  0  0  0  0
  3 30  1  0  0  0  0
  4 31  1  0  0  0  0
  5 32  1  0  0  0  0
  6 33  1  0  0  0  0
  7 34  1  0  0  0  0
  8 35  1  0  0  0  0
  9 36  1  0  0  0  0
 20 37  1  0  0  0  0
 20 38  1  0  0  0  0
 20 39  1  0  0  0  0
 21 40  1  0  0  0  0
 21 41  1  0  0  0  0
 21 42  1  0  0  0  0
 22 43  1  0  0  0  0
 22 44  1  0  0  0  0
 26 45  1  0  0  0  0
 26 46  1  0  0  0  0
 27 47  1  0  0  0  0
M  END
> <Hybrid2>
-9.812746

> <fragments>
x0678

> <site>
active-noncovalent

$$$$
-11.888145446777346_2
  -OEChem-03302021283D

 43 46  0     0  0  0  0  0  0999 V2000
   13.6770   -0.8323   24.1875 C   0  0  0  0  0  0  0  0  0  0  0  0
    7.4539    1.5031   21.4053 C   0  0  0  0  0  0  0  0  0  0  0  0
   12.5629   -0.0314   24.4383 C   0  0  0  0  0  0  0  0  0  0  0  0
   13.5504   -1.9763   23.3994 C   0  0  0  0  0  0  0  0  0  0  0  0
    8.3989    0.9914   20.5161 C   0  0  0  0  0  0  0  0  0  0  0  0
    7.2854    0.9149   22.6588 C   0  0  0  0  0  0  0  0  0  0  0  0
    5.2911   -5.0282   25.2519 C   0  0  0  0  0  0  0  0  0  0  0  0
    7.4823   -5.5782   26.1080 C   0  0  0  0  0  0  0  0  0  0  0  0
    5.8761   -4.2410   24.2601 C   0  0  0  0  0  0  0  0  0  0  0  0
    8.0674   -4.7911   25.1162 C   0  0  0  0  0  0  0  0  0  0  0  0
   11.3222   -0.3744   23.9010 C   0  0  0  0  0  0  0  0  0  0  0  0
   12.3097   -2.3193   22.8622 C   0  0  0  0  0  0  0  0  0  0  0  0
    9.1753   -0.1087   20.8803 C   0  0  0  0  0  0  0  0  0  0  0  0
    8.0619   -0.1852   23.0231 C   0  0  0  0  0  0  0  0  0  0  0  0
    6.0942   -5.6968   26.1759 C   0  0  0  0  0  0  0  0  0  0  0  0
    7.2643   -4.1225   24.1922 C   0  0  0  0  0  0  0  0  0  0  0  0
   11.1956   -1.5184   23.1130 C   0  0  0  0  0  0  0  0  0  0  0  0
    9.0068   -0.6970   22.1338 C   0  0  0  0  0  0  0  0  0  0  0  0
    5.4780   -6.5242   27.2214 C   0  0  0  0  0  0  0  0  0  0  0  0
    7.8740   -3.3018   23.1584 C   0  0  0  0  0  0  0  0  0  0  0  0
    9.8493   -1.8914   22.5298 C   0  0  0  0  0  0  0  0  0  0  0  0
    6.1449   -7.4869   27.8862 N   0  5  0  0  0  0  0  0  0  0  0  0
    4.1941   -6.3908   27.6050 N   0  0  0  0  0  0  0  0  0  0  0  0
    5.2192   -7.9890   28.7414 N   0  0  0  0  0  0  0  0  0  0  0  0
    4.0472   -7.3306   28.5725 N   0  0  0  0  0  0  0  0  0  0  0  0
    9.1270   -2.7466   23.4439 N   0  0  0  0  0  0  0  0  0  0  0  0
    7.2825   -3.0976   22.0833 O   0  0  0  0  0  0  0  0  0  0  0  0
   14.6432   -0.5643   24.6048 H   0  0  0  0  0  0  0  0  0  0  0  0
    6.8503    2.3605   21.1220 H   0  0  0  0  0  0  0  0  0  0  0  0
   12.6615    0.8600   25.0510 H   0  0  0  0  0  0  0  0  0  0  0  0
   14.4178   -2.5995   23.2031 H   0  0  0  0  0  0  0  0  0  0  0  0
    8.5310    1.4499   19.5404 H   0  0  0  0  0  0  0  0  0  0  0  0
    6.5506    1.3137   23.3518 H   0  0  0  0  0  0  0  0  0  0  0  0
    4.2076   -5.1107   25.2923 H   0  0  0  0  0  0  0  0  0  0  0  0
    8.1217   -6.0929   26.8212 H   0  0  0  0  0  0  0  0  0  0  0  0
    5.2404   -3.7246   23.5453 H   0  0  0  0  0  0  0  0  0  0  0  0
    9.1503   -4.7060   25.0729 H   0  0  0  0  0  0  0  0  0  0  0  0
   10.4595    0.2555   24.1019 H   0  0  0  0  0  0  0  0  0  0  0  0
   12.2205   -3.2125   22.2495 H   0  0  0  0  0  0  0  0  0  0  0  0
    9.9090   -0.5008   20.1809 H   0  0  0  0  0  0  0  0  0  0  0  0
    7.9236   -0.6371   24.0017 H   0  0  0  0  0  0  0  0  0  0  0  0
   10.0023   -2.5115   21.6369 H   0  0  0  0  0  0  0  0  0  0  0  0
    9.5370   -2.8931   24.3606 H   0  0  0  0  0  0  0  0  0  0  0  0
  1  3  1  0  0  0  0
  1  4  2  0  0  0  0
  2  5  1  0  0  0  0
  2  6  2  0  0  0  0
  3 11  2  0  0  0  0
  4 12  1  0  0  0  0
  5 13  2  0  0  0  0
  6 14  1  0  0  0  0
  7  9  2  0  0  0  0
  7 15  1  0  0  0  0
  8 10  1  0  0  0  0
  8 15  2  0  0  0  0
  9 16  1  0  0  0  0
 10 16  2  0  0  0  0
 11 17  1  0  0  0  0
 12 17  2  0  0  0  0
 13 18  1  0  0  0  0
 14 18  2  0  0  0  0
 15 19  1  0  0  0  0
 16 20  1  0  0  0  0
 17 21  1  0  0  0  0
 18 21  1  0  0  0  0
 19 22  1  0  0  0  0
 19 23  2  0  0  0  0
 20 26  1  0  0  0  0
 20 27  2  0  0  0  0
 21 26  1  0  0  0  0
 22 24  1  0  0  0  0
 23 25  1  0  0  0  0
 24 25  2  0  0  0  0
  1 28  1  0  0  0  0
  2 29  1  0  0  0  0
  3 30  1  0  0  0  0
  4 31  1  0  0  0  0
  5 32  1  0  0  0  0
  6 33  1  0  0  0  0
  7 34  1  0  0  0  0
  8 35  1  0  0  0  0
  9 36  1  0  0  0  0
 10 37  1  0  0  0  0
 11 38  1  0  0  0  0
 12 39  1  0  0  0  0
 13 40  1  0  0  0  0
 14 41  1  0  0  0  0
 21 42  1  0  0  0  0
 26 43  1  0  0  0  0
M  CHG  1  22  -1
M  END
> <Hybrid2>
-9.809771

> <fragments>
x0072

> <site>
active-noncovalent

$$$$
top_hits_only_mpro-496_1
  -OEChem-03302021283D

 39 42  0     0  0  0  0  0  0999 V2000
   10.3648   -4.3530   24.5923 C   0  0  0  0  0  0  0  0  0  0  0  0
    8.7993   -2.5522   24.9709 C   0  0  0  0  0  0  0  0  0  0  0  0
    9.5149   -5.2328   25.2624 C   0  0  0  0  0  0  0  0  0  0  0  0
    7.9493   -3.4320   25.6410 C   0  0  0  0  0  0  0  0  0  0  0  0
   12.9544    1.8772   22.2510 C   0  0  0  0  0  0  0  0  0  0  0  0
   11.1977    6.5311   24.8558 C   0  0  0  0  0  0  0  0  0  0  0  0
    9.8925    6.4619   24.4157 C   0  0  0  0  0  0  0  0  0  0  0  0
   12.6001   -1.1579   22.3493 C   0  0  0  0  0  0  0  0  0  0  0  0
   10.0071   -3.0126   24.4466 C   0  0  0  0  0  0  0  0  0  0  0  0
   11.9929    1.1879   23.0305 C   0  0  0  0  0  0  0  0  0  0  0  0
    8.3071   -4.7724   25.7868 C   0  0  0  0  0  0  0  0  0  0  0  0
   11.8415   -0.2535   23.0626 C   0  0  0  0  0  0  0  0  0  0  0  0
   12.7860    3.2238   22.4866 C   0  0  0  0  0  0  0  0  0  0  0  0
   11.2660    2.1344   23.7184 C   0  0  0  0  0  0  0  0  0  0  0  0
   10.8861   -2.1027   23.7537 C   0  0  0  0  0  0  0  0  0  0  0  0
   11.2867    4.5760   23.8660 C   0  0  0  0  0  0  0  0  0  0  0  0
   13.5290    4.3737   21.9255 C   0  0  0  0  0  0  0  0  0  0  0  0
   10.1442    1.9598   24.6698 C   0  0  0  0  0  0  0  0  0  0  0  0
   11.9986    5.4504   24.5418 N   0  0  0  0  0  0  0  0  0  0  0  0
   10.8579   -0.7934   23.8681 N   0  0  0  0  0  0  0  0  0  0  0  0
   11.7568    3.3684   23.3799 N   0  0  0  0  0  0  0  0  0  0  0  0
    7.4778   -5.6309   26.4407 O   0  0  0  0  0  0  0  0  0  0  0  0
   12.0704   -2.7521   22.6950 S   0  0  0  0  0  0  0  0  0  0  0  0
    9.6472    4.9891   23.5718 S   0  0  0  0  0  0  0  0  0  0  0  0
   11.3029   -4.7272   24.1892 H   0  0  0  0  0  0  0  0  0  0  0  0
    8.5062   -1.5103   24.8656 H   0  0  0  0  0  0  0  0  0  0  0  0
    9.7990   -6.2758   25.3728 H   0  0  0  0  0  0  0  0  0  0  0  0
    7.0098   -3.0675   26.0474 H   0  0  0  0  0  0  0  0  0  0  0  0
   13.6917    1.4441   21.5880 H   0  0  0  0  0  0  0  0  0  0  0  0
   11.6200    7.3554   25.4144 H   0  0  0  0  0  0  0  0  0  0  0  0
    9.0982    7.1831   24.5441 H   0  0  0  0  0  0  0  0  0  0  0  0
   13.4150   -0.9730   21.6632 H   0  0  0  0  0  0  0  0  0  0  0  0
   13.0574    4.7323   20.9974 H   0  0  0  0  0  0  0  0  0  0  0  0
   13.5714    5.2188   22.6316 H   0  0  0  0  0  0  0  0  0  0  0  0
   14.5748    4.1132   21.6946 H   0  0  0  0  0  0  0  0  0  0  0  0
   10.5161    1.8609   25.7007 H   0  0  0  0  0  0  0  0  0  0  0  0
    9.4473    2.8122   24.6406 H   0  0  0  0  0  0  0  0  0  0  0  0
    9.5467    1.0641   24.4370 H   0  0  0  0  0  0  0  0  0  0  0  0
    6.6829   -5.1646   26.7449 H   0  0  0  0  0  0  0  0  0  0  0  0
  1  3  2  0  0  0  0
  1  9  1  0  0  0  0
  2  4  1  0  0  0  0
  2  9  2  0  0  0  0
  3 11  1  0  0  0  0
  4 11  2  0  0  0  0
  5 10  1  0  0  0  0
  5 13  2  0  0  0  0
  6  7  2  0  0  0  0
  6 19  1  0  0  0  0
  7 24  1  0  0  0  0
  8 12  2  0  0  0  0
  8 23  1  0  0  0  0
  9 15  1  0  0  0  0
 10 12  1  0  0  0  0
 10 14  2  0  0  0  0
 11 22  1  0  0  0  0
 12 20  1  0  0  0  0
 13 17  1  0  0  0  0
 13 21  1  0  0  0  0
 14 18  1  0  0  0  0
 14 21  1  0  0  0  0
 15 20  2  0  0  0  0
 15 23  1  0  0  0  0
 16 19  2  0  0  0  0
 16 21  1  0  0  0  0
 16 24  1  0  0  0  0
  1 25  1  0  0  0  0
  2 26  1  0  0  0  0
  3 27  1  0  0  0  0
  4 28  1  0  0  0  0
  5 29  1  0  0  0  0
  6 30  1  0  0  0  0
  7 31  1  0  0  0  0
  8 32  1  0  0  0  0
 17 33  1  0  0  0  0
 17 34  1  0  0  0  0
 17 35  1  0  0  0  0
 18 36  1  0  0  0  0
 18 37  1  0  0  0  0
 18 38  1  0  0  0  0
 22 39  1  0  0  0  0
M  END
> <Hybrid2>
-9.803429

> <fragments>
x0104

> <site>
active-noncovalent

$$$$
top_hits_only_mpro-369_1
  -OEChem-03302021283D

 45 48  0     0  0  0  0  0  0999 V2000
   13.1440   -0.9491   22.2205 C   0  0  0  0  0  0  0  0  0  0  0  0
   13.9254    0.1805   22.4294 C   0  0  0  0  0  0  0  0  0  0  0  0
   11.8012   -0.9330   22.5868 C   0  0  0  0  0  0  0  0  0  0  0  0
   13.3627    1.3230   23.0038 C   0  0  0  0  0  0  0  0  0  0  0  0
    9.3580    1.4100   24.1105 C   0  0  0  0  0  0  0  0  0  0  0  0
   11.2355    0.2163   23.1645 C   0  0  0  0  0  0  0  0  0  0  0  0
    9.8868    0.2599   23.5426 C   0  0  0  0  0  0  0  0  0  0  0  0
   12.0229    1.3669   23.3794 C   0  0  0  0  0  0  0  0  0  0  0  0
   10.2060    2.4854   24.2812 C   0  0  0  0  0  0  0  0  0  0  0  0
    6.7487   -0.3801   17.8928 C   0  0  0  0  0  0  0  0  0  0  0  0
    7.0382   -2.0813   19.9905 C   0  0  0  0  0  0  0  0  0  0  0  0
    7.7718   -0.9604   19.8330 C   0  0  0  0  0  0  0  0  0  0  0  0
    6.0064   -2.4047   18.9638 C   0  0  0  0  0  0  0  0  0  0  0  0
    8.9762   -0.8813   23.3642 C   0  0  0  0  0  0  0  0  0  0  0  0
    7.2191   -3.0317   21.1368 C   0  0  0  0  0  0  0  0  0  0  0  0
    8.8157   -0.5460   20.8462 C   0  0  0  0  0  0  0  0  0  0  0  0
    8.5348   -2.7935   21.8687 C   0  0  0  0  0  0  0  0  0  0  0  0
    8.2684    3.6968   25.2499 C   0  0  0  0  0  0  0  0  0  0  0  0
   10.4970    4.8165   25.0821 C   0  0  0  0  0  0  0  0  0  0  0  0
   11.5125    2.4845   23.9303 N   0  0  0  0  0  0  0  0  0  0  0  0
    7.6426   -0.0840   18.7757 N   0  0  0  0  0  0  0  0  0  0  0  0
    5.9359   -1.4853   17.9375 N   0  0  0  0  0  0  0  0  0  0  0  0
    8.7654   -1.3648   22.0679 N   0  0  0  0  0  0  0  0  0  0  0  0
    9.6608    3.6574   24.8617 N   0  0  0  0  0  0  0  0  0  0  0  0
    5.2957   -3.4015   19.0466 O   0  0  0  0  0  0  0  0  0  0  0  0
    8.4668   -1.3361   24.3877 O   0  0  0  0  0  0  0  0  0  0  0  0
   13.5779   -1.8388   21.7745 H   0  0  0  0  0  0  0  0  0  0  0  0
   14.9740    0.1768   22.1467 H   0  0  0  0  0  0  0  0  0  0  0  0
   11.2132   -1.8307   22.4121 H   0  0  0  0  0  0  0  0  0  0  0  0
   13.9962    2.1949   23.1568 H   0  0  0  0  0  0  0  0  0  0  0  0
    8.3152    1.4608   24.4092 H   0  0  0  0  0  0  0  0  0  0  0  0
    6.5723    0.2578   17.0136 H   0  0  0  0  0  0  0  0  0  0  0  0
    6.3803   -2.9108   21.8331 H   0  0  0  0  0  0  0  0  0  0  0  0
    7.2026   -4.0682   20.7803 H   0  0  0  0  0  0  0  0  0  0  0  0
    9.8179   -0.6652   20.4178 H   0  0  0  0  0  0  0  0  0  0  0  0
    8.6791    0.5104   21.0968 H   0  0  0  0  0  0  0  0  0  0  0  0
    8.5341   -3.3298   22.8234 H   0  0  0  0  0  0  0  0  0  0  0  0
    9.3783   -3.1782   21.2817 H   0  0  0  0  0  0  0  0  0  0  0  0
    8.0343    4.6827   25.6779 H   0  0  0  0  0  0  0  0  0  0  0  0
    7.6366    3.5212   24.3668 H   0  0  0  0  0  0  0  0  0  0  0  0
    8.0750    2.9161   26.0003 H   0  0  0  0  0  0  0  0  0  0  0  0
    9.8989    5.6195   25.5375 H   0  0  0  0  0  0  0  0  0  0  0  0
   11.3245    4.5488   25.7556 H   0  0  0  0  0  0  0  0  0  0  0  0
   10.9041    5.1629   24.1207 H   0  0  0  0  0  0  0  0  0  0  0  0
    5.2585   -1.6330   17.1951 H   0  0  0  0  0  0  0  0  0  0  0  0
  1  2  1  0  0  0  0
  1  3  2  0  0  0  0
  2  4  2  0  0  0  0
  3  6  1  0  0  0  0
  4  8  1  0  0  0  0
  5  7  1  0  0  0  0
  5  9  2  0  0  0  0
  6  7  2  0  0  0  0
  6  8  1  0  0  0  0
  7 14  1  0  0  0  0
  8 20  2  0  0  0  0
  9 20  1  0  0  0  0
  9 24  1  0  0  0  0
 10 21  2  0  0  0  0
 10 22  1  0  0  0  0
 11 12  2  0  0  0  0
 11 13  1  0  0  0  0
 11 15  1  0  0  0  0
 12 16  1  0  0  0  0
 12 21  1  0  0  0  0
 13 22  1  0  0  0  0
 13 25  2  0  0  0  0
 14 23  1  0  0  0  0
 14 26  2  0  0  0  0
 15 17  1  0  0  0  0
 16 23  1  0  0  0  0
 17 23  1  0  0  0  0
 18 24  1  0  0  0  0
 19 24  1  0  0  0  0
  1 27  1  0  0  0  0
  2 28  1  0  0  0  0
  3 29  1  0  0  0  0
  4 30  1  0  0  0  0
  5 31  1  0  0  0  0
 10 32  1  0  0  0  0
 15 33  1  0  0  0  0
 15 34  1  0  0  0  0
 16 35  1  0  0  0  0
 16 36  1  0  0  0  0
 17 37  1  0  0  0  0
 17 38  1  0  0  0  0
 18 39  1  0  0  0  0
 18 40  1  0  0  0  0
 18 41  1  0  0  0  0
 19 42  1  0  0  0  0
 19 43  1  0  0  0  0
 19 44  1  0  0  0  0
 22 45  1  0  0  0  0
M  END
> <Hybrid2>
-9.780997

> <fragments>
x0830

> <site>
active-covalent

$$$$
top_hits_only_mpro-476_1
  -OEChem-03302021283D

 39 41  0     1  0  0  0  0  0999 V2000
   13.8122   -0.0923   23.7230 C   0  0  0  0  0  0  0  0  0  0  0  0
   13.8742   -1.3465   23.1177 C   0  0  0  0  0  0  0  0  0  0  0  0
   12.5801    0.5327   23.9124 C   0  0  0  0  0  0  0  0  0  0  0  0
   12.7035   -1.9825   22.7041 C   0  0  0  0  0  0  0  0  0  0  0  0
    6.3934    0.0516   20.5330 C   0  0  0  0  0  0  0  0  0  0  0  0
    8.0246   -0.6469   18.9493 C   0  0  0  0  0  0  0  0  0  0  0  0
    6.4575    0.9091   18.3156 C   0  0  0  0  0  0  0  0  0  0  0  0
    7.4978   -0.7361   20.2278 C   0  0  0  0  0  0  0  0  0  0  0  0
   11.4049   -0.0935   23.4857 C   0  0  0  0  0  0  0  0  0  0  0  0
   11.4612   -1.3615   22.8851 C   0  0  0  0  0  0  0  0  0  0  0  0
    5.8572    0.8926   19.5643 C   0  0  0  0  0  0  0  0  0  0  0  0
    8.0880   -1.6354   21.2295 C   0  0  0  0  0  0  0  0  0  0  0  0
   10.0586    0.5409   23.6791 C   0  0  0  0  0  0  0  0  0  0  0  0
    9.1901    0.2868   22.4510 C   0  0  0  0  0  0  0  0  0  0  0  0
   10.1766   -2.0605   22.4905 C   0  0  1  0  0  0  0  0  0  0  0  0
    4.6765    1.7476   19.8593 C   0  0  0  0  0  0  0  0  0  0  0  0
    9.6854   -2.9457   23.6438 C   0  0  0  0  0  0  0  0  0  0  0  0
    7.5311    0.1583   17.9820 N   0  0  0  0  0  0  0  0  0  0  0  0
    9.1071   -1.1315   22.0556 N   0  0  0  0  0  0  0  0  0  0  0  0
    7.6386   -2.7801   21.2661 O   0  0  0  0  0  0  0  0  0  0  0  0
   10.4187   -4.1535   23.6176 O   0  0  0  0  0  0  0  0  0  0  0  0
   14.7262    0.4023   24.0402 H   0  0  0  0  0  0  0  0  0  0  0  0
   14.8364   -1.8262   22.9622 H   0  0  0  0  0  0  0  0  0  0  0  0
   12.5465    1.5065   24.3878 H   0  0  0  0  0  0  0  0  0  0  0  0
   12.7721   -2.9582   22.2366 H   0  0  0  0  0  0  0  0  0  0  0  0
    5.9496    0.0113   21.5249 H   0  0  0  0  0  0  0  0  0  0  0  0
    8.8861   -1.2370   18.6517 H   0  0  0  0  0  0  0  0  0  0  0  0
    6.0830    1.5455   17.5198 H   0  0  0  0  0  0  0  0  0  0  0  0
    9.5636    0.1183   24.5511 H   0  0  0  0  0  0  0  0  0  0  0  0
   10.1875    1.6114   23.8281 H   0  0  0  0  0  0  0  0  0  0  0  0
    8.1483    0.6347   22.6318 H   0  0  0  0  0  0  0  0  0  0  0  0
    9.5534    0.9171   21.6118 H   0  0  0  0  0  0  0  0  0  0  0  0
   10.4083   -2.7158   21.6441 H   0  0  0  0  0  0  0  0  0  0  0  0
    4.9946    2.7251   20.2460 H   0  0  0  0  0  0  0  0  0  0  0  0
    4.0659    1.9147   18.9607 H   0  0  0  0  0  0  0  0  0  0  0  0
    4.0171    1.2801   20.6045 H   0  0  0  0  0  0  0  0  0  0  0  0
    8.6269   -3.1574   23.5143 H   0  0  0  0  0  0  0  0  0  0  0  0
    9.8525   -2.4366   24.5898 H   0  0  0  0  0  0  0  0  0  0  0  0
   10.0959   -4.7025   24.3535 H   0  0  0  0  0  0  0  0  0  0  0  0
  1  2  1  0  0  0  0
  1  3  2  0  0  0  0
  2  4  2  0  0  0  0
  3  9  1  0  0  0  0
  4 10  1  0  0  0  0
  5  8  2  0  0  0  0
  5 11  1  0  0  0  0
  6  8  1  0  0  0  0
  6 18  2  0  0  0  0
  7 11  2  0  0  0  0
  7 18  1  0  0  0  0
  8 12  1  0  0  0  0
  9 10  2  0  0  0  0
  9 13  1  0  0  0  0
 10 15  1  0  0  0  0
 11 16  1  0  0  0  0
 12 19  1  0  0  0  0
 12 20  2  0  0  0  0
 13 14  1  0  0  0  0
 14 19  1  0  0  0  0
 15 17  1  0  0  0  0
 15 19  1  0  0  0  0
 17 21  1  0  0  0  0
  1 22  1  0  0  0  0
  2 23  1  0  0  0  0
  3 24  1  0  0  0  0
  4 25  1  0  0  0  0
  5 26  1  0  0  0  0
  6 27  1  0  0  0  0
  7 28  1  0  0  0  0
 13 29  1  0  0  0  0
 13 30  1  0  0  0  0
 14 31  1  0  0  0  0
 14 32  1  0  0  0  0
 15 33  1  0  0  0  0
 16 34  1  0  0  0  0
 16 35  1  0  0  0  0
 16 36  1  0  0  0  0
 17 37  1  0  0  0  0
 17 38  1  0  0  0  0
 21 39  1  0  0  0  0
M  END
> <Hybrid2>
-9.780149

> <fragments>
x0678

> <site>
active-noncovalent

$$$$
top_hits_only_mpro-39_1
  -OEChem-03302021283D

 42 44  0     1  0  0  0  0  0999 V2000
    4.6537    1.8166   20.2777 C   0  0  0  0  0  0  0  0  0  0  0  0
    4.9145    1.7980   21.6471 C   0  0  0  0  0  0  0  0  0  0  0  0
    5.5913    1.3074   19.3806 C   0  0  0  0  0  0  0  0  0  0  0  0
    6.1152    1.2696   22.1255 C   0  0  0  0  0  0  0  0  0  0  0  0
    6.7917    0.7795   19.8648 C   0  0  0  0  0  0  0  0  0  0  0  0
    7.0678    0.7541   21.2400 C   0  0  0  0  0  0  0  0  0  0  0  0
    7.8009    0.2338   18.9312 C   0  0  0  0  0  0  0  0  0  0  0  0
    9.1287   -0.2398   20.9128 C   0  0  0  0  0  0  0  0  0  0  0  0
   12.7649   -2.1394   23.0263 C   0  0  0  0  0  0  0  0  0  0  0  0
   13.1285   -1.1092   24.0962 C   0  0  0  0  0  0  0  0  0  0  0  0
   11.2575    0.6715   23.8870 C   0  0  0  0  0  0  0  0  0  0  0  0
   11.3045   -2.5540   22.9884 C   0  0  0  0  0  0  0  0  0  0  0  0
   10.2281   -0.4499   23.8806 C   0  0  0  0  0  0  0  0  0  0  0  0
   12.7434    0.3210   23.7018 C   0  0  1  0  0  0  0  0  0  0  0  0
   13.6021    1.3308   24.4756 C   0  0  0  0  0  0  0  0  0  0  0  0
   10.4193   -0.8124   21.3729 C   0  0  0  0  0  0  0  0  0  0  0  0
    8.2667    0.2294   21.7583 N   0  0  0  0  0  0  0  0  0  0  0  0
    8.9416   -0.2562   19.5461 N   0  0  0  0  0  0  0  0  0  0  0  0
   10.3459   -1.4221   22.7434 N   0  3  1  0  0  0  0  0  0  0  0  0
    7.6157    0.2290   17.7199 O   0  0  0  0  0  0  0  0  0  0  0  0
    3.7183    2.2284   19.9097 H   0  0  0  0  0  0  0  0  0  0  0  0
    4.1818    2.1958   22.3434 H   0  0  0  0  0  0  0  0  0  0  0  0
    5.3715    1.3299   18.3170 H   0  0  0  0  0  0  0  0  0  0  0  0
    6.3026    1.2630   23.1966 H   0  0  0  0  0  0  0  0  0  0  0  0
   13.0750   -1.7769   22.0405 H   0  0  0  0  0  0  0  0  0  0  0  0
   13.3556   -3.0447   23.2075 H   0  0  0  0  0  0  0  0  0  0  0  0
   12.6995   -1.3846   25.0681 H   0  0  0  0  0  0  0  0  0  0  0  0
   14.2195   -1.1470   24.2228 H   0  0  0  0  0  0  0  0  0  0  0  0
   10.9773    1.3819   23.0774 H   0  0  0  0  0  0  0  0  0  0  0  0
   11.1320    1.2741   24.8158 H   0  0  0  0  0  0  0  0  0  0  0  0
   11.1446   -3.3064   22.2048 H   0  0  0  0  0  0  0  0  0  0  0  0
   11.0130   -2.9936   23.9514 H   0  0  0  0  0  0  0  0  0  0  0  0
   10.3469   -1.0338   24.8279 H   0  0  0  0  0  0  0  0  0  0  0  0
    9.1733   -0.0690   23.9102 H   0  0  0  0  0  0  0  0  0  0  0  0
   12.9842    0.4582   22.6308 H   0  0  0  0  0  0  0  0  0  0  0  0
   13.4023    1.2369   25.5396 H   0  0  0  0  0  0  0  0  0  0  0  0
   13.3592    2.3386   24.1497 H   0  0  0  0  0  0  0  0  0  0  0  0
   14.6538    1.1330   24.2863 H   0  0  0  0  0  0  0  0  0  0  0  0
   11.1878   -0.0360   21.4223 H   0  0  0  0  0  0  0  0  0  0  0  0
   10.7507   -1.6045   20.6961 H   0  0  0  0  0  0  0  0  0  0  0  0
    9.6759   -0.6466   18.9622 H   0  0  0  0  0  0  0  0  0  0  0  0
    9.3750   -1.9229   22.7306 H   0  0  0  0  0  0  0  0  0  0  0  0
  1  2  1  0  0  0  0
  1  3  2  0  0  0  0
  2  4  2  0  0  0  0
  3  5  1  0  0  0  0
  4  6  1  0  0  0  0
  5  6  2  0  0  0  0
  5  7  1  0  0  0  0
  6 17  1  0  0  0  0
  7 18  1  0  0  0  0
  7 20  2  0  0  0  0
  8 16  1  0  0  0  0
  8 17  2  0  0  0  0
  8 18  1  0  0  0  0
  9 10  1  0  0  0  0
  9 12  1  0  0  0  0
 10 14  1  0  0  0  0
 11 13  1  0  0  0  0
 11 14  1  0  0  0  0
 12 19  1  0  0  0  0
 13 19  1  0  0  0  0
 14 15  1  0  0  0  0
 16 19  1  0  0  0  0
  1 21  1  0  0  0  0
  2 22  1  0  0  0  0
  3 23  1  0  0  0  0
  4 24  1  0  0  0  0
  9 25  1  0  0  0  0
  9 26  1  0  0  0  0
 10 27  1  0  0  0  0
 10 28  1  0  0  0  0
 11 29  1  0  0  0  0
 11 30  1  0  0  0  0
 12 31  1  0  0  0  0
 12 32  1  0  0  0  0
 13 33  1  0  0  0  0
 13 34  1  0  0  0  0
 14 35  1  0  0  0  0
 15 36  1  0  0  0  0
 15 37  1  0  0  0  0
 15 38  1  0  0  0  0
 16 39  1  0  0  0  0
 16 40  1  0  0  0  0
 18 41  1  0  0  0  0
 19 42  1  0  0  0  0
M  CHG  1  19   1
M  END
> <Hybrid2>
-9.760778

> <fragments>
x0678

> <site>
active-noncovalent

$$$$
top_hits_only_mpro-103_1
  -OEChem-03302021283D

 43 45  0     1  0  0  0  0  0999 V2000
    5.0770    0.9719   19.5536 C   0  0  0  0  0  0  0  0  0  0  0  0
    7.7067   -2.7615   26.4299 C   0  0  0  0  0  0  0  0  0  0  0  0
    7.0509   -3.9560   24.4349 C   0  0  0  0  0  0  0  0  0  0  0  0
    7.0093   -3.6831   27.2109 C   0  0  0  0  0  0  0  0  0  0  0  0
    6.3536   -4.8776   25.2159 C   0  0  0  0  0  0  0  0  0  0  0  0
    5.9968    1.0274   20.5949 C   0  0  0  0  0  0  0  0  0  0  0  0
    5.5569    0.7295   18.2766 C   0  0  0  0  0  0  0  0  0  0  0  0
    7.7274    0.6047   19.0193 C   0  0  0  0  0  0  0  0  0  0  0  0
    7.7274   -2.8979   25.0418 C   0  0  0  0  0  0  0  0  0  0  0  0
    6.3328   -4.7411   26.6040 C   0  0  0  0  0  0  0  0  0  0  0  0
    7.3492    0.8414   20.3311 C   0  0  0  0  0  0  0  0  0  0  0  0
    9.5877   -2.5036   23.3326 C   0  0  0  0  0  0  0  0  0  0  0  0
    7.6219   -1.1562   23.1702 C   0  0  0  0  0  0  0  0  0  0  0  0
    8.4818   -1.9020   24.1973 C   0  0  1  0  0  0  0  0  0  0  0  0
    9.9094   -1.3561   22.3750 C   0  0  1  0  0  0  0  0  0  0  0  0
   10.5518   -1.8399   21.0875 C   0  0  0  0  0  0  0  0  0  0  0  0
    4.9839   -6.6983   26.6811 C   0  0  0  0  0  0  0  0  0  0  0  0
    6.8631    0.5438   17.9816 N   0  0  0  0  0  0  0  0  0  0  0  0
    8.5767   -0.7313   22.0989 N   0  0  2  0  0  0  0  0  0  0  0  0
    9.8212    1.2578   21.0307 O   0  0  0  0  0  0  0  0  0  0  0  0
    7.9909    1.7035   22.7037 O   0  0  0  0  0  0  0  0  0  0  0  0
    5.6535   -5.6410   27.3664 O   0  0  0  0  0  0  0  0  0  0  0  0
    8.5475    0.9049   21.6283 S   0  0  0  0  0  0  0  0  0  0  0  0
    4.0179    1.1139   19.7357 H   0  0  0  0  0  0  0  0  0  0  0  0
    8.2308   -1.9402   26.9112 H   0  0  0  0  0  0  0  0  0  0  0  0
    7.0615   -4.0702   23.3539 H   0  0  0  0  0  0  0  0  0  0  0  0
    6.9971   -3.5716   28.2919 H   0  0  0  0  0  0  0  0  0  0  0  0
    5.8290   -5.6997   24.7372 H   0  0  0  0  0  0  0  0  0  0  0  0
    5.6498    1.2159   21.6070 H   0  0  0  0  0  0  0  0  0  0  0  0
    4.8804    0.6766   17.4299 H   0  0  0  0  0  0  0  0  0  0  0  0
    8.7683    0.4518   18.7516 H   0  0  0  0  0  0  0  0  0  0  0  0
   10.4603   -2.8096   23.9194 H   0  0  0  0  0  0  0  0  0  0  0  0
    9.2236   -3.3850   22.7882 H   0  0  0  0  0  0  0  0  0  0  0  0
    6.8634   -1.8012   22.7113 H   0  0  0  0  0  0  0  0  0  0  0  0
    7.1132   -0.3031   23.6306 H   0  0  0  0  0  0  0  0  0  0  0  0
    8.9397   -1.1525   24.8922 H   0  0  0  0  0  0  0  0  0  0  0  0
   10.5556   -0.6267   22.8791 H   0  0  0  0  0  0  0  0  0  0  0  0
    9.9042   -2.5653   20.5906 H   0  0  0  0  0  0  0  0  0  0  0  0
   11.5115   -2.3161   21.2991 H   0  0  0  0  0  0  0  0  0  0  0  0
   10.7203   -1.0004   20.4098 H   0  0  0  0  0  0  0  0  0  0  0  0
    4.4823   -7.3435   27.4065 H   0  0  0  0  0  0  0  0  0  0  0  0
    5.7096   -7.2765   26.1036 H   0  0  0  0  0  0  0  0  0  0  0  0
    4.2415   -6.2690   26.0041 H   0  0  0  0  0  0  0  0  0  0  0  0
  1  6  2  0  0  0  0
  1  7  1  0  0  0  0
  2  4  2  0  0  0  0
  2  9  1  0  0  0  0
  3  5  1  0  0  0  0
  3  9  2  0  0  0  0
  4 10  1  0  0  0  0
  5 10  2  0  0  0  0
  6 11  1  0  0  0  0
  7 18  2  0  0  0  0
  8 11  2  0  0  0  0
  8 18  1  0  0  0  0
  9 14  1  0  0  0  0
 10 22  1  0  0  0  0
 11 23  1  0  0  0  0
 12 14  1  0  0  0  0
 12 15  1  0  0  0  0
 13 14  1  0  0  0  0
 13 19  1  0  0  0  0
 15 16  1  0  0  0  0
 15 19  1  0  0  0  0
 17 22  1  0  0  0  0
 19 23  1  0  0  0  0
 20 23  2  0  0  0  0
 21 23  2  0  0  0  0
  1 24  1  0  0  0  0
  2 25  1  0  0  0  0
  3 26  1  0  0  0  0
  4 27  1  0  0  0  0
  5 28  1  0  0  0  0
  6 29  1  0  0  0  0
  7 30  1  0  0  0  0
  8 31  1  0  0  0  0
 12 32  1  0  0  0  0
 12 33  1  0  0  0  0
 13 34  1  0  0  0  0
 13 35  1  0  0  0  0
 14 36  1  0  0  0  0
 15 37  1  0  0  0  0
 16 38  1  0  0  0  0
 16 39  1  0  0  0  0
 16 40  1  0  0  0  0
 17 41  1  0  0  0  0
 17 42  1  0  0  0  0
 17 43  1  0  0  0  0
M  END
> <Hybrid2>
-9.754289

> <fragments>
x0107

> <site>
active-noncovalent

$$$$
top_hits_only_mpro-1_1
  -OEChem-03302021283D

 37 38  0     1  0  0  0  0  0999 V2000
   10.5148    0.4851   24.5513 C   0  0  0  0  0  0  0  0  0  0  0  0
    6.2027    0.9999   21.6112 C   0  0  0  0  0  0  0  0  0  0  0  0
    9.7015   -0.2372   23.6782 C   0  0  0  0  0  0  0  0  0  0  0  0
   11.8787    0.2033   24.6282 C   0  0  0  0  0  0  0  0  0  0  0  0
    4.9888    1.6401   21.3621 C   0  0  0  0  0  0  0  0  0  0  0  0
   11.6160   -1.5233   22.9588 C   0  0  0  0  0  0  0  0  0  0  0  0
    5.4152    1.5244   18.9868 C   0  0  0  0  0  0  0  0  0  0  0  0
    7.0230    0.6220   20.5481 C   0  0  0  0  0  0  0  0  0  0  0  0
   10.2520   -1.2414   22.8820 C   0  0  0  0  0  0  0  0  0  0  0  0
   12.4293   -0.8010   23.8320 C   0  0  0  0  0  0  0  0  0  0  0  0
    6.6292    0.8842   19.2359 C   0  0  0  0  0  0  0  0  0  0  0  0
    4.5950    1.9023   20.0499 C   0  0  0  0  0  0  0  0  0  0  0  0
    8.2841   -0.0459   20.8472 C   0  0  0  0  0  0  0  0  0  0  0  0
   10.1264   -2.5161   20.7022 C   0  0  0  0  0  0  0  0  0  0  0  0
    9.3691   -2.0237   21.9337 C   0  0  2  0  0  0  0  0  0  0  0  0
   13.8877   -1.1028   23.9147 C   0  0  0  0  0  0  0  0  0  0  0  0
    8.2085   -1.2558   21.5437 N   0  0  0  0  0  0  0  0  0  0  0  0
    7.4488    0.5096   18.1346 N   0  0  0  0  0  0  0  0  0  0  0  0
    9.3624    0.4676   20.5067 O   0  0  0  0  0  0  0  0  0  0  0  0
    7.0552    0.7663   16.9727 O   0  0  0  0  0  0  0  0  0  0  0  0
    8.5395   -0.0652   18.3600 O   0  0  0  0  0  0  0  0  0  0  0  0
   14.5588   -0.3193   24.8100 F   0  0  0  0  0  0  0  0  0  0  0  0
   14.1596   -2.3871   24.2916 F   0  0  0  0  0  0  0  0  0  0  0  0
   14.5285   -0.9275   22.7225 F   0  0  0  0  0  0  0  0  0  0  0  0
    2.9501    2.7698   19.7142 Br  0  0  0  0  0  0  0  0  0  0  0  0
   10.0860    1.2672   25.1713 H   0  0  0  0  0  0  0  0  0  0  0  0
    6.4975    0.8000   22.6383 H   0  0  0  0  0  0  0  0  0  0  0  0
    8.6398   -0.0101   23.6247 H   0  0  0  0  0  0  0  0  0  0  0  0
   12.5047    0.7706   25.3119 H   0  0  0  0  0  0  0  0  0  0  0  0
    4.3615    1.9270   22.2021 H   0  0  0  0  0  0  0  0  0  0  0  0
   12.0460   -2.3055   22.3376 H   0  0  0  0  0  0  0  0  0  0  0  0
    5.1089    1.7282   17.9627 H   0  0  0  0  0  0  0  0  0  0  0  0
   10.5481   -1.6778   20.1370 H   0  0  0  0  0  0  0  0  0  0  0  0
   10.9506   -3.1757   20.9966 H   0  0  0  0  0  0  0  0  0  0  0  0
    9.4816   -3.0890   20.0263 H   0  0  0  0  0  0  0  0  0  0  0  0
    8.9727   -2.9037   22.4550 H   0  0  0  0  0  0  0  0  0  0  0  0
    7.3041   -1.5972   21.8523 H   0  0  0  0  0  0  0  0  0  0  0  0
  1  3  2  0  0  0  0
  1  4  1  0  0  0  0
  2  5  2  0  0  0  0
  2  8  1  0  0  0  0
  3  9  1  0  0  0  0
  4 10  2  0  0  0  0
  5 12  1  0  0  0  0
  6  9  2  0  0  0  0
  6 10  1  0  0  0  0
  7 11  1  0  0  0  0
  7 12  2  0  0  0  0
  8 11  2  0  0  0  0
  8 13  1  0  0  0  0
  9 15  1  0  0  0  0
 10 16  1  0  0  0  0
 11 18  1  0  0  0  0
 12 25  1  0  0  0  0
 13 17  1  0  0  0  0
 13 19  2  0  0  0  0
 14 15  1  0  0  0  0
 15 17  1  0  0  0  0
 16 22  1  0  0  0  0
 16 23  1  0  0  0  0
 16 24  1  0  0  0  0
 18 20  2  0  0  0  0
 18 21  2  0  0  0  0
  1 26  1  0  0  0  0
  2 27  1  0  0  0  0
  3 28  1  0  0  0  0
  4 29  1  0  0  0  0
  5 30  1  0  0  0  0
  6 31  1  0  0  0  0
  7 32  1  0  0  0  0
 14 33  1  0  0  0  0
 14 34  1  0  0  0  0
 14 35  1  0  0  0  0
 15 36  1  0  0  0  0
 17 37  1  0  0  0  0
M  END
> <Hybrid2>
-9.707792

> <fragments>
x0678

> <site>
active-noncovalent

$$$$
top_hits_only_mpro-235_1
  -OEChem-03302021283D

 35 37  0     1  0  0  0  0  0999 V2000
    5.7603   -5.5649   22.2057 C   0  0  0  0  0  0  0  0  0  0  0  0
    6.2217   -2.4051   20.6248 C   0  0  0  0  0  0  0  0  0  0  0  0
    7.3657   -1.9267   21.2247 C   0  0  0  0  0  0  0  0  0  0  0  0
    6.3503   -4.3035   21.8933 C   0  0  0  0  0  0  0  0  0  0  0  0
   10.9286   -1.6053   25.1755 C   0  0  0  0  0  0  0  0  0  0  0  0
   11.8587   -2.6261   25.1707 C   0  0  0  0  0  0  0  0  0  0  0  0
    7.4947   -3.8255   22.4928 C   0  0  0  0  0  0  0  0  0  0  0  0
    9.5720   -3.3096   24.9584 C   0  0  0  0  0  0  0  0  0  0  0  0
   11.3054   -0.1681   25.2770 C   0  0  0  0  0  0  0  0  0  0  0  0
   13.3321   -2.4509   25.3145 C   0  0  0  0  0  0  0  0  0  0  0  0
   12.7536   -0.0053   25.7723 C   0  0  0  0  0  0  0  0  0  0  0  0
   13.7156   -0.9798   25.0694 C   0  0  0  0  0  0  0  0  0  0  0  0
    8.6402   -5.9305   23.1386 C   0  0  0  0  0  0  0  0  0  0  0  0
    8.3306   -4.1009   24.8135 C   0  0  0  0  0  0  0  0  0  0  0  0
    5.2805   -6.5906   22.4597 N   0  0  0  0  0  0  0  0  0  0  0  0
    5.6934   -3.6021   20.9483 N   0  0  0  0  0  0  0  0  0  0  0  0
    8.0227   -2.6283   22.1695 N   0  0  0  0  0  0  0  0  0  0  0  0
    9.6124   -1.9969   25.0483 N   0  0  0  0  0  0  0  0  0  0  0  0
    8.1367   -4.5974   23.4698 N   0  0  3  0  0  0  0  0  0  0  0  0
   11.0818   -4.1319   25.0164 S   0  0  0  0  0  0  0  0  0  0  0  0
    5.6940   -1.8405   19.8662 H   0  0  0  0  0  0  0  0  0  0  0  0
    7.7896   -0.9648   20.9643 H   0  0  0  0  0  0  0  0  0  0  0  0
   11.2072    0.2891   24.2851 H   0  0  0  0  0  0  0  0  0  0  0  0
   10.6219    0.3594   25.9511 H   0  0  0  0  0  0  0  0  0  0  0  0
   13.6293   -2.7396   26.3300 H   0  0  0  0  0  0  0  0  0  0  0  0
   13.8773   -3.0926   24.6133 H   0  0  0  0  0  0  0  0  0  0  0  0
   13.0817    1.0275   25.6097 H   0  0  0  0  0  0  0  0  0  0  0  0
   12.7921   -0.1868   26.8542 H   0  0  0  0  0  0  0  0  0  0  0  0
   14.7406   -0.8083   25.4173 H   0  0  0  0  0  0  0  0  0  0  0  0
   13.7063   -0.7738   23.9913 H   0  0  0  0  0  0  0  0  0  0  0  0
    9.1088   -6.3773   24.0278 H   0  0  0  0  0  0  0  0  0  0  0  0
    7.8057   -6.5653   22.8060 H   0  0  0  0  0  0  0  0  0  0  0  0
    9.3846   -5.8513   22.3326 H   0  0  0  0  0  0  0  0  0  0  0  0
    8.3248   -4.9776   25.4835 H   0  0  0  0  0  0  0  0  0  0  0  0
    7.4320   -3.5139   25.0686 H   0  0  0  0  0  0  0  0  0  0  0  0
  1  4  1  0  0  0  0
  1 15  3  0  0  0  0
  2  3  1  0  0  0  0
  2 16  2  0  0  0  0
  3 17  2  0  0  0  0
  4  7  2  0  0  0  0
  4 16  1  0  0  0  0
  5  6  2  0  0  0  0
  5  9  1  0  0  0  0
  5 18  1  0  0  0  0
  6 10  1  0  0  0  0
  6 20  1  0  0  0  0
  7 17  1  0  0  0  0
  7 19  1  0  0  0  0
  8 14  1  0  0  0  0
  8 18  2  0  0  0  0
  8 20  1  0  0  0  0
  9 11  1  0  0  0  0
 10 12  1  0  0  0  0
 11 12  1  0  0  0  0
 13 19  1  0  0  0  0
 14 19  1  0  0  0  0
  2 21  1  0  0  0  0
  3 22  1  0  0  0  0
  9 23  1  0  0  0  0
  9 24  1  0  0  0  0
 10 25  1  0  0  0  0
 10 26  1  0  0  0  0
 11 27  1  0  0  0  0
 11 28  1  0  0  0  0
 12 29  1  0  0  0  0
 12 30  1  0  0  0  0
 13 31  1  0  0  0  0
 13 32  1  0  0  0  0
 13 33  1  0  0  0  0
 14 34  1  0  0  0  0
 14 35  1  0  0  0  0
M  END
> <Hybrid2>
-9.697808

> <fragments>
x0749

> <site>
active-covalent

$$$$
top_hits_only_mpro-171_1
  -OEChem-03302021283D

 44 48  0     1  0  0  0  0  0999 V2000
   15.0662   -2.6128   23.8264 C   0  0  0  0  0  0  0  0  0  0  0  0
   14.6953   -2.4455   22.4922 C   0  0  0  0  0  0  0  0  0  0  0  0
   14.5877   -1.7346   24.7988 C   0  0  0  0  0  0  0  0  0  0  0  0
    6.5564    2.3405   19.6375 C   0  0  0  0  0  0  0  0  0  0  0  0
    6.4659    1.0269   19.2205 C   0  0  0  0  0  0  0  0  0  0  0  0
   13.8458   -1.4000   22.1304 C   0  0  0  0  0  0  0  0  0  0  0  0
   13.7382   -0.6891   24.4369 C   0  0  0  0  0  0  0  0  0  0  0  0
    9.2536   -0.3480   23.9005 C   0  0  0  0  0  0  0  0  0  0  0  0
    9.8383   -2.5745   23.1669 C   0  0  0  0  0  0  0  0  0  0  0  0
    7.6597    2.7416   20.3861 C   0  0  0  0  0  0  0  0  0  0  0  0
    7.4745    0.1299   19.5673 C   0  0  0  0  0  0  0  0  0  0  0  0
    8.6786   -0.8793   25.0549 C   0  0  0  0  0  0  0  0  0  0  0  0
    9.2634   -3.1058   24.3214 C   0  0  0  0  0  0  0  0  0  0  0  0
   13.3672   -0.5218   23.1027 C   0  0  0  0  0  0  0  0  0  0  0  0
    9.8334   -1.1956   22.9565 C   0  0  0  0  0  0  0  0  0  0  0  0
   11.2440    0.5680   22.1288 C   0  0  0  0  0  0  0  0  0  0  0  0
    8.7047    1.8485   20.7446 C   0  0  0  0  0  0  0  0  0  0  0  0
    8.6048    0.5035   20.3401 C   0  0  0  0  0  0  0  0  0  0  0  0
    8.6835   -2.2582   25.2654 C   0  0  0  0  0  0  0  0  0  0  0  0
   12.4879    0.5590   22.7285 C   0  0  0  0  0  0  0  0  0  0  0  0
   10.9110    1.9423   22.0166 C   0  0  0  0  0  0  0  0  0  0  0  0
   10.4630   -0.6156   21.6963 C   0  0  2  0  0  0  0  0  0  0  0  0
   11.8681    2.7197   22.5483 N   0  0  0  0  0  0  0  0  0  0  0  0
   12.8045    1.8582   22.9584 N   0  0  0  0  0  0  0  0  0  0  0  0
    9.7713    2.4320   21.4719 N   0  0  0  0  0  0  0  0  0  0  0  0
    9.4943   -0.5174   20.6224 N   0  0  0  0  0  0  0  0  0  0  0  0
    7.9743   -2.9134   26.6896 Cl  0  0  0  0  0  0  0  0  0  0  0  0
   15.7272   -3.4273   24.1081 H   0  0  0  0  0  0  0  0  0  0  0  0
   15.0682   -3.1293   21.7352 H   0  0  0  0  0  0  0  0  0  0  0  0
   14.8756   -1.8656   25.8378 H   0  0  0  0  0  0  0  0  0  0  0  0
    5.7804    3.0549   19.3808 H   0  0  0  0  0  0  0  0  0  0  0  0
    5.6169    0.6932   18.6324 H   0  0  0  0  0  0  0  0  0  0  0  0
   13.5637   -1.2845   21.0866 H   0  0  0  0  0  0  0  0  0  0  0  0
   13.3745   -0.0124   25.2065 H   0  0  0  0  0  0  0  0  0  0  0  0
    9.2456    0.7274   23.7436 H   0  0  0  0  0  0  0  0  0  0  0  0
   10.2883   -3.2417   22.4364 H   0  0  0  0  0  0  0  0  0  0  0  0
    7.7092    3.7858   20.6945 H   0  0  0  0  0  0  0  0  0  0  0  0
    7.3687   -0.9016   19.2307 H   0  0  0  0  0  0  0  0  0  0  0  0
    8.2308   -0.2066   25.7818 H   0  0  0  0  0  0  0  0  0  0  0  0
    9.2745   -4.1822   24.4719 H   0  0  0  0  0  0  0  0  0  0  0  0
   11.2031   -1.3988   21.3487 H   0  0  0  0  0  0  0  0  0  0  0  0
   13.6399    2.2324   23.3916 H   0  0  0  0  0  0  0  0  0  0  0  0
    9.6497    3.4396   21.5591 H   0  0  0  0  0  0  0  0  0  0  0  0
    9.3194   -1.3925   20.1349 H   0  0  0  0  0  0  0  0  0  0  0  0
  1  2  1  0  0  0  0
  1  3  2  0  0  0  0
  2  6  2  0  0  0  0
  3  7  1  0  0  0  0
  4  5  1  0  0  0  0
  4 10  2  0  0  0  0
  5 11  2  0  0  0  0
  6 14  1  0  0  0  0
  7 14  2  0  0  0  0
  8 12  2  0  0  0  0
  8 15  1  0  0  0  0
  9 13  1  0  0  0  0
  9 15  2  0  0  0  0
 10 17  1  0  0  0  0
 11 18  1  0  0  0  0
 12 19  1  0  0  0  0
 13 19  2  0  0  0  0
 14 20  1  0  0  0  0
 15 22  1  0  0  0  0
 16 20  2  0  0  0  0
 16 21  1  0  0  0  0
 16 22  1  0  0  0  0
 17 18  2  0  0  0  0
 17 25  1  0  0  0  0
 18 26  1  0  0  0  0
 19 27  1  0  0  0  0
 20 24  1  0  0  0  0
 21 23  2  0  0  0  0
 21 25  1  0  0  0  0
 22 26  1  0  0  0  0
 23 24  1  0  0  0  0
  1 28  1  0  0  0  0
  2 29  1  0  0  0  0
  3 30  1  0  0  0  0
  4 31  1  0  0  0  0
  5 32  1  0  0  0  0
  6 33  1  0  0  0  0
  7 34  1  0  0  0  0
  8 35  1  0  0  0  0
  9 36  1  0  0  0  0
 10 37  1  0  0  0  0
 11 38  1  0  0  0  0
 12 39  1  0  0  0  0
 13 40  1  0  0  0  0
 22 41  1  0  0  0  0
 24 42  1  0  0  0  0
 25 43  1  0  0  0  0
 26 44  1  0  0  0  0
M  END
> <Hybrid2>
-9.662393

> <fragments>
x0678

> <site>
active-noncovalent

$$$$
top_hits_only_mpro-20_1
  -OEChem-03302021283D

 45 47  0     1  0  0  0  0  0999 V2000
   14.0304   -1.6455   22.9455 C   0  0  0  0  0  0  0  0  0  0  0  0
   14.1266   -0.9640   24.1587 C   0  0  0  0  0  0  0  0  0  0  0  0
   13.0801   -1.2574   22.0010 C   0  0  0  0  0  0  0  0  0  0  0  0
   13.2724    0.1055   24.4275 C   0  0  0  0  0  0  0  0  0  0  0  0
   12.2260   -0.1879   22.2698 C   0  0  0  0  0  0  0  0  0  0  0  0
   12.3221    0.4935   23.4830 C   0  0  0  0  0  0  0  0  0  0  0  0
    7.0393    0.4552   19.6275 C   0  0  0  0  0  0  0  0  0  0  0  0
    7.6897   -0.0290   18.4767 C   0  0  0  0  0  0  0  0  0  0  0  0
    5.8785    1.0173   19.1550 C   0  0  0  0  0  0  0  0  0  0  0  0
    9.2182    1.1798   22.7000 C   0  0  0  0  0  0  0  0  0  0  0  0
   11.0337    1.8952   25.2188 C   0  0  0  0  0  0  0  0  0  0  0  0
   11.9767    2.8241   24.5255 C   0  0  0  0  0  0  0  0  0  0  0  0
   11.4106    1.6327   23.7694 C   0  0  0  0  0  0  0  0  0  0  0  0
    8.9847   -0.7278   18.3971 C   0  0  0  0  0  0  0  0  0  0  0  0
    4.7592    1.6921   19.8337 C   0  0  0  0  0  0  0  0  0  0  0  0
    7.4967    2.7972   21.8499 C   0  0  0  0  0  0  0  0  0  0  0  0
    7.5059    0.3762   21.0601 C   0  0  0  0  0  0  0  0  0  0  0  0
    8.3587    1.5819   21.5004 C   0  0  2  0  0  0  0  0  0  0  0  0
    6.9994    0.2049   17.3574 N   0  0  0  0  0  0  0  0  0  0  0  0
    5.9031    0.8421   17.8026 N   0  0  0  0  0  0  0  0  0  0  0  0
   10.4286    1.8574   22.7352 N   0  0  0  0  0  0  0  0  0  0  0  0
    8.8632    0.3390   23.5234 O   0  0  0  0  0  0  0  0  0  0  0  0
   14.6957   -2.4780   22.7361 H   0  0  0  0  0  0  0  0  0  0  0  0
   14.8666   -1.2658   24.8944 H   0  0  0  0  0  0  0  0  0  0  0  0
   13.0053   -1.7883   21.0563 H   0  0  0  0  0  0  0  0  0  0  0  0
   13.3547    0.6297   25.3759 H   0  0  0  0  0  0  0  0  0  0  0  0
   11.4885    0.1060   21.5273 H   0  0  0  0  0  0  0  0  0  0  0  0
   11.4390    1.2493   25.9891 H   0  0  0  0  0  0  0  0  0  0  0  0
   10.0353    2.2591   25.4323 H   0  0  0  0  0  0  0  0  0  0  0  0
   11.6133    3.8134   24.2718 H   0  0  0  0  0  0  0  0  0  0  0  0
   13.0173    2.8036   24.8287 H   0  0  0  0  0  0  0  0  0  0  0  0
    8.8555   -1.8200   18.4838 H   0  0  0  0  0  0  0  0  0  0  0  0
    9.5072   -0.5288   17.4449 H   0  0  0  0  0  0  0  0  0  0  0  0
    9.6787   -0.4100   19.1953 H   0  0  0  0  0  0  0  0  0  0  0  0
    4.9350    2.7787   19.9126 H   0  0  0  0  0  0  0  0  0  0  0  0
    3.8015    1.5482   19.3024 H   0  0  0  0  0  0  0  0  0  0  0  0
    4.5979    1.3064   20.8563 H   0  0  0  0  0  0  0  0  0  0  0  0
    6.7914    2.5662   22.6543 H   0  0  0  0  0  0  0  0  0  0  0  0
    6.9120    3.1203   20.9813 H   0  0  0  0  0  0  0  0  0  0  0  0
    8.1116    3.6463   22.1683 H   0  0  0  0  0  0  0  0  0  0  0  0
    8.0706   -0.5585   21.1754 H   0  0  0  0  0  0  0  0  0  0  0  0
    6.6429    0.2682   21.7309 H   0  0  0  0  0  0  0  0  0  0  0  0
    9.0409    1.8770   20.6921 H   0  0  0  0  0  0  0  0  0  0  0  0
    5.2100    1.1328   17.1242 H   0  0  0  0  0  0  0  0  0  0  0  0
   10.6311    2.5360   22.0071 H   0  0  0  0  0  0  0  0  0  0  0  0
  1  2  1  0  0  0  0
  1  3  2  0  0  0  0
  2  4  2  0  0  0  0
  3  5  1  0  0  0  0
  4  6  1  0  0  0  0
  5  6  2  0  0  0  0
  6 13  1  0  0  0  0
  7  8  1  0  0  0  0
  7  9  2  0  0  0  0
  7 17  1  0  0  0  0
  8 14  1  0  0  0  0
  8 19  2  0  0  0  0
  9 15  1  0  0  0  0
  9 20  1  0  0  0  0
 10 18  1  0  0  0  0
 10 21  1  0  0  0  0
 10 22  2  0  0  0  0
 11 12  1  0  0  0  0
 11 13  1  0  0  0  0
 12 13  1  0  0  0  0
 13 21  1  0  0  0  0
 16 18  1  0  0  0  0
 17 18  1  0  0  0  0
 19 20  1  0  0  0  0
  1 23  1  0  0  0  0
  2 24  1  0  0  0  0
  3 25  1  0  0  0  0
  4 26  1  0  0  0  0
  5 27  1  0  0  0  0
 11 28  1  0  0  0  0
 11 29  1  0  0  0  0
 12 30  1  0  0  0  0
 12 31  1  0  0  0  0
 14 32  1  0  0  0  0
 14 33  1  0  0  0  0
 14 34  1  0  0  0  0
 15 35  1  0  0  0  0
 15 36  1  0  0  0  0
 15 37  1  0  0  0  0
 16 38  1  0  0  0  0
 16 39  1  0  0  0  0
 16 40  1  0  0  0  0
 17 41  1  0  0  0  0
 17 42  1  0  0  0  0
 18 43  1  0  0  0  0
 20 44  1  0  0  0  0
 21 45  1  0  0  0  0
M  END
> <Hybrid2>
-9.655693

> <fragments>
x0678

> <site>
active-noncovalent

$$$$
top_hits_only_mpro-328_1
  -OEChem-03302021283D

 34 35  0     0  0  0  0  0  0999 V2000
   13.7319    0.2037   23.8488 C   0  0  0  0  0  0  0  0  0  0  0  0
   14.0628   -1.0518   23.3436 C   0  0  0  0  0  0  0  0  0  0  0  0
   12.4040    0.6284   23.8467 C   0  0  0  0  0  0  0  0  0  0  0  0
   13.0654   -1.8851   22.8350 C   0  0  0  0  0  0  0  0  0  0  0  0
   11.4080   -0.2113   23.3356 C   0  0  0  0  0  0  0  0  0  0  0  0
   11.7281   -1.4722   22.8263 C   0  0  0  0  0  0  0  0  0  0  0  0
    9.9940    0.2205   23.3241 C   0  0  0  0  0  0  0  0  0  0  0  0
    9.5196   -1.9429   22.3050 C   0  0  0  0  0  0  0  0  0  0  0  0
    7.8855    0.8895   20.5293 C   0  0  0  0  0  0  0  0  0  0  0  0
    6.9365    0.2776   18.3198 C   0  0  0  0  0  0  0  0  0  0  0  0
    8.4841   -2.8876   21.7429 C   0  0  0  0  0  0  0  0  0  0  0  0
    7.4456    0.9578   21.9835 C   0  0  0  0  0  0  0  0  0  0  0  0
    7.6753   -0.3386   22.7473 C   0  0  0  0  0  0  0  0  0  0  0  0
   10.7550   -2.3363   22.3079 N   0  0  0  0  0  0  0  0  0  0  0  0
    9.0895   -0.7080   22.7865 N   0  0  0  0  0  0  0  0  0  0  0  0
    5.7394   -0.1606   17.7806 N   0  0  0  0  0  0  0  0  0  0  0  0
    6.8457    0.4562   19.7036 N   0  0  0  0  0  0  0  0  0  0  0  0
    9.7019    1.3264   23.7703 O   0  0  0  0  0  0  0  0  0  0  0  0
    9.0193    1.1720   20.1525 O   0  0  0  0  0  0  0  0  0  0  0  0
    7.9424    0.4771   17.6415 O   0  0  0  0  0  0  0  0  0  0  0  0
   14.5086    0.8517   24.2444 H   0  0  0  0  0  0  0  0  0  0  0  0
   15.0973   -1.3826   23.3454 H   0  0  0  0  0  0  0  0  0  0  0  0
   12.1665    1.6108   24.2451 H   0  0  0  0  0  0  0  0  0  0  0  0
   13.3390   -2.8623   22.4439 H   0  0  0  0  0  0  0  0  0  0  0  0
    8.1100   -3.5170   22.5426 H   0  0  0  0  0  0  0  0  0  0  0  0
    8.9436   -3.4974   20.9726 H   0  0  0  0  0  0  0  0  0  0  0  0
    7.6737   -2.3082   21.3143 H   0  0  0  0  0  0  0  0  0  0  0  0
    7.9752    1.7852   22.4712 H   0  0  0  0  0  0  0  0  0  0  0  0
    6.3742    1.1916   21.9898 H   0  0  0  0  0  0  0  0  0  0  0  0
    7.1267   -1.1742   22.3013 H   0  0  0  0  0  0  0  0  0  0  0  0
    7.3461   -0.2269   23.7850 H   0  0  0  0  0  0  0  0  0  0  0  0
    4.9202   -0.3189   18.3575 H   0  0  0  0  0  0  0  0  0  0  0  0
    5.6449   -0.3360   16.7859 H   0  0  0  0  0  0  0  0  0  0  0  0
    5.9518    0.2547   20.1437 H   0  0  0  0  0  0  0  0  0  0  0  0
  1  2  2  0  0  0  0
  1  3  1  0  0  0  0
  2  4  1  0  0  0  0
  3  5  2  0  0  0  0
  4  6  2  0  0  0  0
  5  6  1  0  0  0  0
  5  7  1  0  0  0  0
  6 14  1  0  0  0  0
  7 15  1  0  0  0  0
  7 18  2  0  0  0  0
  8 11  1  0  0  0  0
  8 14  2  0  0  0  0
  8 15  1  0  0  0  0
  9 12  1  0  0  0  0
  9 17  1  0  0  0  0
  9 19  2  0  0  0  0
 10 16  1  0  0  0  0
 10 17  1  0  0  0  0
 10 20  2  0  0  0  0
 12 13  1  0  0  0  0
 13 15  1  0  0  0  0
  1 21  1  0  0  0  0
  2 22  1  0  0  0  0
  3 23  1  0  0  0  0
  4 24  1  0  0  0  0
 11 25  1  0  0  0  0
 11 26  1  0  0  0  0
 11 27  1  0  0  0  0
 12 28  1  0  0  0  0
 12 29  1  0  0  0  0
 13 30  1  0  0  0  0
 13 31  1  0  0  0  0
 16 32  1  0  0  0  0
 16 33  1  0  0  0  0
 17 34  1  0  0  0  0
M  END
> <Hybrid2>
-9.654677

> <fragments>
x0678

> <site>
active-noncovalent

$$$$
top_hits_only_mpro-143_1
  -OEChem-03302021283D

 51 53  0     0  0  0  0  0  0999 V2000
   11.2499    2.9248   23.8291 C   0  0  0  0  0  0  0  0  0  0  0  0
   10.8055    1.7724   24.4771 C   0  0  0  0  0  0  0  0  0  0  0  0
   12.3092    2.8519   22.9246 C   0  0  0  0  0  0  0  0  0  0  0  0
    6.1877    0.4837   20.0990 C   0  0  0  0  0  0  0  0  0  0  0  0
   11.4205    0.5470   24.2207 C   0  0  0  0  0  0  0  0  0  0  0  0
   12.9243    1.6265   22.6682 C   0  0  0  0  0  0  0  0  0  0  0  0
    5.9412    1.4799   19.1608 C   0  0  0  0  0  0  0  0  0  0  0  0
    7.4806   -0.6630   18.4650 C   0  0  0  0  0  0  0  0  0  0  0  0
    6.9711   -0.6115   19.7525 C   0  0  0  0  0  0  0  0  0  0  0  0
   12.4799    0.4740   23.3162 C   0  0  0  0  0  0  0  0  0  0  0  0
    6.4970    1.3348   17.8999 C   0  0  0  0  0  0  0  0  0  0  0  0
    7.2507   -1.6797   20.7200 C   0  0  0  0  0  0  0  0  0  0  0  0
   12.1725   -2.0056   23.1974 C   0  0  0  0  0  0  0  0  0  0  0  0
    9.3321   -0.4344   21.5091 C   0  0  0  0  0  0  0  0  0  0  0  0
    8.6617   -2.5665   22.5478 C   0  0  0  0  0  0  0  0  0  0  0  0
   10.7622   -0.9482   21.3616 C   0  0  0  0  0  0  0  0  0  0  0  0
   10.0897   -3.0857   22.4081 C   0  0  0  0  0  0  0  0  0  0  0  0
    6.2516    2.3843   16.8674 C   0  0  0  0  0  0  0  0  0  0  0  0
   14.3465   -1.1928   23.9698 C   0  0  0  0  0  0  0  0  0  0  0  0
   13.7083   -0.8667   21.5881 C   0  0  0  0  0  0  0  0  0  0  0  0
   13.1588   -0.8769   23.0332 C   0  0  0  0  0  0  0  0  0  0  0  0
    7.2630    0.2853   17.5264 N   0  0  0  0  0  0  0  0  0  0  0  0
    8.3829   -1.5559   21.5269 N   0  0  0  0  0  0  0  0  0  0  0  0
   11.0504   -1.9786   22.3704 N   0  0  0  0  0  0  0  0  0  0  0  0
    6.4577   -2.6198   20.7370 O   0  0  0  0  0  0  0  0  0  0  0  0
   12.3925   -2.8819   24.0373 O   0  0  0  0  0  0  0  0  0  0  0  0
   10.7700    3.8787   24.0278 H   0  0  0  0  0  0  0  0  0  0  0  0
    9.9799    1.8288   25.1806 H   0  0  0  0  0  0  0  0  0  0  0  0
   12.6547    3.7488   22.4190 H   0  0  0  0  0  0  0  0  0  0  0  0
    5.7653    0.5704   21.0965 H   0  0  0  0  0  0  0  0  0  0  0  0
   11.0677   -0.3458   24.7304 H   0  0  0  0  0  0  0  0  0  0  0  0
   13.7490    1.5792   21.9620 H   0  0  0  0  0  0  0  0  0  0  0  0
    5.3326    2.3402   19.4180 H   0  0  0  0  0  0  0  0  0  0  0  0
    8.0985   -1.4931   18.1354 H   0  0  0  0  0  0  0  0  0  0  0  0
    9.2150    0.1090   22.4545 H   0  0  0  0  0  0  0  0  0  0  0  0
    9.1106    0.2662   20.7002 H   0  0  0  0  0  0  0  0  0  0  0  0
    7.9537   -3.3977   22.4703 H   0  0  0  0  0  0  0  0  0  0  0  0
    8.5149   -2.0971   23.5278 H   0  0  0  0  0  0  0  0  0  0  0  0
   10.9034   -1.4107   20.3775 H   0  0  0  0  0  0  0  0  0  0  0  0
   11.4560   -0.1085   21.4282 H   0  0  0  0  0  0  0  0  0  0  0  0
   10.3169   -3.7690   23.2325 H   0  0  0  0  0  0  0  0  0  0  0  0
   10.2043   -3.6491   21.4743 H   0  0  0  0  0  0  0  0  0  0  0  0
    7.0292    3.1558   16.9163 H   0  0  0  0  0  0  0  0  0  0  0  0
    6.2490    1.9552   15.8574 H   0  0  0  0  0  0  0  0  0  0  0  0
    5.2750    2.8635   17.0123 H   0  0  0  0  0  0  0  0  0  0  0  0
   14.8020   -2.1628   23.7354 H   0  0  0  0  0  0  0  0  0  0  0  0
   14.0401   -1.2101   25.0225 H   0  0  0  0  0  0  0  0  0  0  0  0
   15.1361   -0.4359   23.8796 H   0  0  0  0  0  0  0  0  0  0  0  0
   14.2022   -1.8152   21.3444 H   0  0  0  0  0  0  0  0  0  0  0  0
   12.9043   -0.7150   20.8574 H   0  0  0  0  0  0  0  0  0  0  0  0
   14.4409   -0.0668   21.4284 H   0  0  0  0  0  0  0  0  0  0  0  0
  1  2  1  0  0  0  0
  1  3  2  0  0  0  0
  2  5  2  0  0  0  0
  3  6  1  0  0  0  0
  4  7  2  0  0  0  0
  4  9  1  0  0  0  0
  5 10  1  0  0  0  0
  6 10  2  0  0  0  0
  7 11  1  0  0  0  0
  8  9  2  0  0  0  0
  8 22  1  0  0  0  0
  9 12  1  0  0  0  0
 10 21  1  0  0  0  0
 11 18  1  0  0  0  0
 11 22  2  0  0  0  0
 12 23  1  0  0  0  0
 12 25  2  0  0  0  0
 13 21  1  0  0  0  0
 13 24  1  0  0  0  0
 13 26  2  0  0  0  0
 14 16  1  0  0  0  0
 14 23  1  0  0  0  0
 15 17  1  0  0  0  0
 15 23  1  0  0  0  0
 16 24  1  0  0  0  0
 17 24  1  0  0  0  0
 19 21  1  0  0  0  0
 20 21  1  0  0  0  0
  1 27  1  0  0  0  0
  2 28  1  0  0  0  0
  3 29  1  0  0  0  0
  4 30  1  0  0  0  0
  5 31  1  0  0  0  0
  6 32  1  0  0  0  0
  7 33  1  0  0  0  0
  8 34  1  0  0  0  0
 14 35  1  0  0  0  0
 14 36  1  0  0  0  0
 15 37  1  0  0  0  0
 15 38  1  0  0  0  0
 16 39  1  0  0  0  0
 16 40  1  0  0  0  0
 17 41  1  0  0  0  0
 17 42  1  0  0  0  0
 18 43  1  0  0  0  0
 18 44  1  0  0  0  0
 18 45  1  0  0  0  0
 19 46  1  0  0  0  0
 19 47  1  0  0  0  0
 19 48  1  0  0  0  0
 20 49  1  0  0  0  0
 20 50  1  0  0  0  0
 20 51  1  0  0  0  0
M  END
> <Hybrid2>
-9.629299

> <fragments>
x0678

> <site>
active-noncovalent

$$$$
top_hits_only_mpro-453_1
  -OEChem-03302021283D

 52 56  0     0  0  0  0  0  0999 V2000
   11.1977    6.3558   24.3579 C   0  0  0  0  0  0  0  0  0  0  0  0
   11.1550    5.6615   23.2103 C   0  0  0  0  0  0  0  0  0  0  0  0
    9.9490    7.0106   24.8540 C   0  0  0  0  0  0  0  0  0  0  0  0
    8.7852    6.1100   22.8621 C   0  0  0  0  0  0  0  0  0  0  0  0
   12.3432    4.9844   22.6502 C   0  0  0  0  0  0  0  0  0  0  0  0
   13.9202    1.6345   23.5001 C   0  0  0  0  0  0  0  0  0  0  0  0
   11.3907    1.5686   23.5501 C   0  0  0  0  0  0  0  0  0  0  0  0
   12.7998   -2.9419   23.8823 C   0  0  0  0  0  0  0  0  0  0  0  0
   11.4225   -1.3002   22.5745 C   0  0  0  0  0  0  0  0  0  0  0  0
   11.5770   -1.1260   25.0785 C   0  0  0  0  0  0  0  0  0  0  0  0
   13.9036   -1.2603   22.4092 C   0  0  0  0  0  0  0  0  0  0  0  0
   14.0545   -1.0309   24.9156 C   0  0  0  0  0  0  0  0  0  0  0  0
   13.6966    2.8437   22.5955 C   0  0  0  0  0  0  0  0  0  0  0  0
   11.6250    3.0212   23.9549 C   0  0  0  0  0  0  0  0  0  0  0  0
   11.5169   -2.0954   23.8889 C   0  0  0  0  0  0  0  0  0  0  0  0
   14.0236   -2.0229   23.7377 C   0  0  0  0  0  0  0  0  0  0  0  0
   12.6455   -0.3612   22.4200 C   0  0  0  0  0  0  0  0  0  0  0  0
   12.7741   -0.1583   24.9216 C   0  0  0  0  0  0  0  0  0  0  0  0
   12.6826    0.6837   23.5953 C   0  0  0  0  0  0  0  0  0  0  0  0
    9.9910    5.5426   22.4877 N   0  0  0  0  0  0  0  0  0  0  0  0
    8.8316    6.8302   24.0531 N   0  0  0  0  0  0  0  0  0  0  0  0
   12.5673    3.6658   23.0412 N   0  0  0  0  0  0  0  0  0  0  0  0
   12.2879    6.5453   25.1614 N   0  0  0  0  0  0  0  0  0  0  0  0
    9.9287    7.6589   25.8980 O   0  0  0  0  0  0  0  0  0  0  0  0
    7.7552    5.9893   22.1981 O   0  0  0  0  0  0  0  0  0  0  0  0
   13.0646    5.6226   21.8828 O   0  0  0  0  0  0  0  0  0  0  0  0
   14.7780    1.0653   23.1139 H   0  0  0  0  0  0  0  0  0  0  0  0
   14.2346    2.0034   24.4801 H   0  0  0  0  0  0  0  0  0  0  0  0
   10.5953    1.1674   24.1801 H   0  0  0  0  0  0  0  0  0  0  0  0
   10.9920    1.5536   22.5274 H   0  0  0  0  0  0  0  0  0  0  0  0
   12.8726   -3.5232   24.8097 H   0  0  0  0  0  0  0  0  0  0  0  0
   12.7710   -3.6636   23.0568 H   0  0  0  0  0  0  0  0  0  0  0  0
   11.3848   -1.9956   21.7253 H   0  0  0  0  0  0  0  0  0  0  0  0
   10.4848   -0.7360   22.5373 H   0  0  0  0  0  0  0  0  0  0  0  0
   10.6351   -0.5772   25.1725 H   0  0  0  0  0  0  0  0  0  0  0  0
   11.6851   -1.6941   26.0114 H   0  0  0  0  0  0  0  0  0  0  0  0
   14.8083   -0.6728   22.2235 H   0  0  0  0  0  0  0  0  0  0  0  0
   13.8373   -1.9750   21.5784 H   0  0  0  0  0  0  0  0  0  0  0  0
   14.1244   -1.5853   25.8603 H   0  0  0  0  0  0  0  0  0  0  0  0
   14.9546   -0.4105   24.8678 H   0  0  0  0  0  0  0  0  0  0  0  0
   14.5782    3.4897   22.5807 H   0  0  0  0  0  0  0  0  0  0  0  0
   13.5369    2.5015   21.5704 H   0  0  0  0  0  0  0  0  0  0  0  0
   10.6638    3.5256   23.9487 H   0  0  0  0  0  0  0  0  0  0  0  0
   12.0407    3.0892   24.9588 H   0  0  0  0  0  0  0  0  0  0  0  0
   10.6443   -2.7506   23.9902 H   0  0  0  0  0  0  0  0  0  0  0  0
   14.9377   -2.6271   23.7365 H   0  0  0  0  0  0  0  0  0  0  0  0
   12.5675    0.1604   21.4579 H   0  0  0  0  0  0  0  0  0  0  0  0
   12.8109    0.4972   25.7998 H   0  0  0  0  0  0  0  0  0  0  0  0
   10.0177    5.0050   21.6258 H   0  0  0  0  0  0  0  0  0  0  0  0
    7.9663    7.2632   24.3634 H   0  0  0  0  0  0  0  0  0  0  0  0
   13.1535    6.1361   24.8900 H   0  0  0  0  0  0  0  0  0  0  0  0
   12.1782    7.0858   25.9898 H   0  0  0  0  0  0  0  0  0  0  0  0
  1  2  2  0  0  0  0
  1  3  1  0  0  0  0
  1 23  1  0  0  0  0
  2  5  1  0  0  0  0
  2 20  1  0  0  0  0
  3 21  1  0  0  0  0
  3 24  2  0  0  0  0
  4 20  1  0  0  0  0
  4 21  1  0  0  0  0
  4 25  2  0  0  0  0
  5 22  1  0  0  0  0
  5 26  2  0  0  0  0
  6 13  1  0  0  0  0
  6 19  1  0  0  0  0
  7 14  1  0  0  0  0
  7 19  1  0  0  0  0
  8 15  1  0  0  0  0
  8 16  1  0  0  0  0
  9 15  1  0  0  0  0
  9 17  1  0  0  0  0
 10 15  1  0  0  0  0
 10 18  1  0  0  0  0
 11 16  1  0  0  0  0
 11 17  1  0  0  0  0
 12 16  1  0  0  0  0
 12 18  1  0  0  0  0
 13 22  1  0  0  0  0
 14 22  1  0  0  0  0
 17 19  1  0  0  0  0
 18 19  1  0  0  0  0
  6 27  1  0  0  0  0
  6 28  1  0  0  0  0
  7 29  1  0  0  0  0
  7 30  1  0  0  0  0
  8 31  1  0  0  0  0
  8 32  1  0  0  0  0
  9 33  1  0  0  0  0
  9 34  1  0  0  0  0
 10 35  1  0  0  0  0
 10 36  1  0  0  0  0
 11 37  1  0  0  0  0
 11 38  1  0  0  0  0
 12 39  1  0  0  0  0
 12 40  1  0  0  0  0
 13 41  1  0  0  0  0
 13 42  1  0  0  0  0
 14 43  1  0  0  0  0
 14 44  1  0  0  0  0
 15 45  1  0  0  0  0
 16 46  1  0  0  0  0
 17 47  1  0  0  0  0
 18 48  1  0  0  0  0
 20 49  1  0  0  0  0
 21 50  1  0  0  0  0
 23 51  1  0  0  0  0
 23 52  1  0  0  0  0
M  END
> <Hybrid2>
-9.614774

> <fragments>
x0161

> <site>
active-noncovalent

$$$$
top_hits_only_mpro-271_1
  -OEChem-03302021283D

 38 41  0     1  0  0  0  0  0999 V2000
    9.3496    5.5988   25.0986 C   0  0  0  0  0  0  0  0  0  0  0  0
    8.5591    4.5305   24.6615 C   0  0  0  0  0  0  0  0  0  0  0  0
   10.3346    3.7371   23.1929 C   0  0  0  0  0  0  0  0  0  0  0  0
    7.9340   -0.3927   18.4958 C   0  0  0  0  0  0  0  0  0  0  0  0
    5.9684    0.3360   18.0618 C   0  0  0  0  0  0  0  0  0  0  0  0
   11.0935    4.8001   23.6412 C   0  0  0  0  0  0  0  0  0  0  0  0
   10.6232    5.7228   24.5770 C   0  0  0  0  0  0  0  0  0  0  0  0
    9.0476    3.6082   23.7172 C   0  0  0  0  0  0  0  0  0  0  0  0
    7.3408   -0.1783   19.7173 C   0  0  0  0  0  0  0  0  0  0  0  0
   12.4603    5.1809   23.2723 C   0  0  0  0  0  0  0  0  0  0  0  0
    8.2302    1.9013   22.0611 C   0  0  0  0  0  0  0  0  0  0  0  0
   11.6643    6.7495   24.8612 C   0  0  0  0  0  0  0  0  0  0  0  0
    7.7438   -0.3379   21.1353 C   0  0  0  0  0  0  0  0  0  0  0  0
    5.8439    1.4129   21.5629 C   0  0  0  0  0  0  0  0  0  0  0  0
    5.1427    0.6487   20.4377 C   0  0  0  0  0  0  0  0  0  0  0  0
    7.1987    0.8095   22.0091 C   0  0  2  0  0  0  0  0  0  0  0  0
    7.0731   -0.0702   17.4699 N   0  0  0  0  0  0  0  0  0  0  0  0
    6.0907    0.2805   19.4123 N   0  0  0  0  0  0  0  0  0  0  0  0
   12.7557    6.3230   24.0060 N   0  0  0  0  0  0  0  0  0  0  0  0
    8.2235    2.5379   23.2957 N   0  0  0  0  0  0  0  0  0  0  0  0
   13.1577    4.5820   22.4752 O   0  0  0  0  0  0  0  0  0  0  0  0
    8.9483    2.1335   21.0939 O   0  0  0  0  0  0  0  0  0  0  0  0
    8.9672    6.3064   25.8261 H   0  0  0  0  0  0  0  0  0  0  0  0
    7.5544    4.4206   25.0633 H   0  0  0  0  0  0  0  0  0  0  0  0
   10.7243    3.0332   22.4653 H   0  0  0  0  0  0  0  0  0  0  0  0
    8.9264   -0.7634   18.2963 H   0  0  0  0  0  0  0  0  0  0  0  0
    5.0741    0.6771   17.5626 H   0  0  0  0  0  0  0  0  0  0  0  0
   11.3544    7.7538   24.5620 H   0  0  0  0  0  0  0  0  0  0  0  0
   12.0020    6.7266   25.9003 H   0  0  0  0  0  0  0  0  0  0  0  0
    7.3306   -1.2800   21.5021 H   0  0  0  0  0  0  0  0  0  0  0  0
    8.8299   -0.4016   21.2114 H   0  0  0  0  0  0  0  0  0  0  0  0
    5.9743    2.4677   21.2597 H   0  0  0  0  0  0  0  0  0  0  0  0
    5.1779    1.4384   22.4458 H   0  0  0  0  0  0  0  0  0  0  0  0
    4.6824   -0.2587   20.8216 H   0  0  0  0  0  0  0  0  0  0  0  0
    4.3861    1.2687   19.9607 H   0  0  0  0  0  0  0  0  0  0  0  0
    7.1171    0.4577   23.0458 H   0  0  0  0  0  0  0  0  0  0  0  0
   13.6448    6.8096   23.9494 H   0  0  0  0  0  0  0  0  0  0  0  0
    7.5537    2.2053   23.9863 H   0  0  0  0  0  0  0  0  0  0  0  0
  1  2  2  0  0  0  0
  1  7  1  0  0  0  0
  2  8  1  0  0  0  0
  3  6  1  0  0  0  0
  3  8  2  0  0  0  0
  4  9  2  0  0  0  0
  4 17  1  0  0  0  0
  5 17  2  0  0  0  0
  5 18  1  0  0  0  0
  6  7  2  0  0  0  0
  6 10  1  0  0  0  0
  7 12  1  0  0  0  0
  8 20  1  0  0  0  0
  9 13  1  0  0  0  0
  9 18  1  0  0  0  0
 10 19  1  0  0  0  0
 10 21  2  0  0  0  0
 11 16  1  0  0  0  0
 11 20  1  0  0  0  0
 11 22  2  0  0  0  0
 12 19  1  0  0  0  0
 13 16  1  0  0  0  0
 14 15  1  0  0  0  0
 14 16  1  0  0  0  0
 15 18  1  0  0  0  0
  1 23  1  0  0  0  0
  2 24  1  0  0  0  0
  3 25  1  0  0  0  0
  4 26  1  0  0  0  0
  5 27  1  0  0  0  0
 12 28  1  0  0  0  0
 12 29  1  0  0  0  0
 13 30  1  0  0  0  0
 13 31  1  0  0  0  0
 14 32  1  0  0  0  0
 14 33  1  0  0  0  0
 15 34  1  0  0  0  0
 15 35  1  0  0  0  0
 16 36  1  0  0  0  0
 19 37  1  0  0  0  0
 20 38  1  0  0  0  0
M  END
> <Hybrid2>
-9.608792

> <fragments>
x0107

> <site>
active-noncovalent

$$$$
top_hits_only_mpro-435_1
  -OEChem-03302021283D

 35 37  0     1  0  0  0  0  0999 V2000
    9.6112   -1.8270   23.9156 C   0  0  0  0  0  0  0  0  0  0  0  0
    9.7143   -2.5842   25.0831 C   0  0  0  0  0  0  0  0  0  0  0  0
    7.5047   -2.8959   23.4001 C   0  0  0  0  0  0  0  0  0  0  0  0
    5.4227    0.7917   20.6147 C   0  0  0  0  0  0  0  0  0  0  0  0
    7.2441   -0.1248   19.3904 C   0  0  0  0  0  0  0  0  0  0  0  0
    5.6068    1.0186   18.2545 C   0  0  0  0  0  0  0  0  0  0  0  0
    8.5084   -1.9830   23.0752 C   0  0  0  0  0  0  0  0  0  0  0  0
    7.6163   -3.6606   24.5630 C   0  0  0  0  0  0  0  0  0  0  0  0
    6.6158    0.0777   20.6086 C   0  0  0  0  0  0  0  0  0  0  0  0
    8.7195   -3.5091   25.4015 C   0  0  0  0  0  0  0  0  0  0  0  0
    4.9017    1.2745   19.4194 C   0  0  0  0  0  0  0  0  0  0  0  0
    6.7040   -5.3810   26.0024 C   0  0  0  0  0  0  0  0  0  0  0  0
    8.0755   -5.3706   26.6552 C   0  0  0  0  0  0  0  0  0  0  0  0
    9.5893   -0.2186   21.6224 C   0  0  0  0  0  0  0  0  0  0  0  0
    8.3994   -1.1669   21.8314 C   0  0  2  0  0  0  0  0  0  0  0  0
    6.7687    0.3288   18.2089 N   0  0  0  0  0  0  0  0  0  0  0  0
    6.5954   -4.5511   24.9105 N   0  0  0  0  0  0  0  0  0  0  0  0
    7.1580   -0.4135   21.7793 N   0  0  0  0  0  0  0  0  0  0  0  0
    5.8077   -6.1301   26.3852 O   0  0  0  0  0  0  0  0  0  0  0  0
    8.8491   -4.1886   26.5800 O   0  0  0  0  0  0  0  0  0  0  0  0
    3.2882    2.2458   19.3858 Br  0  0  0  0  0  0  0  0  0  0  0  0
   10.3932   -1.1127   23.6714 H   0  0  0  0  0  0  0  0  0  0  0  0
   10.5705   -2.4471   25.7380 H   0  0  0  0  0  0  0  0  0  0  0  0
    6.6414   -3.0085   22.7486 H   0  0  0  0  0  0  0  0  0  0  0  0
    4.9037    0.9693   21.5539 H   0  0  0  0  0  0  0  0  0  0  0  0
    8.1785   -0.6740   19.3220 H   0  0  0  0  0  0  0  0  0  0  0  0
    5.2542    1.3674   17.2885 H   0  0  0  0  0  0  0  0  0  0  0  0
    7.9337   -5.5923   27.7189 H   0  0  0  0  0  0  0  0  0  0  0  0
    8.6571   -6.1949   26.2244 H   0  0  0  0  0  0  0  0  0  0  0  0
    9.6902    0.4682   22.4699 H   0  0  0  0  0  0  0  0  0  0  0  0
   10.5281   -0.7751   21.5229 H   0  0  0  0  0  0  0  0  0  0  0  0
    9.4732    0.3816   20.7130 H   0  0  0  0  0  0  0  0  0  0  0  0
    8.3586   -1.8252   20.9457 H   0  0  0  0  0  0  0  0  0  0  0  0
    5.7489   -4.5712   24.3497 H   0  0  0  0  0  0  0  0  0  0  0  0
    6.6744   -0.2475   22.6499 H   0  0  0  0  0  0  0  0  0  0  0  0
  1  2  1  0  0  0  0
  1  7  2  0  0  0  0
  2 10  2  0  0  0  0
  3  7  1  0  0  0  0
  3  8  2  0  0  0  0
  4  9  2  0  0  0  0
  4 11  1  0  0  0  0
  5  9  1  0  0  0  0
  5 16  2  0  0  0  0
  6 11  2  0  0  0  0
  6 16  1  0  0  0  0
  7 15  1  0  0  0  0
  8 10  1  0  0  0  0
  8 17  1  0  0  0  0
  9 18  1  0  0  0  0
 10 20  1  0  0  0  0
 11 21  1  0  0  0  0
 12 13  1  0  0  0  0
 12 17  1  0  0  0  0
 12 19  2  0  0  0  0
 13 20  1  0  0  0  0
 14 15  1  0  0  0  0
 15 18  1  0  0  0  0
  1 22  1  0  0  0  0
  2 23  1  0  0  0  0
  3 24  1  0  0  0  0
  4 25  1  0  0  0  0
  5 26  1  0  0  0  0
  6 27  1  0  0  0  0
 13 28  1  0  0  0  0
 13 29  1  0  0  0  0
 14 30  1  0  0  0  0
 14 31  1  0  0  0  0
 14 32  1  0  0  0  0
 15 33  1  0  0  0  0
 17 34  1  0  0  0  0
 18 35  1  0  0  0  0
M  END
> <Hybrid2>
-9.575299

> <fragments>
x0107

> <site>
active-noncovalent

$$$$
top_hits_only_mpro-273_1
  -OEChem-03302021283D

 44 47  0     1  0  0  0  0  0999 V2000
    5.0265    1.1171   18.6592 C   0  0  0  0  0  0  0  0  0  0  0  0
    5.7558    0.9918   17.5426 C   0  0  0  0  0  0  0  0  0  0  0  0
    7.6799    0.1903   18.6976 C   0  0  0  0  0  0  0  0  0  0  0  0
    7.0906    0.2568   19.9002 C   0  0  0  0  0  0  0  0  0  0  0  0
    5.6723    0.7436   19.9560 C   0  0  0  0  0  0  0  0  0  0  0  0
    8.7035   -1.0629   21.1447 C   0  0  0  0  0  0  0  0  0  0  0  0
   13.5010   -1.7917   22.9280 C   0  0  0  0  0  0  0  0  0  0  0  0
   11.4653   -1.4720   21.4974 C   0  0  0  0  0  0  0  0  0  0  0  0
   11.2483   -1.5348   24.0011 C   0  0  0  0  0  0  0  0  0  0  0  0
   13.1630    0.3623   21.6921 C   0  0  0  0  0  0  0  0  0  0  0  0
   12.9446    0.3009   24.1900 C   0  0  0  0  0  0  0  0  0  0  0  0
   10.9063    0.6244   22.7639 C   0  0  0  0  0  0  0  0  0  0  0  0
   12.9667   -1.1603   21.6312 C   0  0  1  0  0  0  0  0  0  0  0  0
   12.7486   -1.2222   24.1426 C   0  0  2  0  0  0  0  0  0  0  0  0
   10.6831   -0.9040   22.7060 C   0  0  0  0  0  0  0  0  0  0  0  0
   12.4064    0.9411   22.8999 C   0  0  0  0  0  0  0  0  0  0  0  0
    9.1911   -1.2185   22.5691 C   0  0  0  0  0  0  0  0  0  0  0  0
    7.0477    0.5437   17.5363 N   0  0  0  0  0  0  0  0  0  0  0  0
    7.7120   -0.0931   21.0628 N   0  0  0  0  0  0  0  0  0  0  0  0
    5.0555    0.8371   21.0120 O   0  0  0  0  0  0  0  0  0  0  0  0
    9.1424   -1.7186   20.2031 O   0  0  0  0  0  0  0  0  0  0  0  0
   12.6035    2.3473   22.9377 O   0  0  0  0  0  0  0  0  0  0  0  0
    4.0044    1.4726   18.6582 H   0  0  0  0  0  0  0  0  0  0  0  0
    5.3672    1.2397   16.5629 H   0  0  0  0  0  0  0  0  0  0  0  0
    8.6991   -0.1478   18.5527 H   0  0  0  0  0  0  0  0  0  0  0  0
   13.3815   -2.8814   22.8910 H   0  0  0  0  0  0  0  0  0  0  0  0
   14.5753   -1.5920   23.0262 H   0  0  0  0  0  0  0  0  0  0  0  0
   11.0824   -1.0427   20.5625 H   0  0  0  0  0  0  0  0  0  0  0  0
   11.3198   -2.5577   21.4283 H   0  0  0  0  0  0  0  0  0  0  0  0
   11.0984   -2.6222   23.9899 H   0  0  0  0  0  0  0  0  0  0  0  0
   10.7084   -1.1514   24.8765 H   0  0  0  0  0  0  0  0  0  0  0  0
   14.2303    0.6091   21.7613 H   0  0  0  0  0  0  0  0  0  0  0  0
   12.8098    0.8319   20.7648 H   0  0  0  0  0  0  0  0  0  0  0  0
   12.4349    0.7248   25.0650 H   0  0  0  0  0  0  0  0  0  0  0  0
   14.0066    0.5471   24.3187 H   0  0  0  0  0  0  0  0  0  0  0  0
   10.5045    1.1103   21.8646 H   0  0  0  0  0  0  0  0  0  0  0  0
   10.3541    1.0646   23.6054 H   0  0  0  0  0  0  0  0  0  0  0  0
   13.5075   -1.5694   20.7707 H   0  0  0  0  0  0  0  0  0  0  0  0
   13.1353   -1.6743   25.0627 H   0  0  0  0  0  0  0  0  0  0  0  0
    9.0141   -2.2447   22.8968 H   0  0  0  0  0  0  0  0  0  0  0  0
    8.6261   -0.5439   23.2150 H   0  0  0  0  0  0  0  0  0  0  0  0
    7.5439    0.4713   16.6575 H   0  0  0  0  0  0  0  0  0  0  0  0
    7.4342    0.3824   21.9172 H   0  0  0  0  0  0  0  0  0  0  0  0
   12.1147    2.6790   23.7085 H   0  0  0  0  0  0  0  0  0  0  0  0
  1  2  2  0  0  0  0
  1  5  1  0  0  0  0
  2 18  1  0  0  0  0
  3  4  2  0  0  0  0
  3 18  1  0  0  0  0
  4  5  1  0  0  0  0
  4 19  1  0  0  0  0
  5 20  2  0  0  0  0
  6 17  1  0  0  0  0
  6 19  1  0  0  0  0
  6 21  2  0  0  0  0
  7 13  1  0  0  0  0
  7 14  1  0  0  0  0
  8 13  1  0  0  0  0
  8 15  1  0  0  0  0
  9 14  1  0  0  0  0
  9 15  1  0  0  0  0
 10 13  1  0  0  0  0
 10 16  1  0  0  0  0
 11 14  1  0  0  0  0
 11 16  1  0  0  0  0
 12 15  1  0  0  0  0
 12 16  1  0  0  0  0
 15 17  1  0  0  0  0
 16 22  1  0  0  0  0
  1 23  1  0  0  0  0
  2 24  1  0  0  0  0
  3 25  1  0  0  0  0
  7 26  1  0  0  0  0
  7 27  1  0  0  0  0
  8 28  1  0  0  0  0
  8 29  1  0  0  0  0
  9 30  1  0  0  0  0
  9 31  1  0  0  0  0
 10 32  1  0  0  0  0
 10 33  1  0  0  0  0
 11 34  1  0  0  0  0
 11 35  1  0  0  0  0
 12 36  1  0  0  0  0
 12 37  1  0  0  0  0
 13 38  1  0  0  0  0
 14 39  1  0  0  0  0
 17 40  1  0  0  0  0
 17 41  1  0  0  0  0
 18 42  1  0  0  0  0
 19 43  1  0  0  0  0
 22 44  1  0  0  0  0
M  END
> <Hybrid2>
-9.548907

> <fragments>
x1093

> <site>
active-noncovalent

$$$$
top_hits_only_mpro-152_1
  -OEChem-03302021283D

 45 48  0     1  0  0  0  0  0999 V2000
   14.1561    3.6157   21.6608 C   0  0  0  0  0  0  0  0  0  0  0  0
   13.9208    4.8878   22.1787 C   0  0  0  0  0  0  0  0  0  0  0  0
   13.3481    2.5328   22.0260 C   0  0  0  0  0  0  0  0  0  0  0  0
   12.8736    5.1185   23.0755 C   0  0  0  0  0  0  0  0  0  0  0  0
   12.5704   -1.0222   21.7894 C   0  0  0  0  0  0  0  0  0  0  0  0
   13.4720   -0.2754   23.8903 C   0  0  0  0  0  0  0  0  0  0  0  0
    8.4678   -3.7944   23.9466 C   0  0  0  0  0  0  0  0  0  0  0  0
    9.1551   -1.9521   25.3316 C   0  0  0  0  0  0  0  0  0  0  0  0
   13.7662   -1.6884   21.5745 C   0  0  0  0  0  0  0  0  0  0  0  0
   14.6273   -0.9752   23.5815 C   0  0  0  0  0  0  0  0  0  0  0  0
    9.1212   -3.1759   22.8929 C   0  0  0  0  0  0  0  0  0  0  0  0
   12.2864    2.7411   22.9287 C   0  0  0  0  0  0  0  0  0  0  0  0
   12.4285   -0.3046   22.9718 C   0  0  0  0  0  0  0  0  0  0  0  0
    8.4898   -3.1644   25.1859 C   0  0  0  0  0  0  0  0  0  0  0  0
   11.2941    1.8987   23.5036 C   0  0  0  0  0  0  0  0  0  0  0  0
   12.0741    4.0266   23.4316 C   0  0  0  0  0  0  0  0  0  0  0  0
   10.5134    2.6744   24.3292 C   0  0  0  0  0  0  0  0  0  0  0  0
    9.7779   -1.4162   24.2159 C   0  0  0  0  0  0  0  0  0  0  0  0
    7.8038   -3.7873   26.3537 C   0  0  0  0  0  0  0  0  0  0  0  0
    9.3509    2.3285   25.1702 C   0  0  0  0  0  0  0  0  0  0  0  0
   11.1307    0.4501   23.2606 C   0  0  2  0  0  0  0  0  0  0  0  0
   14.8020   -1.6833   22.4432 N   0  0  0  0  0  0  0  0  0  0  0  0
    9.7780   -1.9988   22.9960 N   0  0  0  0  0  0  0  0  0  0  0  0
   10.9914    3.9563   24.2790 N   0  0  0  0  0  0  0  0  0  0  0  0
   10.4260   -0.2242   24.3738 N   0  0  0  0  0  0  0  0  0  0  0  0
   14.9760    3.4616   20.9644 H   0  0  0  0  0  0  0  0  0  0  0  0
   14.5609    5.7144   21.8815 H   0  0  0  0  0  0  0  0  0  0  0  0
   13.5446    1.5476   21.6131 H   0  0  0  0  0  0  0  0  0  0  0  0
   12.6903    6.1093   23.4779 H   0  0  0  0  0  0  0  0  0  0  0  0
   11.7756   -1.0639   21.0522 H   0  0  0  0  0  0  0  0  0  0  0  0
   13.3913    0.2750   24.8213 H   0  0  0  0  0  0  0  0  0  0  0  0
    7.9574   -4.7403   23.8008 H   0  0  0  0  0  0  0  0  0  0  0  0
    9.1814   -1.4458   26.2918 H   0  0  0  0  0  0  0  0  0  0  0  0
   13.9274   -2.2614   20.6673 H   0  0  0  0  0  0  0  0  0  0  0  0
   15.4701   -0.9841   24.2648 H   0  0  0  0  0  0  0  0  0  0  0  0
    9.1330   -3.6264   21.9060 H   0  0  0  0  0  0  0  0  0  0  0  0
    8.4923   -4.4493   26.8934 H   0  0  0  0  0  0  0  0  0  0  0  0
    7.4348   -3.0253   27.0529 H   0  0  0  0  0  0  0  0  0  0  0  0
    6.9323   -4.3757   26.0373 H   0  0  0  0  0  0  0  0  0  0  0  0
    9.6676    2.0317   26.1835 H   0  0  0  0  0  0  0  0  0  0  0  0
    8.6482    3.1730   25.2728 H   0  0  0  0  0  0  0  0  0  0  0  0
    8.7655    1.4953   24.7447 H   0  0  0  0  0  0  0  0  0  0  0  0
   10.4507    0.2865   22.3990 H   0  0  0  0  0  0  0  0  0  0  0  0
   10.6078    4.7405   24.7886 H   0  0  0  0  0  0  0  0  0  0  0  0
   10.4491    0.2401   25.2562 H   0  0  0  0  0  0  0  0  0  0  0  0
  1  2  2  0  0  0  0
  1  3  1  0  0  0  0
  2  4  1  0  0  0  0
  3 12  2  0  0  0  0
  4 16  2  0  0  0  0
  5  9  2  0  0  0  0
  5 13  1  0  0  0  0
  6 10  1  0  0  0  0
  6 13  2  0  0  0  0
  7 11  2  0  0  0  0
  7 14  1  0  0  0  0
  8 14  2  0  0  0  0
  8 18  1  0  0  0  0
  9 22  1  0  0  0  0
 10 22  2  0  0  0  0
 11 23  1  0  0  0  0
 12 15  1  0  0  0  0
 12 16  1  0  0  0  0
 13 21  1  0  0  0  0
 14 19  1  0  0  0  0
 15 17  2  0  0  0  0
 15 21  1  0  0  0  0
 16 24  1  0  0  0  0
 17 20  1  0  0  0  0
 17 24  1  0  0  0  0
 18 23  2  0  0  0  0
 18 25  1  0  0  0  0
 21 25  1  0  0  0  0
  1 26  1  0  0  0  0
  2 27  1  0  0  0  0
  3 28  1  0  0  0  0
  4 29  1  0  0  0  0
  5 30  1  0  0  0  0
  6 31  1  0  0  0  0
  7 32  1  0  0  0  0
  8 33  1  0  0  0  0
  9 34  1  0  0  0  0
 10 35  1  0  0  0  0
 11 36  1  0  0  0  0
 19 37  1  0  0  0  0
 19 38  1  0  0  0  0
 19 39  1  0  0  0  0
 20 40  1  0  0  0  0
 20 41  1  0  0  0  0
 20 42  1  0  0  0  0
 21 43  1  0  0  0  0
 24 44  1  0  0  0  0
 25 45  1  0  0  0  0
M  END
> <Hybrid2>
-9.526740

> <fragments>
x0195

> <site>
active-noncovalent

$$$$
top_hits_only_mpro-326_1
  -OEChem-03302021283D

 43 45  0     1  0  0  0  0  0999 V2000
   14.4383   -1.9077   23.8467 C   0  0  0  0  0  0  0  0  0  0  0  0
   14.2830   -0.5757   24.2185 C   0  0  0  0  0  0  0  0  0  0  0  0
   13.4194   -2.5607   23.1547 C   0  0  0  0  0  0  0  0  0  0  0  0
   13.1085    0.1052   23.8982 C   0  0  0  0  0  0  0  0  0  0  0  0
   12.2289   -1.8899   22.8386 C   0  0  0  0  0  0  0  0  0  0  0  0
   12.0685   -0.5405   23.2075 C   0  0  0  0  0  0  0  0  0  0  0  0
    6.7232    0.3687   20.2275 C   0  0  0  0  0  0  0  0  0  0  0  0
    6.2525    0.5125   18.9086 C   0  0  0  0  0  0  0  0  0  0  0  0
    6.0378    1.3202   20.9424 C   0  0  0  0  0  0  0  0  0  0  0  0
   10.0380    0.6323   24.0956 C   0  0  0  0  0  0  0  0  0  0  0  0
    9.0769    0.0534   20.9951 C   0  0  0  0  0  0  0  0  0  0  0  0
   11.1651   -2.6049   22.0469 C   0  0  0  0  0  0  0  0  0  0  0  0
    9.7982   -1.9604   22.2315 C   0  0  0  0  0  0  0  0  0  0  0  0
   10.8035    0.2312   22.8674 C   0  0  2  0  0  0  0  0  0  0  0  0
    6.6513   -0.2584   17.7176 C   0  0  0  0  0  0  0  0  0  0  0  0
    6.0602    1.6932   22.3669 C   0  0  0  0  0  0  0  0  0  0  0  0
    7.7421   -0.6034   20.7426 C   0  0  0  0  0  0  0  0  0  0  0  0
    5.3384    1.4791   18.7898 N   0  0  0  0  0  0  0  0  0  0  0  0
    5.2293    1.9513   20.0433 N   0  0  0  0  0  0  0  0  0  0  0  0
    9.8820   -0.5190   21.9849 N   0  0  0  0  0  0  0  0  0  0  0  0
    8.9146    1.3790   23.8297 N   0  0  0  0  0  0  0  0  0  0  0  0
   10.3921    0.2981   25.2236 O   0  0  0  0  0  0  0  0  0  0  0  0
    9.3891    1.0513   20.3399 O   0  0  0  0  0  0  0  0  0  0  0  0
   15.3548   -2.4373   24.0896 H   0  0  0  0  0  0  0  0  0  0  0  0
   15.0778   -0.0646   24.7538 H   0  0  0  0  0  0  0  0  0  0  0  0
   13.5593   -3.5976   22.8592 H   0  0  0  0  0  0  0  0  0  0  0  0
   13.0059    1.1478   24.1898 H   0  0  0  0  0  0  0  0  0  0  0  0
   11.4467   -2.5905   20.9869 H   0  0  0  0  0  0  0  0  0  0  0  0
   11.1050   -3.6530   22.3632 H   0  0  0  0  0  0  0  0  0  0  0  0
    9.0736   -2.4335   21.5611 H   0  0  0  0  0  0  0  0  0  0  0  0
    9.4321   -2.1042   23.2551 H   0  0  0  0  0  0  0  0  0  0  0  0
   11.1159    1.1628   22.3517 H   0  0  0  0  0  0  0  0  0  0  0  0
    6.0141   -1.1493   17.5863 H   0  0  0  0  0  0  0  0  0  0  0  0
    6.5820    0.3400   16.7921 H   0  0  0  0  0  0  0  0  0  0  0  0
    7.6987   -0.6037   17.7769 H   0  0  0  0  0  0  0  0  0  0  0  0
    6.8131    2.4754   22.5645 H   0  0  0  0  0  0  0  0  0  0  0  0
    5.0839    2.0768   22.7131 H   0  0  0  0  0  0  0  0  0  0  0  0
    6.2951    0.8333   23.0195 H   0  0  0  0  0  0  0  0  0  0  0  0
    7.3958   -1.0545   21.6739 H   0  0  0  0  0  0  0  0  0  0  0  0
    7.8897   -1.4213   20.0361 H   0  0  0  0  0  0  0  0  0  0  0  0
    4.5820    2.7111   20.2137 H   0  0  0  0  0  0  0  0  0  0  0  0
    8.6920    1.5968   22.8640 H   0  0  0  0  0  0  0  0  0  0  0  0
    8.2992    1.7211   24.5605 H   0  0  0  0  0  0  0  0  0  0  0  0
  1  2  2  0  0  0  0
  1  3  1  0  0  0  0
  2  4  1  0  0  0  0
  3  5  2  0  0  0  0
  4  6  2  0  0  0  0
  5  6  1  0  0  0  0
  5 12  1  0  0  0  0
  6 14  1  0  0  0  0
  7  8  1  0  0  0  0
  7  9  2  0  0  0  0
  7 17  1  0  0  0  0
  8 15  1  0  0  0  0
  8 18  2  0  0  0  0
  9 16  1  0  0  0  0
  9 19  1  0  0  0  0
 10 14  1  0  0  0  0
 10 21  1  0  0  0  0
 10 22  2  0  0  0  0
 11 17  1  0  0  0  0
 11 20  1  0  0  0  0
 11 23  2  0  0  0  0
 12 13  1  0  0  0  0
 13 20  1  0  0  0  0
 14 20  1  0  0  0  0
 18 19  1  0  0  0  0
  1 24  1  0  0  0  0
  2 25  1  0  0  0  0
  3 26  1  0  0  0  0
  4 27  1  0  0  0  0
 12 28  1  0  0  0  0
 12 29  1  0  0  0  0
 13 30  1  0  0  0  0
 13 31  1  0  0  0  0
 14 32  1  0  0  0  0
 15 33  1  0  0  0  0
 15 34  1  0  0  0  0
 15 35  1  0  0  0  0
 16 36  1  0  0  0  0
 16 37  1  0  0  0  0
 16 38  1  0  0  0  0
 17 39  1  0  0  0  0
 17 40  1  0  0  0  0
 19 41  1  0  0  0  0
 21 42  1  0  0  0  0
 21 43  1  0  0  0  0
M  END
> <Hybrid2>
-9.493052

> <fragments>
x0678

> <site>
active-noncovalent

$$$$
top_hits_only_mpro-176_1
  -OEChem-03302021283D

 32 34  0     0  0  0  0  0  0999 V2000
    5.5732   -5.7879   22.1548 C   0  0  0  0  0  0  0  0  0  0  0  0
    6.1152   -5.3379   20.9560 C   0  0  0  0  0  0  0  0  0  0  0  0
   13.9357   -3.1037   25.9000 C   0  0  0  0  0  0  0  0  0  0  0  0
   14.5236   -1.8689   26.1890 C   0  0  0  0  0  0  0  0  0  0  0  0
    6.4094   -6.3011   23.1401 C   0  0  0  0  0  0  0  0  0  0  0  0
   12.4656   -0.6977   25.6502 C   0  0  0  0  0  0  0  0  0  0  0  0
   10.5519   -2.3113   24.9164 C   0  0  0  0  0  0  0  0  0  0  0  0
    7.4886   -5.4223   20.7931 C   0  0  0  0  0  0  0  0  0  0  0  0
   11.8517   -1.9307   25.3532 C   0  0  0  0  0  0  0  0  0  0  0  0
   12.5994   -3.1029   25.4846 C   0  0  0  0  0  0  0  0  0  0  0  0
   13.8018   -0.6832   26.0668 C   0  0  0  0  0  0  0  0  0  0  0  0
   10.5361   -3.6815   24.7931 C   0  0  0  0  0  0  0  0  0  0  0  0
    7.7695   -6.3425   22.8793 C   0  0  0  0  0  0  0  0  0  0  0  0
    9.4561   -4.5224   24.3837 C   0  0  0  0  0  0  0  0  0  0  0  0
    8.7020   -6.8906   23.9206 C   0  0  0  0  0  0  0  0  0  0  0  0
    8.3327   -5.9147   21.7272 N   0  0  0  0  0  0  0  0  0  0  0  0
   11.7754   -4.1499   25.1383 N   0  0  0  0  0  0  0  0  0  0  0  0
    9.6842   -5.9145   24.3346 N   0  0  0  0  0  0  0  0  0  0  0  0
    8.3402   -4.0457   24.0556 O   0  0  0  0  0  0  0  0  0  0  0  0
   14.5608    0.8194   26.4337 Cl  0  0  0  0  0  0  0  0  0  0  0  0
    4.5013   -5.7385   22.3208 H   0  0  0  0  0  0  0  0  0  0  0  0
    5.4826   -4.9340   20.1740 H   0  0  0  0  0  0  0  0  0  0  0  0
   14.4990   -4.0260   25.9949 H   0  0  0  0  0  0  0  0  0  0  0  0
   15.5621   -1.8503   26.5129 H   0  0  0  0  0  0  0  0  0  0  0  0
    5.9991   -6.6554   24.0797 H   0  0  0  0  0  0  0  0  0  0  0  0
   11.9015    0.2263   25.5540 H   0  0  0  0  0  0  0  0  0  0  0  0
    9.7197   -1.6498   24.7151 H   0  0  0  0  0  0  0  0  0  0  0  0
    7.9607   -5.0846   19.8764 H   0  0  0  0  0  0  0  0  0  0  0  0
    8.1453   -7.2068   24.8094 H   0  0  0  0  0  0  0  0  0  0  0  0
    9.2394   -7.7675   23.5444 H   0  0  0  0  0  0  0  0  0  0  0  0
   12.0495   -5.1229   25.1396 H   0  0  0  0  0  0  0  0  0  0  0  0
   10.6156   -6.2578   24.5454 H   0  0  0  0  0  0  0  0  0  0  0  0
  1  2  1  0  0  0  0
  1  5  2  0  0  0  0
  2  8  2  0  0  0  0
  3  4  2  0  0  0  0
  3 10  1  0  0  0  0
  4 11  1  0  0  0  0
  5 13  1  0  0  0  0
  6  9  1  0  0  0  0
  6 11  2  0  0  0  0
  7  9  1  0  0  0  0
  7 12  2  0  0  0  0
  8 16  1  0  0  0  0
  9 10  2  0  0  0  0
 10 17  1  0  0  0  0
 11 20  1  0  0  0  0
 12 14  1  0  0  0  0
 12 17  1  0  0  0  0
 13 15  1  0  0  0  0
 13 16  2  0  0  0  0
 14 18  1  0  0  0  0
 14 19  2  0  0  0  0
 15 18  1  0  0  0  0
  1 21  1  0  0  0  0
  2 22  1  0  0  0  0
  3 23  1  0  0  0  0
  4 24  1  0  0  0  0
  5 25  1  0  0  0  0
  6 26  1  0  0  0  0
  7 27  1  0  0  0  0
  8 28  1  0  0  0  0
 15 29  1  0  0  0  0
 15 30  1  0  0  0  0
 17 31  1  0  0  0  0
 18 32  1  0  0  0  0
M  END
> <Hybrid2>
-9.470964

> <fragments>
x0749

> <site>
active-covalent

$$$$
top_hits_only_mpro-199_1
  -OEChem-03302021283D

 26 27  0     0  0  0  0  0  0999 V2000
   14.6268   -1.1374   24.3284 C   0  0  0  0  0  0  0  0  0  0  0  0
   14.1616    0.1775   24.3179 C   0  0  0  0  0  0  0  0  0  0  0  0
   12.7591   -1.8093   22.9509 C   0  0  0  0  0  0  0  0  0  0  0  0
   12.2939   -0.4943   22.9404 C   0  0  0  0  0  0  0  0  0  0  0  0
   13.9256   -2.1308   23.6449 C   0  0  0  0  0  0  0  0  0  0  0  0
   12.9951    0.4991   23.6239 C   0  0  0  0  0  0  0  0  0  0  0  0
    8.2816    0.2877   21.7234 C   0  0  0  0  0  0  0  0  0  0  0  0
    9.1460   -0.3344   20.9166 C   0  0  0  0  0  0  0  0  0  0  0  0
    7.1225    0.9903   21.1206 C   0  0  0  0  0  0  0  0  0  0  0  0
    7.9609    0.2746   18.8939 C   0  0  0  0  0  0  0  0  0  0  0  0
   10.2898   -1.0276   21.5089 C   0  0  0  0  0  0  0  0  0  0  0  0
    9.0084   -0.3514   19.5552 N   0  0  0  0  0  0  0  0  0  0  0  0
    7.0545    0.9264   19.7352 N   0  0  0  0  0  0  0  0  0  0  0  0
   11.1083   -0.1713   22.2362 N   0  0  0  0  0  0  0  0  0  0  0  0
    6.3063    1.5745   21.8275 O   0  0  0  0  0  0  0  0  0  0  0  0
    7.8383    0.2588   17.6687 O   0  0  0  0  0  0  0  0  0  0  0  0
   10.4338   -2.2388   21.3326 O   0  0  0  0  0  0  0  0  0  0  0  0
   14.3716   -3.3938   23.6560 F   0  0  0  0  0  0  0  0  0  0  0  0
   12.5575    1.7663   23.6204 F   0  0  0  0  0  0  0  0  0  0  0  0
   15.5348   -1.3886   24.8686 H   0  0  0  0  0  0  0  0  0  0  0  0
   14.7076    0.9511   24.8498 H   0  0  0  0  0  0  0  0  0  0  0  0
   12.2204   -2.5922   22.4233 H   0  0  0  0  0  0  0  0  0  0  0  0
    8.3817    0.3070   22.8025 H   0  0  0  0  0  0  0  0  0  0  0  0
    9.7055   -0.8449   19.0053 H   0  0  0  0  0  0  0  0  0  0  0  0
    6.2716    1.3971   19.2901 H   0  0  0  0  0  0  0  0  0  0  0  0
   10.8371    0.8091   22.2779 H   0  0  0  0  0  0  0  0  0  0  0  0
  1  2  2  0  0  0  0
  1  5  1  0  0  0  0
  2  6  1  0  0  0  0
  3  4  1  0  0  0  0
  3  5  2  0  0  0  0
  4  6  2  0  0  0  0
  4 14  1  0  0  0  0
  5 18  1  0  0  0  0
  6 19  1  0  0  0  0
  7  8  2  0  0  0  0
  7  9  1  0  0  0  0
  8 11  1  0  0  0  0
  8 12  1  0  0  0  0
  9 13  1  0  0  0  0
  9 15  2  0  0  0  0
 10 12  1  0  0  0  0
 10 13  1  0  0  0  0
 10 16  2  0  0  0  0
 11 14  1  0  0  0  0
 11 17  2  0  0  0  0
  1 20  1  0  0  0  0
  2 21  1  0  0  0  0
  3 22  1  0  0  0  0
  7 23  1  0  0  0  0
 12 24  1  0  0  0  0
 13 25  1  0  0  0  0
 14 26  1  0  0  0  0
M  END
> <Hybrid2>
-9.468889

> <fragments>
x0678

> <site>
active-noncovalent

$$$$
top_hits_only_mpro-42_1
  -OEChem-03302021283D

 45 49  0     1  0  0  0  0  0999 V2000
    4.5060    1.2536   21.1037 C   0  0  0  0  0  0  0  0  0  0  0  0
    4.9934    1.0787   22.4001 C   0  0  0  0  0  0  0  0  0  0  0  0
    4.8410    1.0940   18.6801 C   0  0  0  0  0  0  0  0  0  0  0  0
    7.0808    0.2530   21.5103 C   0  0  0  0  0  0  0  0  0  0  0  0
    5.6861    0.7515   17.6357 C   0  0  0  0  0  0  0  0  0  0  0  0
    7.3611    0.1145   19.0722 C   0  0  0  0  0  0  0  0  0  0  0  0
    5.3008    0.9300   19.9919 C   0  0  0  0  0  0  0  0  0  0  0  0
    6.6007    0.4250   20.2014 C   0  0  0  0  0  0  0  0  0  0  0  0
    9.1569    0.7408   24.0740 C   0  0  0  0  0  0  0  0  0  0  0  0
    9.3309    2.1647   24.0214 C   0  0  0  0  0  0  0  0  0  0  0  0
    6.2779    0.5796   22.6029 C   0  0  0  0  0  0  0  0  0  0  0  0
   10.6644    2.5204   24.1019 C   0  0  0  0  0  0  0  0  0  0  0  0
    8.0297   -0.0877   24.0200 C   0  0  0  0  0  0  0  0  0  0  0  0
   10.3814    0.0955   24.2019 C   0  0  0  0  0  0  0  0  0  0  0  0
    9.4147   -1.9152   24.2178 C   0  0  0  0  0  0  0  0  0  0  0  0
    8.2477    3.1902   23.8678 C   0  0  0  0  0  0  0  0  0  0  0  0
   11.1870    3.9240   24.0974 C   0  0  0  0  0  0  0  0  0  0  0  0
    8.7380    4.6029   24.2224 C   0  0  0  0  0  0  0  0  0  0  0  0
   10.1105    4.9063   23.5848 C   0  0  1  0  0  0  0  0  0  0  0  0
    9.5279   -3.4015   24.2960 C   0  0  0  0  0  0  0  0  0  0  0  0
   10.5298    6.3489   23.8598 C   0  0  0  0  0  0  0  0  0  0  0  0
    6.9352    0.2656   17.7978 N   0  0  0  0  0  0  0  0  0  0  0  0
    8.1649   -1.4289   24.0939 N   0  0  0  0  0  0  0  0  0  0  0  0
   10.5732   -1.2357   24.2794 N   0  0  0  0  0  0  0  0  0  0  0  0
    6.7560    0.4080   23.8850 O   0  0  0  0  0  0  0  0  0  0  0  0
   11.6966    1.1769   24.2539 S   0  0  0  0  0  0  0  0  0  0  0  0
    3.4996    1.6444   20.9692 H   0  0  0  0  0  0  0  0  0  0  0  0
    4.3645    1.3352   23.2484 H   0  0  0  0  0  0  0  0  0  0  0  0
    3.8477    1.4788   18.4705 H   0  0  0  0  0  0  0  0  0  0  0  0
    8.0825   -0.1367   21.6800 H   0  0  0  0  0  0  0  0  0  0  0  0
    5.3661    0.8652   16.6050 H   0  0  0  0  0  0  0  0  0  0  0  0
    8.3702   -0.2780   19.1630 H   0  0  0  0  0  0  0  0  0  0  0  0
    7.8993    3.1771   22.8277 H   0  0  0  0  0  0  0  0  0  0  0  0
    7.3910    2.9441   24.5050 H   0  0  0  0  0  0  0  0  0  0  0  0
   11.4805    4.1898   25.1212 H   0  0  0  0  0  0  0  0  0  0  0  0
   12.0818    4.0029   23.4683 H   0  0  0  0  0  0  0  0  0  0  0  0
    7.9915    5.3345   23.8910 H   0  0  0  0  0  0  0  0  0  0  0  0
    8.8149    4.6986   25.3138 H   0  0  0  0  0  0  0  0  0  0  0  0
   10.0149    4.7828   22.4973 H   0  0  0  0  0  0  0  0  0  0  0  0
    9.6398   -3.8281   23.2922 H   0  0  0  0  0  0  0  0  0  0  0  0
   10.3921   -3.7027   24.9015 H   0  0  0  0  0  0  0  0  0  0  0  0
    8.6401   -3.8432   24.7660 H   0  0  0  0  0  0  0  0  0  0  0  0
   10.6337    6.5051   24.9323 H   0  0  0  0  0  0  0  0  0  0  0  0
    9.7768    7.0326   23.4712 H   0  0  0  0  0  0  0  0  0  0  0  0
   11.4829    6.5550   23.3753 H   0  0  0  0  0  0  0  0  0  0  0  0
  1  2  2  0  0  0  0
  1  7  1  0  0  0  0
  2 11  1  0  0  0  0
  3  5  1  0  0  0  0
  3  7  2  0  0  0  0
  4  8  1  0  0  0  0
  4 11  2  0  0  0  0
  5 22  2  0  0  0  0
  6  8  2  0  0  0  0
  6 22  1  0  0  0  0
  7  8  1  0  0  0  0
  9 10  1  0  0  0  0
  9 13  2  0  0  0  0
  9 14  1  0  0  0  0
 10 12  2  0  0  0  0
 10 16  1  0  0  0  0
 11 25  1  0  0  0  0
 12 17  1  0  0  0  0
 12 26  1  0  0  0  0
 13 23  1  0  0  0  0
 13 25  1  0  0  0  0
 14 24  2  0  0  0  0
 14 26  1  0  0  0  0
 15 20  1  0  0  0  0
 15 23  2  0  0  0  0
 15 24  1  0  0  0  0
 16 18  1  0  0  0  0
 17 19  1  0  0  0  0
 18 19  1  0  0  0  0
 19 21  1  0  0  0  0
  1 27  1  0  0  0  0
  2 28  1  0  0  0  0
  3 29  1  0  0  0  0
  4 30  1  0  0  0  0
  5 31  1  0  0  0  0
  6 32  1  0  0  0  0
 16 33  1  0  0  0  0
 16 34  1  0  0  0  0
 17 35  1  0  0  0  0
 17 36  1  0  0  0  0
 18 37  1  0  0  0  0
 18 38  1  0  0  0  0
 19 39  1  0  0  0  0
 20 40  1  0  0  0  0
 20 41  1  0  0  0  0
 20 42  1  0  0  0  0
 21 43  1  0  0  0  0
 21 44  1  0  0  0  0
 21 45  1  0  0  0  0
M  END
> <Hybrid2>
-9.460403

> <fragments>
x0107

> <site>
active-noncovalent

$$$$
top_hits_only_mpro-128_1
  -OEChem-03302021283D

 49 52  0     1  0  0  0  0  0999 V2000
    8.3035   -1.7600   27.5814 C   0  0  0  0  0  0  0  0  0  0  0  0
    8.6339   -2.6566   28.5956 C   0  0  0  0  0  0  0  0  0  0  0  0
    8.5157   -2.0887   26.2375 C   0  0  0  0  0  0  0  0  0  0  0  0
    9.1852   -3.9069   28.3010 C   0  0  0  0  0  0  0  0  0  0  0  0
    7.2122   -4.8945   22.9691 C   0  0  0  0  0  0  0  0  0  0  0  0
    7.3352   -2.7873   21.8163 C   0  0  0  0  0  0  0  0  0  0  0  0
   13.3551   -0.4053   23.2969 C   0  0  0  0  0  0  0  0  0  0  0  0
   11.1754   -0.6067   24.3191 C   0  0  0  0  0  0  0  0  0  0  0  0
   11.6638   -1.7930   22.2718 C   0  0  0  0  0  0  0  0  0  0  0  0
    5.9859   -5.0966   22.3567 C   0  0  0  0  0  0  0  0  0  0  0  0
    6.1034   -3.0838   21.2554 C   0  0  0  0  0  0  0  0  0  0  0  0
    9.0704   -3.3435   25.9162 C   0  0  0  0  0  0  0  0  0  0  0  0
    7.8933   -3.7153   22.6885 C   0  0  0  0  0  0  0  0  0  0  0  0
   12.4657   -0.0770   24.3200 C   0  0  0  0  0  0  0  0  0  0  0  0
   12.9542   -1.2632   22.2728 C   0  0  0  0  0  0  0  0  0  0  0  0
    9.4135   -3.9930   24.6974 C   0  0  0  0  0  0  0  0  0  0  0  0
    9.3917   -4.2219   26.9533 C   0  0  0  0  0  0  0  0  0  0  0  0
   10.7744   -1.4647   23.2950 C   0  0  0  0  0  0  0  0  0  0  0  0
    9.9271   -5.2299   25.0124 C   0  0  0  0  0  0  0  0  0  0  0  0
   12.8945    0.8404   25.4149 C   0  0  0  0  0  0  0  0  0  0  0  0
   13.9052   -1.6141   21.1789 C   0  0  0  0  0  0  0  0  0  0  0  0
   10.4387   -6.3146   24.1522 C   0  0  0  0  0  0  0  0  0  0  0  0
    9.2502   -3.4397   23.3368 C   0  0  2  0  0  0  0  0  0  0  0  0
    5.4119   -4.2185   21.5041 N   0  0  0  0  0  0  0  0  0  0  0  0
    9.9097   -5.3589   26.3753 N   0  0  0  0  0  0  0  0  0  0  0  0
    9.5108   -1.9834   23.2941 N   0  0  0  0  0  0  0  0  0  0  0  0
    7.8753   -0.7941   27.8355 H   0  0  0  0  0  0  0  0  0  0  0  0
    8.4607   -2.3805   29.6325 H   0  0  0  0  0  0  0  0  0  0  0  0
    8.2525   -1.3788   25.4588 H   0  0  0  0  0  0  0  0  0  0  0  0
    9.4416   -4.6050   29.0911 H   0  0  0  0  0  0  0  0  0  0  0  0
    7.6200   -5.6380   23.6457 H   0  0  0  0  0  0  0  0  0  0  0  0
    7.8422   -1.8587   21.5775 H   0  0  0  0  0  0  0  0  0  0  0  0
   14.3612    0.0077   23.2977 H   0  0  0  0  0  0  0  0  0  0  0  0
   10.4831   -0.3497   25.1178 H   0  0  0  0  0  0  0  0  0  0  0  0
   11.3529   -2.4619   21.4724 H   0  0  0  0  0  0  0  0  0  0  0  0
    5.4141   -5.9998   22.5434 H   0  0  0  0  0  0  0  0  0  0  0  0
    5.6255   -2.3928   20.5689 H   0  0  0  0  0  0  0  0  0  0  0  0
   12.6738    1.8815   25.1494 H   0  0  0  0  0  0  0  0  0  0  0  0
   12.3808    0.6050   26.3561 H   0  0  0  0  0  0  0  0  0  0  0  0
   13.9713    0.7518   25.6102 H   0  0  0  0  0  0  0  0  0  0  0  0
   14.4793   -2.5102   21.4447 H   0  0  0  0  0  0  0  0  0  0  0  0
   13.3755   -1.8070   20.2369 H   0  0  0  0  0  0  0  0  0  0  0  0
   14.6094   -0.7945   20.9850 H   0  0  0  0  0  0  0  0  0  0  0  0
   11.5203   -6.2019   23.9713 H   0  0  0  0  0  0  0  0  0  0  0  0
   10.2759   -7.3099   24.6000 H   0  0  0  0  0  0  0  0  0  0  0  0
    9.9353   -6.3366   23.1703 H   0  0  0  0  0  0  0  0  0  0  0  0
   10.0310   -3.8530   22.6653 H   0  0  0  0  0  0  0  0  0  0  0  0
   10.2297   -6.1699   26.8869 H   0  0  0  0  0  0  0  0  0  0  0  0
    8.7081   -1.3924   23.2629 H   0  0  0  0  0  0  0  0  0  0  0  0
  1  2  2  0  0  0  0
  1  3  1  0  0  0  0
  2  4  1  0  0  0  0
  3 12  2  0  0  0  0
  4 17  2  0  0  0  0
  5 10  2  0  0  0  0
  5 13  1  0  0  0  0
  6 11  1  0  0  0  0
  6 13  2  0  0  0  0
  7 14  2  0  0  0  0
  7 15  1  0  0  0  0
  8 14  1  0  0  0  0
  8 18  2  0  0  0  0
  9 15  2  0  0  0  0
  9 18  1  0  0  0  0
 10 24  1  0  0  0  0
 11 24  2  0  0  0  0
 12 16  1  0  0  0  0
 12 17  1  0  0  0  0
 13 23  1  0  0  0  0
 14 20  1  0  0  0  0
 15 21  1  0  0  0  0
 16 19  2  0  0  0  0
 16 23  1  0  0  0  0
 17 25  1  0  0  0  0
 18 26  1  0  0  0  0
 19 22  1  0  0  0  0
 19 25  1  0  0  0  0
 23 26  1  0  0  0  0
  1 27  1  0  0  0  0
  2 28  1  0  0  0  0
  3 29  1  0  0  0  0
  4 30  1  0  0  0  0
  5 31  1  0  0  0  0
  6 32  1  0  0  0  0
  7 33  1  0  0  0  0
  8 34  1  0  0  0  0
  9 35  1  0  0  0  0
 10 36  1  0  0  0  0
 11 37  1  0  0  0  0
 20 38  1  0  0  0  0
 20 39  1  0  0  0  0
 20 40  1  0  0  0  0
 21 41  1  0  0  0  0
 21 42  1  0  0  0  0
 21 43  1  0  0  0  0
 22 44  1  0  0  0  0
 22 45  1  0  0  0  0
 22 46  1  0  0  0  0
 23 47  1  0  0  0  0
 25 48  1  0  0  0  0
 26 49  1  0  0  0  0
M  END
> <Hybrid2>
-9.424191

> <fragments>
x0387

> <site>
active-noncovalent

$$$$
top_hits_only_mpro-67_1
  -OEChem-03302021283D

 35 37  0     1  0  0  0  0  0999 V2000
    6.4380    0.8300   19.3998 C   0  0  0  0  0  0  0  0  0  0  0  0
    8.2877   -0.6696   19.7379 C   0  0  0  0  0  0  0  0  0  0  0  0
   13.8048   -1.4872   21.5452 C   0  0  0  0  0  0  0  0  0  0  0  0
   11.4213    0.0161   23.7309 C   0  0  0  0  0  0  0  0  0  0  0  0
    6.6879    0.7453   18.0396 C   0  0  0  0  0  0  0  0  0  0  0  0
    8.4546   -0.6873   18.3625 C   0  0  0  0  0  0  0  0  0  0  0  0
   14.6829   -1.7039   22.5857 C   0  0  0  0  0  0  0  0  0  0  0  0
    7.2577    0.1060   20.2584 C   0  0  0  0  0  0  0  0  0  0  0  0
   12.6310   -0.8542   22.0310 C   0  0  0  0  0  0  0  0  0  0  0  0
   12.6469   -0.6167   23.3750 C   0  0  0  0  0  0  0  0  0  0  0  0
   10.7126    0.1310   22.5548 C   0  0  0  0  0  0  0  0  0  0  0  0
    9.4130    0.7014   22.3760 C   0  0  0  0  0  0  0  0  0  0  0  0
    6.4286    1.4924   22.2033 C   0  0  0  0  0  0  0  0  0  0  0  0
    8.2299   -1.2978   23.3434 C   0  0  0  0  0  0  0  0  0  0  0  0
    7.0303    0.1625   21.7536 C   0  0  2  0  0  0  0  0  0  0  0  0
    7.6786    0.0027   17.4969 N   0  0  0  0  0  0  0  0  0  0  0  0
   11.4413   -0.3950   21.5220 N   0  0  0  0  0  0  0  0  0  0  0  0
    8.2615   -0.1195   22.4884 N   0  0  0  0  0  0  0  0  0  0  0  0
    9.3387    1.9251   22.1362 O   0  0  0  0  0  0  0  0  0  0  0  0
   14.1143   -1.1614   24.1177 S   0  0  0  0  0  0  0  0  0  0  0  0
    5.6267    1.4451   19.7743 H   0  0  0  0  0  0  0  0  0  0  0  0
    8.9434   -1.2456   20.3818 H   0  0  0  0  0  0  0  0  0  0  0  0
   13.9955   -1.7638   20.5171 H   0  0  0  0  0  0  0  0  0  0  0  0
   11.1064    0.3408   24.7128 H   0  0  0  0  0  0  0  0  0  0  0  0
    6.0778    1.2919   17.3278 H   0  0  0  0  0  0  0  0  0  0  0  0
    9.2434   -1.2766   17.9068 H   0  0  0  0  0  0  0  0  0  0  0  0
   15.6582   -2.1664   22.5251 H   0  0  0  0  0  0  0  0  0  0  0  0
    7.0842    2.3304   21.9422 H   0  0  0  0  0  0  0  0  0  0  0  0
    5.4585    1.6574   21.7212 H   0  0  0  0  0  0  0  0  0  0  0  0
    6.2590    1.5206   23.2856 H   0  0  0  0  0  0  0  0  0  0  0  0
    7.8842   -1.0132   24.3481 H   0  0  0  0  0  0  0  0  0  0  0  0
    7.5419   -2.0422   22.9162 H   0  0  0  0  0  0  0  0  0  0  0  0
    9.2398   -1.7284   23.4115 H   0  0  0  0  0  0  0  0  0  0  0  0
    6.3322   -0.6332   22.0414 H   0  0  0  0  0  0  0  0  0  0  0  0
   11.1829   -0.4533   20.5447 H   0  0  0  0  0  0  0  0  0  0  0  0
  1  5  2  0  0  0  0
  1  8  1  0  0  0  0
  2  6  1  0  0  0  0
  2  8  2  0  0  0  0
  3  7  2  0  0  0  0
  3  9  1  0  0  0  0
  4 10  1  0  0  0  0
  4 11  2  0  0  0  0
  5 16  1  0  0  0  0
  6 16  2  0  0  0  0
  7 20  1  0  0  0  0
  8 15  1  0  0  0  0
  9 10  2  0  0  0  0
  9 17  1  0  0  0  0
 10 20  1  0  0  0  0
 11 12  1  0  0  0  0
 11 17  1  0  0  0  0
 12 18  1  0  0  0  0
 12 19  2  0  0  0  0
 13 15  1  0  0  0  0
 14 18  1  0  0  0  0
 15 18  1  0  0  0  0
  1 21  1  0  0  0  0
  2 22  1  0  0  0  0
  3 23  1  0  0  0  0
  4 24  1  0  0  0  0
  5 25  1  0  0  0  0
  6 26  1  0  0  0  0
  7 27  1  0  0  0  0
 13 28  1  0  0  0  0
 13 29  1  0  0  0  0
 13 30  1  0  0  0  0
 14 31  1  0  0  0  0
 14 32  1  0  0  0  0
 14 33  1  0  0  0  0
 15 34  1  0  0  0  0
 17 35  1  0  0  0  0
M  END
> <Hybrid2>
-9.396744

> <fragments>
x0678

> <site>
active-noncovalent

$$$$
top_hits_only_mpro-470_1
  -OEChem-03302021283D

 47 50  0     1  0  0  0  0  0999 V2000
    8.4944   -1.8295   24.9090 C   0  0  0  0  0  0  0  0  0  0  0  0
   14.0394   -1.5193   22.3837 C   0  0  0  0  0  0  0  0  0  0  0  0
    8.1156   -0.5143   25.1670 C   0  0  0  0  0  0  0  0  0  0  0  0
   14.3591   -0.1650   22.3237 C   0  0  0  0  0  0  0  0  0  0  0  0
    9.7327   -2.1152   24.3229 C   0  0  0  0  0  0  0  0  0  0  0  0
   12.8173   -1.9426   22.9181 C   0  0  0  0  0  0  0  0  0  0  0  0
    8.9596    0.5529   24.8487 C   0  0  0  0  0  0  0  0  0  0  0  0
   13.4704    0.8053   22.7944 C   0  0  0  0  0  0  0  0  0  0  0  0
   10.6023   -1.0548   23.9919 C   0  0  0  0  0  0  0  0  0  0  0  0
   11.9031   -0.9821   23.3995 C   0  0  0  0  0  0  0  0  0  0  0  0
   10.1945    0.2515   24.2628 C   0  0  0  0  0  0  0  0  0  0  0  0
   12.2522    0.3666   23.3258 C   0  0  0  0  0  0  0  0  0  0  0  0
    9.7464    5.5063   23.8755 C   0  0  0  0  0  0  0  0  0  0  0  0
   11.7322    5.9574   24.8940 C   0  0  0  0  0  0  0  0  0  0  0  0
    9.3955    6.2903   25.1423 C   0  0  0  0  0  0  0  0  0  0  0  0
    8.5485    5.4408   26.0805 C   0  0  0  0  0  0  0  0  0  0  0  0
    8.7246    7.6105   24.7861 C   0  0  0  0  0  0  0  0  0  0  0  0
   11.1742    2.5323   23.9595 C   0  0  0  0  0  0  0  0  0  0  0  0
   11.8059    4.6782   22.7363 C   0  0  0  0  0  0  0  0  0  0  0  0
   11.3506    3.2212   22.6005 C   0  0  2  0  0  0  0  0  0  0  0  0
   11.2062    1.0872   23.8522 N   0  0  0  0  0  0  0  0  0  0  0  0
   10.7199    6.5059   25.6830 N   0  0  0  0  0  0  0  0  0  0  0  0
   11.1126    5.3714   23.8137 N   0  0  0  0  0  0  0  0  0  0  0  0
    8.9204    5.0875   23.0741 O   0  0  0  0  0  0  0  0  0  0  0  0
   12.9302    6.0049   25.1415 O   0  0  0  0  0  0  0  0  0  0  0  0
   10.0884    3.2145   21.9292 O   0  0  0  0  0  0  0  0  0  0  0  0
    7.8224   -2.6442   25.1655 H   0  0  0  0  0  0  0  0  0  0  0  0
   14.7458   -2.2568   22.0120 H   0  0  0  0  0  0  0  0  0  0  0  0
    7.1492   -0.3134   25.6224 H   0  0  0  0  0  0  0  0  0  0  0  0
   15.3135    0.1434   21.9046 H   0  0  0  0  0  0  0  0  0  0  0  0
   10.0135   -3.1464   24.1282 H   0  0  0  0  0  0  0  0  0  0  0  0
   12.5829   -3.0026   22.9578 H   0  0  0  0  0  0  0  0  0  0  0  0
    8.6590    1.5755   25.0517 H   0  0  0  0  0  0  0  0  0  0  0  0
   13.7248    1.8589   22.7447 H   0  0  0  0  0  0  0  0  0  0  0  0
    8.3039    6.0075   26.9791 H   0  0  0  0  0  0  0  0  0  0  0  0
    9.0959    4.5426   26.3674 H   0  0  0  0  0  0  0  0  0  0  0  0
    7.6227    5.1471   25.5850 H   0  0  0  0  0  0  0  0  0  0  0  0
    8.4786    8.1613   25.6942 H   0  0  0  0  0  0  0  0  0  0  0  0
    7.8076    7.4242   24.2267 H   0  0  0  0  0  0  0  0  0  0  0  0
    9.3941    8.2167   24.1755 H   0  0  0  0  0  0  0  0  0  0  0  0
   10.2150    2.8036   24.4171 H   0  0  0  0  0  0  0  0  0  0  0  0
   11.9674    2.8081   24.6638 H   0  0  0  0  0  0  0  0  0  0  0  0
   12.8862    4.7111   22.9210 H   0  0  0  0  0  0  0  0  0  0  0  0
   11.6430    5.2106   21.7918 H   0  0  0  0  0  0  0  0  0  0  0  0
   12.0570    2.6626   21.9742 H   0  0  0  0  0  0  0  0  0  0  0  0
   10.8999    7.0035   26.5496 H   0  0  0  0  0  0  0  0  0  0  0  0
   10.2309    3.6542   21.0781 H   0  0  0  0  0  0  0  0  0  0  0  0
  1  3  1  0  0  0  0
  1  5  2  0  0  0  0
  2  4  2  0  0  0  0
  2  6  1  0  0  0  0
  3  7  2  0  0  0  0
  4  8  1  0  0  0  0
  5  9  1  0  0  0  0
  6 10  2  0  0  0  0
  7 11  1  0  0  0  0
  8 12  2  0  0  0  0
  9 10  1  0  0  0  0
  9 11  2  0  0  0  0
 10 12  1  0  0  0  0
 11 21  1  0  0  0  0
 12 21  1  0  0  0  0
 13 15  1  0  0  0  0
 13 23  1  0  0  0  0
 13 24  2  0  0  0  0
 14 22  1  0  0  0  0
 14 23  1  0  0  0  0
 14 25  2  0  0  0  0
 15 16  1  0  0  0  0
 15 17  1  0  0  0  0
 15 22  1  0  0  0  0
 18 20  1  0  0  0  0
 18 21  1  0  0  0  0
 19 20  1  0  0  0  0
 19 23  1  0  0  0  0
 20 26  1  0  0  0  0
  1 27  1  0  0  0  0
  2 28  1  0  0  0  0
  3 29  1  0  0  0  0
  4 30  1  0  0  0  0
  5 31  1  0  0  0  0
  6 32  1  0  0  0  0
  7 33  1  0  0  0  0
  8 34  1  0  0  0  0
 16 35  1  0  0  0  0
 16 36  1  0  0  0  0
 16 37  1  0  0  0  0
 17 38  1  0  0  0  0
 17 39  1  0  0  0  0
 17 40  1  0  0  0  0
 18 41  1  0  0  0  0
 18 42  1  0  0  0  0
 19 43  1  0  0  0  0
 19 44  1  0  0  0  0
 20 45  1  0  0  0  0
 22 46  1  0  0  0  0
 26 47  1  0  0  0  0
M  END
> <Hybrid2>
-9.386349

> <fragments>
x0195

> <site>
active-noncovalent

$$$$
top_hits_only_mpro-502_1
  -OEChem-03302021283D

 40 43  0     0  0  0  0  0  0999 V2000
   12.4504   -0.2718   24.4179 C   0  0  0  0  0  0  0  0  0  0  0  0
   11.4154   -1.1677   24.1563 C   0  0  0  0  0  0  0  0  0  0  0  0
   13.4697   -0.6612   25.2764 C   0  0  0  0  0  0  0  0  0  0  0  0
   11.2456   -4.5084   25.6230 C   0  0  0  0  0  0  0  0  0  0  0  0
   11.4622   -2.4243   24.7813 C   0  0  0  0  0  0  0  0  0  0  0  0
   10.6468   -3.5868   24.7913 C   0  0  0  0  0  0  0  0  0  0  0  0
   12.5432   -2.6830   25.6190 C   0  0  0  0  0  0  0  0  0  0  0  0
    7.1849   -0.4148   20.0696 C   0  0  0  0  0  0  0  0  0  0  0  0
    6.8890   -1.3625   21.1169 C   0  0  0  0  0  0  0  0  0  0  0  0
    8.2278   -4.0886   24.7092 C   0  0  0  0  0  0  0  0  0  0  0  0
    6.6861   -0.6074   18.8440 C   0  0  0  0  0  0  0  0  0  0  0  0
    9.3777   -3.8169   24.0602 C   0  0  0  0  0  0  0  0  0  0  0  0
    6.1198   -2.4374   20.8828 C   0  0  0  0  0  0  0  0  0  0  0  0
    5.5595   -2.6571   19.5106 C   0  0  0  0  0  0  0  0  0  0  0  0
    5.8657   -3.3571   22.0092 C   0  0  0  0  0  0  0  0  0  0  0  0
    6.9036   -4.3042   24.0307 C   0  0  0  0  0  0  0  0  0  0  0  0
    9.4023   -3.7258   22.5505 C   0  0  0  0  0  0  0  0  0  0  0  0
    8.1877   -4.4092   21.9246 C   0  0  0  0  0  0  0  0  0  0  0  0
   13.5663   -1.8557   25.9051 N   0  0  0  0  0  0  0  0  0  0  0  0
   12.3946   -3.9496   26.1197 N   0  0  0  0  0  0  0  0  0  0  0  0
    5.8966   -1.6955   18.5693 N   0  0  0  0  0  0  0  0  0  0  0  0
    6.9657   -3.9673   22.6062 N   0  0  0  0  0  0  0  0  0  0  0  0
    4.8536   -3.6317   19.2625 O   0  0  0  0  0  0  0  0  0  0  0  0
    4.6967   -3.5240   22.3607 O   0  0  0  0  0  0  0  0  0  0  0  0
   12.4593    0.7112   23.9591 H   0  0  0  0  0  0  0  0  0  0  0  0
   10.6033   -0.8928   23.4907 H   0  0  0  0  0  0  0  0  0  0  0  0
   14.2848    0.0247   25.4917 H   0  0  0  0  0  0  0  0  0  0  0  0
   10.9614   -5.5122   25.9092 H   0  0  0  0  0  0  0  0  0  0  0  0
    7.8099    0.4400   20.2992 H   0  0  0  0  0  0  0  0  0  0  0  0
    7.3161   -1.1605   22.0942 H   0  0  0  0  0  0  0  0  0  0  0  0
    8.2304   -4.1732   25.7909 H   0  0  0  0  0  0  0  0  0  0  0  0
    6.8738    0.0684   18.0195 H   0  0  0  0  0  0  0  0  0  0  0  0
    6.6237   -5.3485   24.1553 H   0  0  0  0  0  0  0  0  0  0  0  0
    6.1454   -3.6702   24.4904 H   0  0  0  0  0  0  0  0  0  0  0  0
    9.4046   -2.6757   22.2313 H   0  0  0  0  0  0  0  0  0  0  0  0
   10.3271   -4.1820   22.1754 H   0  0  0  0  0  0  0  0  0  0  0  0
    8.0874   -4.1337   20.8736 H   0  0  0  0  0  0  0  0  0  0  0  0
    8.3018   -5.4897   21.9787 H   0  0  0  0  0  0  0  0  0  0  0  0
   13.0344   -4.4025   26.7575 H   0  0  0  0  0  0  0  0  0  0  0  0
    5.5438   -1.7927   17.6217 H   0  0  0  0  0  0  0  0  0  0  0  0
  1  2  1  0  0  0  0
  1  3  2  0  0  0  0
  2  5  2  0  0  0  0
  3 19  1  0  0  0  0
  4  6  2  0  0  0  0
  4 20  1  0  0  0  0
  5  6  1  0  0  0  0
  5  7  1  0  0  0  0
  6 12  1  0  0  0  0
  7 19  2  0  0  0  0
  7 20  1  0  0  0  0
  8  9  1  0  0  0  0
  8 11  2  0  0  0  0
  9 13  2  0  0  0  0
 10 12  2  0  0  0  0
 10 16  1  0  0  0  0
 11 21  1  0  0  0  0
 12 17  1  0  0  0  0
 13 14  1  0  0  0  0
 13 15  1  0  0  0  0
 14 21  1  0  0  0  0
 14 23  2  0  0  0  0
 15 22  1  0  0  0  0
 15 24  2  0  0  0  0
 16 22  1  0  0  0  0
 17 18  1  0  0  0  0
 18 22  1  0  0  0  0
  1 25  1  0  0  0  0
  2 26  1  0  0  0  0
  3 27  1  0  0  0  0
  4 28  1  0  0  0  0
  8 29  1  0  0  0  0
  9 30  1  0  0  0  0
 10 31  1  0  0  0  0
 11 32  1  0  0  0  0
 16 33  1  0  0  0  0
 16 34  1  0  0  0  0
 17 35  1  0  0  0  0
 17 36  1  0  0  0  0
 18 37  1  0  0  0  0
 18 38  1  0  0  0  0
 20 39  1  0  0  0  0
 21 40  1  0  0  0  0
M  END
> <Hybrid2>
-9.317679

> <fragments>
x0749

> <site>
active-covalent

$$$$
top_hits_only_mpro-497_1
  -OEChem-03302021283D

 34 36  0     0  0  0  0  0  0999 V2000
   13.6549   -1.4067   21.8042 C   0  0  0  0  0  0  0  0  0  0  0  0
   14.4971   -1.7723   22.8538 C   0  0  0  0  0  0  0  0  0  0  0  0
   13.0969   -0.5590   24.4019 C   0  0  0  0  0  0  0  0  0  0  0  0
   12.5304   -0.6050   22.0428 C   0  0  0  0  0  0  0  0  0  0  0  0
   12.2374   -0.1915   23.3570 C   0  0  0  0  0  0  0  0  0  0  0  0
   14.2202   -1.3465   24.1505 C   0  0  0  0  0  0  0  0  0  0  0  0
    7.3701   -0.2829   20.9019 C   0  0  0  0  0  0  0  0  0  0  0  0
    6.5542   -0.1712   19.8446 C   0  0  0  0  0  0  0  0  0  0  0  0
    7.4614    2.1057   21.1942 C   0  0  0  0  0  0  0  0  0  0  0  0
    7.8409    0.8880   21.6009 C   0  0  0  0  0  0  0  0  0  0  0  0
    6.1257    1.1825   19.3826 C   0  0  0  0  0  0  0  0  0  0  0  0
    8.7397    0.7811   22.7672 C   0  0  0  0  0  0  0  0  0  0  0  0
   11.6160   -0.2406   20.8988 C   0  0  0  0  0  0  0  0  0  0  0  0
   11.0358    0.6726   23.6594 C   0  0  0  0  0  0  0  0  0  0  0  0
   10.7658    0.9814   21.2296 C   0  0  0  0  0  0  0  0  0  0  0  0
    6.6256    2.2498   20.1131 N   0  0  0  0  0  0  0  0  0  0  0  0
   10.1108    0.7881   22.5281 N   0  0  0  0  0  0  0  0  0  0  0  0
    5.3784    1.2997   18.4147 O   0  0  0  0  0  0  0  0  0  0  0  0
    8.2236    0.6831   23.8817 O   0  0  0  0  0  0  0  0  0  0  0  0
   15.0499   -1.6932   25.1723 O   0  0  0  0  0  0  0  0  0  0  0  0
   13.8787   -1.7527   20.7979 H   0  0  0  0  0  0  0  0  0  0  0  0
   15.3692   -2.3891   22.6528 H   0  0  0  0  0  0  0  0  0  0  0  0
   12.8911   -0.2249   25.4162 H   0  0  0  0  0  0  0  0  0  0  0  0
    7.6878   -1.2613   21.2459 H   0  0  0  0  0  0  0  0  0  0  0  0
    6.1900   -1.0382   19.3068 H   0  0  0  0  0  0  0  0  0  0  0  0
    7.7730    3.0282   21.6693 H   0  0  0  0  0  0  0  0  0  0  0  0
   12.2246   -0.0516   20.0032 H   0  0  0  0  0  0  0  0  0  0  0  0
   10.9478   -1.0830   20.6717 H   0  0  0  0  0  0  0  0  0  0  0  0
   10.4766    0.2377   24.4857 H   0  0  0  0  0  0  0  0  0  0  0  0
   11.3917    1.6630   23.9311 H   0  0  0  0  0  0  0  0  0  0  0  0
   11.3879    1.8742   21.2339 H   0  0  0  0  0  0  0  0  0  0  0  0
    9.9764    1.1221   20.4894 H   0  0  0  0  0  0  0  0  0  0  0  0
    6.3594    3.1895   19.8337 H   0  0  0  0  0  0  0  0  0  0  0  0
   14.7259   -1.3237   26.0092 H   0  0  0  0  0  0  0  0  0  0  0  0
  1  2  1  0  0  0  0
  1  4  2  0  0  0  0
  2  6  2  0  0  0  0
  3  5  2  0  0  0  0
  3  6  1  0  0  0  0
  4  5  1  0  0  0  0
  4 13  1  0  0  0  0
  5 14  1  0  0  0  0
  6 20  1  0  0  0  0
  7  8  2  0  0  0  0
  7 10  1  0  0  0  0
  8 11  1  0  0  0  0
  9 10  2  0  0  0  0
  9 16  1  0  0  0  0
 10 12  1  0  0  0  0
 11 16  1  0  0  0  0
 11 18  2  0  0  0  0
 12 17  1  0  0  0  0
 12 19  2  0  0  0  0
 13 15  1  0  0  0  0
 14 17  1  0  0  0  0
 15 17  1  0  0  0  0
  1 21  1  0  0  0  0
  2 22  1  0  0  0  0
  3 23  1  0  0  0  0
  7 24  1  0  0  0  0
  8 25  1  0  0  0  0
  9 26  1  0  0  0  0
 13 27  1  0  0  0  0
 13 28  1  0  0  0  0
 14 29  1  0  0  0  0
 14 30  1  0  0  0  0
 15 31  1  0  0  0  0
 15 32  1  0  0  0  0
 16 33  1  0  0  0  0
 20 34  1  0  0  0  0
M  END
> <Hybrid2>
-9.316737

> <fragments>
x0678

> <site>
active-noncovalent

$$$$
top_hits_only_mpro-437_1
  -OEChem-03302021283D

 52 57  0     1  0  0  0  0  0999 V2000
    6.1926    0.1206   18.6102 C   0  0  0  0  0  0  0  0  0  0  0  0
   14.3307   -1.5778   22.1977 C   0  0  0  0  0  0  0  0  0  0  0  0
    7.3496   -0.5146   19.0613 C   0  0  0  0  0  0  0  0  0  0  0  0
    5.8239    1.3571   19.1403 C   0  0  0  0  0  0  0  0  0  0  0  0
   13.3973   -2.1447   23.0600 C   0  0  0  0  0  0  0  0  0  0  0  0
    9.1971    6.9668   23.8950 C   0  0  0  0  0  0  0  0  0  0  0  0
    9.2102    5.8144   23.1171 C   0  0  0  0  0  0  0  0  0  0  0  0
   14.3730   -0.1949   22.0307 C   0  0  0  0  0  0  0  0  0  0  0  0
    8.1379    0.0866   20.0425 C   0  0  0  0  0  0  0  0  0  0  0  0
    6.6123    1.9583   20.1215 C   0  0  0  0  0  0  0  0  0  0  0  0
   12.4995   -1.3284   23.7497 C   0  0  0  0  0  0  0  0  0  0  0  0
    9.1474    6.8193   25.2718 C   0  0  0  0  0  0  0  0  0  0  0  0
    9.1253    4.5273   25.1152 C   0  0  0  0  0  0  0  0  0  0  0  0
    9.7065    1.4072   22.0755 C   0  0  0  0  0  0  0  0  0  0  0  0
    9.1737    4.5674   23.7311 C   0  0  0  0  0  0  0  0  0  0  0  0
   13.4697    0.6218   22.7243 C   0  0  0  0  0  0  0  0  0  0  0  0
   10.1442    2.3253   22.9985 C   0  0  0  0  0  0  0  0  0  0  0  0
    7.7693    1.3231   20.5726 C   0  0  0  0  0  0  0  0  0  0  0  0
   12.5154    0.0638   23.5825 C   0  0  0  0  0  0  0  0  0  0  0  0
    9.1855    3.3552   22.9523 C   0  0  0  0  0  0  0  0  0  0  0  0
   13.5599    2.0961   22.5865 C   0  0  0  0  0  0  0  0  0  0  0  0
   12.6354    5.0909   24.5145 C   0  0  0  0  0  0  0  0  0  0  0  0
   13.8833    5.0268   23.6855 C   0  0  0  0  0  0  0  0  0  0  0  0
   11.3890    2.2315   23.8643 C   0  0  1  0  0  0  0  0  0  0  0  0
   12.6469    4.2972   23.2368 C   0  0  0  0  0  0  0  0  0  0  0  0
    9.1110    5.6250   25.9042 N   0  0  0  0  0  0  0  0  0  0  0  0
    8.2124    3.1146   22.0696 N   0  0  0  0  0  0  0  0  0  0  0  0
    8.5573    1.9230   21.5526 N   0  0  0  0  0  0  0  0  0  0  0  0
   11.6116    0.8556   24.2661 N   0  0  0  0  0  0  0  0  0  0  0  0
   12.5809    2.8396   23.2508 N   0  0  0  0  0  0  0  0  0  0  0  0
   14.4845    2.5783   21.9366 O   0  0  0  0  0  0  0  0  0  0  0  0
    5.5794   -0.3462   17.8451 H   0  0  0  0  0  0  0  0  0  0  0  0
   15.0311   -2.2119   21.6621 H   0  0  0  0  0  0  0  0  0  0  0  0
    7.6375   -1.4767   18.6478 H   0  0  0  0  0  0  0  0  0  0  0  0
    4.9236    1.8518   18.7875 H   0  0  0  0  0  0  0  0  0  0  0  0
   13.3674   -3.2215   23.1978 H   0  0  0  0  0  0  0  0  0  0  0  0
    9.2243    7.9493   23.4379 H   0  0  0  0  0  0  0  0  0  0  0  0
    9.2491    5.9042   22.0344 H   0  0  0  0  0  0  0  0  0  0  0  0
   15.1194    0.2276   21.3635 H   0  0  0  0  0  0  0  0  0  0  0  0
    9.0377   -0.4189   20.3847 H   0  0  0  0  0  0  0  0  0  0  0  0
    6.3137    2.9226   20.5255 H   0  0  0  0  0  0  0  0  0  0  0  0
   11.7752   -1.7911   24.4169 H   0  0  0  0  0  0  0  0  0  0  0  0
    9.1349    7.6875   25.9223 H   0  0  0  0  0  0  0  0  0  0  0  0
    9.0947    3.5854   25.6557 H   0  0  0  0  0  0  0  0  0  0  0  0
   10.1104    0.4552   21.7569 H   0  0  0  0  0  0  0  0  0  0  0  0
   12.6285    4.5548   25.4557 H   0  0  0  0  0  0  0  0  0  0  0  0
   12.0830    6.0225   24.5243 H   0  0  0  0  0  0  0  0  0  0  0  0
   14.1715    5.9151   23.1370 H   0  0  0  0  0  0  0  0  0  0  0  0
   14.7138    4.4476   24.0704 H   0  0  0  0  0  0  0  0  0  0  0  0
   11.1654    2.7788   24.7993 H   0  0  0  0  0  0  0  0  0  0  0  0
   12.1100    4.7220   22.3955 H   0  0  0  0  0  0  0  0  0  0  0  0
   10.9306    0.4093   24.8698 H   0  0  0  0  0  0  0  0  0  0  0  0
  1  3  1  0  0  0  0
  1  4  2  0  0  0  0
  2  5  2  0  0  0  0
  2  8  1  0  0  0  0
  3  9  2  0  0  0  0
  4 10  1  0  0  0  0
  5 11  1  0  0  0  0
  6  7  2  0  0  0  0
  6 12  1  0  0  0  0
  7 15  1  0  0  0  0
  8 16  2  0  0  0  0
  9 18  1  0  0  0  0
 10 18  2  0  0  0  0
 11 19  2  0  0  0  0
 12 26  2  0  0  0  0
 13 15  2  0  0  0  0
 13 26  1  0  0  0  0
 14 17  2  0  0  0  0
 14 28  1  0  0  0  0
 15 20  1  0  0  0  0
 16 19  1  0  0  0  0
 16 21  1  0  0  0  0
 17 20  1  0  0  0  0
 17 24  1  0  0  0  0
 18 28  1  0  0  0  0
 19 29  1  0  0  0  0
 20 27  2  0  0  0  0
 21 30  1  0  0  0  0
 21 31  2  0  0  0  0
 22 23  1  0  0  0  0
 22 25  1  0  0  0  0
 23 25  1  0  0  0  0
 24 29  1  0  0  0  0
 24 30  1  0  0  0  0
 25 30  1  0  0  0  0
 27 28  1  0  0  0  0
  1 32  1  0  0  0  0
  2 33  1  0  0  0  0
  3 34  1  0  0  0  0
  4 35  1  0  0  0  0
  5 36  1  0  0  0  0
  6 37  1  0  0  0  0
  7 38  1  0  0  0  0
  8 39  1  0  0  0  0
  9 40  1  0  0  0  0
 10 41  1  0  0  0  0
 11 42  1  0  0  0  0
 12 43  1  0  0  0  0
 13 44  1  0  0  0  0
 14 45  1  0  0  0  0
 22 46  1  0  0  0  0
 22 47  1  0  0  0  0
 23 48  1  0  0  0  0
 23 49  1  0  0  0  0
 24 50  1  0  0  0  0
 25 51  1  0  0  0  0
 29 52  1  0  0  0  0
M  END
> <Hybrid2>
-9.296044

> <fragments>
x0195

> <site>
active-noncovalent

$$$$
top_hits_only_mpro-70_1
  -OEChem-03302021283D

 36 36  0     1  0  0  0  0  0999 V2000
    6.3644   -0.0713   19.6404 C   0  0  0  0  0  0  0  0  0  0  0  0
    7.4192    0.0176   20.5420 C   0  0  0  0  0  0  0  0  0  0  0  0
    6.6586    0.0051   18.2886 C   0  0  0  0  0  0  0  0  0  0  0  0
    8.9064    0.2429   18.6999 C   0  0  0  0  0  0  0  0  0  0  0  0
    8.7175    0.1779   20.0710 C   0  0  0  0  0  0  0  0  0  0  0  0
    9.8534    0.2752   21.0014 C   0  0  0  0  0  0  0  0  0  0  0  0
   10.2478    0.5851   23.8393 C   0  0  0  0  0  0  0  0  0  0  0  0
   12.6286   -2.4233   23.1707 C   0  0  0  0  0  0  0  0  0  0  0  0
   12.8270   -0.3198   21.8325 C   0  0  0  0  0  0  0  0  0  0  0  0
   12.9130   -0.2184   24.3196 C   0  0  0  0  0  0  0  0  0  0  0  0
    9.7082   -2.1487   21.4229 C   0  0  0  0  0  0  0  0  0  0  0  0
   10.6968   -0.7192   23.1773 C   0  0  2  0  0  0  0  0  0  0  0  0
   12.2450   -0.9319   23.1231 C   0  0  0  0  0  0  0  0  0  0  0  0
    7.9069    0.1605   17.7933 N   0  0  0  0  0  0  0  0  0  0  0  0
   10.0920   -0.8090   21.8643 N   0  0  0  0  0  0  0  0  0  0  0  0
   10.5200    1.3077   20.9406 O   0  0  0  0  0  0  0  0  0  0  0  0
    5.3443   -0.1970   19.9846 H   0  0  0  0  0  0  0  0  0  0  0  0
    7.2184   -0.0384   21.6086 H   0  0  0  0  0  0  0  0  0  0  0  0
    5.8713   -0.0585   17.5448 H   0  0  0  0  0  0  0  0  0  0  0  0
    9.8969    0.3666   18.2724 H   0  0  0  0  0  0  0  0  0  0  0  0
   10.6626    1.4461   23.3018 H   0  0  0  0  0  0  0  0  0  0  0  0
   10.5974    0.6589   24.8741 H   0  0  0  0  0  0  0  0  0  0  0  0
    9.1598    0.6926   23.8300 H   0  0  0  0  0  0  0  0  0  0  0  0
   12.2398   -2.9115   24.0704 H   0  0  0  0  0  0  0  0  0  0  0  0
   12.2488   -2.9675   22.2999 H   0  0  0  0  0  0  0  0  0  0  0  0
   13.7180   -2.5468   23.1783 H   0  0  0  0  0  0  0  0  0  0  0  0
   12.5791    0.7446   21.7541 H   0  0  0  0  0  0  0  0  0  0  0  0
   12.4496   -0.8232   20.9365 H   0  0  0  0  0  0  0  0  0  0  0  0
   13.9196   -0.4078   21.8113 H   0  0  0  0  0  0  0  0  0  0  0  0
   12.6753    0.8506   24.3389 H   0  0  0  0  0  0  0  0  0  0  0  0
   14.0033   -0.3214   24.2813 H   0  0  0  0  0  0  0  0  0  0  0  0
   12.5738   -0.6415   25.2724 H   0  0  0  0  0  0  0  0  0  0  0  0
   10.5499   -2.6148   20.8898 H   0  0  0  0  0  0  0  0  0  0  0  0
    9.4440   -2.7611   22.2976 H   0  0  0  0  0  0  0  0  0  0  0  0
    8.8414   -2.0783   20.7493 H   0  0  0  0  0  0  0  0  0  0  0  0
   10.2556   -1.5437   23.7524 H   0  0  0  0  0  0  0  0  0  0  0  0
  1  2  2  0  0  0  0
  1  3  1  0  0  0  0
  2  5  1  0  0  0  0
  3 14  2  0  0  0  0
  4  5  2  0  0  0  0
  4 14  1  0  0  0  0
  5  6  1  0  0  0  0
  6 15  1  0  0  0  0
  6 16  2  0  0  0  0
  7 12  1  0  0  0  0
  8 13  1  0  0  0  0
  9 13  1  0  0  0  0
 10 13  1  0  0  0  0
 11 15  1  0  0  0  0
 12 13  1  0  0  0  0
 12 15  1  0  0  0  0
  1 17  1  0  0  0  0
  2 18  1  0  0  0  0
  3 19  1  0  0  0  0
  4 20  1  0  0  0  0
  7 21  1  0  0  0  0
  7 22  1  0  0  0  0
  7 23  1  0  0  0  0
  8 24  1  0  0  0  0
  8 25  1  0  0  0  0
  8 26  1  0  0  0  0
  9 27  1  0  0  0  0
  9 28  1  0  0  0  0
  9 29  1  0  0  0  0
 10 30  1  0  0  0  0
 10 31  1  0  0  0  0
 10 32  1  0  0  0  0
 11 33  1  0  0  0  0
 11 34  1  0  0  0  0
 11 35  1  0  0  0  0
 12 36  1  0  0  0  0
M  END
> <Hybrid2>
-9.278099

> <fragments>
x0678

> <site>
active-noncovalent

$$$$
-11.869671821594238_1
  -OEChem-03302021283D

 37 39  0     0  0  0  0  0  0999 V2000
   12.9114    1.2992   23.3266 C   0  0  0  0  0  0  0  0  0  0  0  0
    8.6619   -3.1529   25.4274 C   0  0  0  0  0  0  0  0  0  0  0  0
   12.7233   -0.0243   22.9286 C   0  0  0  0  0  0  0  0  0  0  0  0
   11.9143    2.2462   23.0927 C   0  0  0  0  0  0  0  0  0  0  0  0
    8.6370   -1.7615   25.5217 C   0  0  0  0  0  0  0  0  0  0  0  0
    8.6212   -3.7680   24.1760 C   0  0  0  0  0  0  0  0  0  0  0  0
   11.5383   -0.4009   22.2966 C   0  0  0  0  0  0  0  0  0  0  0  0
   10.7292    1.8697   22.4607 C   0  0  0  0  0  0  0  0  0  0  0  0
    8.5712   -0.9851   24.3648 C   0  0  0  0  0  0  0  0  0  0  0  0
    8.5554   -2.9916   23.0191 C   0  0  0  0  0  0  0  0  0  0  0  0
   10.5412    0.5461   22.0626 C   0  0  0  0  0  0  0  0  0  0  0  0
    8.5304   -1.6001   23.1135 C   0  0  0  0  0  0  0  0  0  0  0  0
    9.3211    0.1587   21.4118 C   0  0  0  0  0  0  0  0  0  0  0  0
    8.4633   -0.7963   21.9160 C   0  0  0  0  0  0  0  0  0  0  0  0
    7.7971    0.2190   19.8357 C   0  0  0  0  0  0  0  0  0  0  0  0
    5.7192    0.3311   18.4591 C   0  0  0  0  0  0  0  0  0  0  0  0
    4.9010    1.4196   19.1295 C   0  0  0  0  0  0  0  0  0  0  0  0
    8.9409    0.7417   20.2187 N   0  0  0  0  0  0  0  0  0  0  0  0
    7.1382    0.5678   18.6989 N   0  0  0  0  0  0  0  0  0  0  0  0
    5.1261    1.3827   20.5330 O   0  0  0  0  0  0  0  0  0  0  0  0
    7.1221   -0.9786   20.8629 S   0  0  0  0  0  0  0  0  0  0  0  0
   13.8336    1.5924   23.8197 H   0  0  0  0  0  0  0  0  0  0  0  0
    8.7137   -3.7574   26.3282 H   0  0  0  0  0  0  0  0  0  0  0  0
   13.4990   -0.7621   23.1117 H   0  0  0  0  0  0  0  0  0  0  0  0
   12.0604    3.2764   23.4039 H   0  0  0  0  0  0  0  0  0  0  0  0
    8.6685   -1.2828   26.4962 H   0  0  0  0  0  0  0  0  0  0  0  0
    8.6417   -4.8514   24.1025 H   0  0  0  0  0  0  0  0  0  0  0  0
   11.4067   -1.4367   21.9922 H   0  0  0  0  0  0  0  0  0  0  0  0
    9.9615    2.6199   22.2856 H   0  0  0  0  0  0  0  0  0  0  0  0
    8.5552    0.0984   24.4549 H   0  0  0  0  0  0  0  0  0  0  0  0
    8.5232   -3.4861   22.0512 H   0  0  0  0  0  0  0  0  0  0  0  0
    5.4646   -0.6573   18.8547 H   0  0  0  0  0  0  0  0  0  0  0  0
    5.5500    0.3387   17.3781 H   0  0  0  0  0  0  0  0  0  0  0  0
    3.8344    1.2487   18.9538 H   0  0  0  0  0  0  0  0  0  0  0  0
    5.1697    2.4130   18.7557 H   0  0  0  0  0  0  0  0  0  0  0  0
    7.6510    1.0304   17.9393 H   0  0  0  0  0  0  0  0  0  0  0  0
    4.5873    2.0908   20.9211 H   0  0  0  0  0  0  0  0  0  0  0  0
  1  3  1  0  0  0  0
  1  4  2  0  0  0  0
  2  5  1  0  0  0  0
  2  6  2  0  0  0  0
  3  7  2  0  0  0  0
  4  8  1  0  0  0  0
  5  9  2  0  0  0  0
  6 10  1  0  0  0  0
  7 11  1  0  0  0  0
  8 11  2  0  0  0  0
  9 12  1  0  0  0  0
 10 12  2  0  0  0  0
 11 13  1  0  0  0  0
 12 14  1  0  0  0  0
 13 14  2  0  0  0  0
 13 18  1  0  0  0  0
 14 21  1  0  0  0  0
 15 18  2  0  0  0  0
 15 19  1  0  0  0  0
 15 21  1  0  0  0  0
 16 17  1  0  0  0  0
 16 19  1  0  0  0  0
 17 20  1  0  0  0  0
  1 22  1  0  0  0  0
  2 23  1  0  0  0  0
  3 24  1  0  0  0  0
  4 25  1  0  0  0  0
  5 26  1  0  0  0  0
  6 27  1  0  0  0  0
  7 28  1  0  0  0  0
  8 29  1  0  0  0  0
  9 30  1  0  0  0  0
 10 31  1  0  0  0  0
 16 32  1  0  0  0  0
 16 33  1  0  0  0  0
 17 34  1  0  0  0  0
 17 35  1  0  0  0  0
 19 36  1  0  0  0  0
 20 37  1  0  0  0  0
M  END
> <Hybrid2>
-9.277067

> <fragments>
x0434

> <site>
active-noncovalent

$$$$
top_hits_only_mpro-22_1
  -OEChem-03302021283D

 37 39  0     1  0  0  0  0  0999 V2000
   14.0697   -2.1840   22.4415 C   0  0  0  0  0  0  0  0  0  0  0  0
   14.7805   -1.1208   21.9034 C   0  0  0  0  0  0  0  0  0  0  0  0
   12.8922   -1.9388   23.1416 C   0  0  0  0  0  0  0  0  0  0  0  0
   14.3165    0.1871   22.0651 C   0  0  0  0  0  0  0  0  0  0  0  0
   12.0508    4.9551   23.4057 C   0  0  0  0  0  0  0  0  0  0  0  0
   12.3988   -0.6311   23.2990 C   0  0  0  0  0  0  0  0  0  0  0  0
   13.1232    0.4554   22.7584 C   0  0  0  0  0  0  0  0  0  0  0  0
   13.1325    4.2227   22.8969 C   0  0  0  0  0  0  0  0  0  0  0  0
   13.1342    2.8998   22.2430 C   0  0  0  0  0  0  0  0  0  0  0  0
   11.6130    1.9512   24.0187 C   0  0  0  0  0  0  0  0  0  0  0  0
   10.5654    0.8426   23.9648 C   0  0  2  0  0  0  0  0  0  0  0  0
    8.8884    2.3148   25.1152 C   0  0  0  0  0  0  0  0  0  0  0  0
    8.5657   -0.1749   25.0910 C   0  0  0  0  0  0  0  0  0  0  0  0
    9.5899    0.9578   25.1315 C   0  0  0  0  0  0  0  0  0  0  0  0
   12.4861    6.1101   23.9168 N   0  0  0  0  0  0  0  0  0  0  0  0
   14.2667    4.9050   23.0780 N   0  0  0  0  0  0  0  0  0  0  0  0
   13.8052    6.0092   23.6866 N   0  0  0  0  0  0  0  0  0  0  0  0
   11.2180   -0.4472   24.0089 N   0  0  0  0  0  0  0  0  0  0  0  0
   12.6479    1.8008   22.9763 N   0  0  0  0  0  0  0  0  0  0  0  0
   13.5586    2.8854   21.0887 O   0  0  0  0  0  0  0  0  0  0  0  0
   14.4338   -3.2002   22.3244 H   0  0  0  0  0  0  0  0  0  0  0  0
   15.7090   -1.3033   21.3699 H   0  0  0  0  0  0  0  0  0  0  0  0
   12.3480   -2.7818   23.5629 H   0  0  0  0  0  0  0  0  0  0  0  0
   14.9505    0.9715   21.6685 H   0  0  0  0  0  0  0  0  0  0  0  0
   10.9975    4.7174   23.4311 H   0  0  0  0  0  0  0  0  0  0  0  0
   11.0992    2.9126   23.9188 H   0  0  0  0  0  0  0  0  0  0  0  0
   12.1324    1.9642   24.9863 H   0  0  0  0  0  0  0  0  0  0  0  0
    9.9998    0.9247   23.0278 H   0  0  0  0  0  0  0  0  0  0  0  0
    8.3047    2.4502   24.1982 H   0  0  0  0  0  0  0  0  0  0  0  0
    9.6178    3.1294   25.1755 H   0  0  0  0  0  0  0  0  0  0  0  0
    8.2074    2.4116   25.9674 H   0  0  0  0  0  0  0  0  0  0  0  0
    7.9690   -0.1395   24.1731 H   0  0  0  0  0  0  0  0  0  0  0  0
    7.8805   -0.1115   25.9431 H   0  0  0  0  0  0  0  0  0  0  0  0
    9.0632   -1.1496   25.1339 H   0  0  0  0  0  0  0  0  0  0  0  0
   10.1572    0.8751   26.0672 H   0  0  0  0  0  0  0  0  0  0  0  0
   14.4387    6.7490   23.9684 H   0  0  0  0  0  0  0  0  0  0  0  0
   10.6913   -1.2633   24.2983 H   0  0  0  0  0  0  0  0  0  0  0  0
  1  2  1  0  0  0  0
  1  3  2  0  0  0  0
  2  4  2  0  0  0  0
  3  6  1  0  0  0  0
  4  7  1  0  0  0  0
  5  8  1  0  0  0  0
  5 15  2  0  0  0  0
  6  7  2  0  0  0  0
  6 18  1  0  0  0  0
  7 19  1  0  0  0  0
  8  9  1  0  0  0  0
  8 16  2  0  0  0  0
  9 19  1  0  0  0  0
  9 20  2  0  0  0  0
 10 11  1  0  0  0  0
 10 19  1  0  0  0  0
 11 14  1  0  0  0  0
 11 18  1  0  0  0  0
 12 14  1  0  0  0  0
 13 14  1  0  0  0  0
 15 17  1  0  0  0  0
 16 17  1  0  0  0  0
  1 21  1  0  0  0  0
  2 22  1  0  0  0  0
  3 23  1  0  0  0  0
  4 24  1  0  0  0  0
  5 25  1  0  0  0  0
 10 26  1  0  0  0  0
 10 27  1  0  0  0  0
 11 28  1  0  0  0  0
 12 29  1  0  0  0  0
 12 30  1  0  0  0  0
 12 31  1  0  0  0  0
 13 32  1  0  0  0  0
 13 33  1  0  0  0  0
 13 34  1  0  0  0  0
 14 35  1  0  0  0  0
 17 36  1  0  0  0  0
 18 37  1  0  0  0  0
M  END
> <Hybrid2>
-9.272016

> <fragments>
x0195

> <site>
active-noncovalent

$$$$
top_hits_only_mpro-194_1
  -OEChem-03302021283D

 26 27  0     0  0  0  0  0  0999 V2000
   11.3485    0.3498   24.1420 C   0  0  0  0  0  0  0  0  0  0  0  0
   12.2272   -0.8622   22.2596 C   0  0  0  0  0  0  0  0  0  0  0  0
   11.8147    5.8533   24.6161 C   0  0  0  0  0  0  0  0  0  0  0  0
   10.7480   -0.8295   24.5523 C   0  0  0  0  0  0  0  0  0  0  0  0
   11.5875   -1.9873   22.7543 C   0  0  0  0  0  0  0  0  0  0  0  0
   10.1336    6.6090   23.3228 C   0  0  0  0  0  0  0  0  0  0  0  0
   12.1005    0.3247   22.9728 C   0  0  0  0  0  0  0  0  0  0  0  0
   10.7711    6.8073   24.5276 C   0  0  0  0  0  0  0  0  0  0  0  0
   11.7833    5.1011   23.4625 C   0  0  0  0  0  0  0  0  0  0  0  0
   12.6693    3.9747   23.0711 C   0  0  0  0  0  0  0  0  0  0  0  0
   12.7679    1.5657   22.4852 C   0  0  0  0  0  0  0  0  0  0  0  0
   10.8484   -2.0016   23.8862 N   0  0  0  0  0  0  0  0  0  0  0  0
   10.7576    5.5696   22.6837 N   0  0  0  0  0  0  0  0  0  0  0  0
   12.0420    2.7568   22.8472 N   0  0  0  0  0  0  0  0  0  0  0  0
   13.8798    4.1646   22.9871 O   0  0  0  0  0  0  0  0  0  0  0  0
   10.4616    7.7252   25.4395 F   0  0  0  0  0  0  0  0  0  0  0  0
   11.2296    1.2596   24.7207 H   0  0  0  0  0  0  0  0  0  0  0  0
   12.8071   -0.9135   21.3445 H   0  0  0  0  0  0  0  0  0  0  0  0
   12.5107    5.7312   25.4348 H   0  0  0  0  0  0  0  0  0  0  0  0
   10.1497   -0.8626   25.4571 H   0  0  0  0  0  0  0  0  0  0  0  0
   11.6554   -2.9375   22.2350 H   0  0  0  0  0  0  0  0  0  0  0  0
    9.2943    7.1128   22.8646 H   0  0  0  0  0  0  0  0  0  0  0  0
   13.7820    1.6592   22.8988 H   0  0  0  0  0  0  0  0  0  0  0  0
   12.8708    1.5652   21.3912 H   0  0  0  0  0  0  0  0  0  0  0  0
   10.4995    5.2073   21.7759 H   0  0  0  0  0  0  0  0  0  0  0  0
   11.0409    2.6643   22.9984 H   0  0  0  0  0  0  0  0  0  0  0  0
  1  4  2  0  0  0  0
  1  7  1  0  0  0  0
  2  5  1  0  0  0  0
  2  7  2  0  0  0  0
  3  8  1  0  0  0  0
  3  9  2  0  0  0  0
  4 12  1  0  0  0  0
  5 12  2  0  0  0  0
  6  8  2  0  0  0  0
  6 13  1  0  0  0  0
  7 11  1  0  0  0  0
  8 16  1  0  0  0  0
  9 10  1  0  0  0  0
  9 13  1  0  0  0  0
 10 14  1  0  0  0  0
 10 15  2  0  0  0  0
 11 14  1  0  0  0  0
  1 17  1  0  0  0  0
  2 18  1  0  0  0  0
  3 19  1  0  0  0  0
  4 20  1  0  0  0  0
  5 21  1  0  0  0  0
  6 22  1  0  0  0  0
 11 23  1  0  0  0  0
 11 24  1  0  0  0  0
 13 25  1  0  0  0  0
 14 26  1  0  0  0  0
M  END
> <Hybrid2>
-9.234020

> <fragments>
x0104

> <site>
active-noncovalent

$$$$
top_hits_only_mpro-15_1
  -OEChem-03302021283D

 41 43  0     0  0  0  0  0  0999 V2000
    6.8562   -0.5813   18.8936 C   0  0  0  0  0  0  0  0  0  0  0  0
   11.3598    0.1805   24.5811 C   0  0  0  0  0  0  0  0  0  0  0  0
   12.0915    1.3521   24.3903 C   0  0  0  0  0  0  0  0  0  0  0  0
    6.2758    0.3477   18.0301 C   0  0  0  0  0  0  0  0  0  0  0  0
    5.9453    0.6099   20.7878 C   0  0  0  0  0  0  0  0  0  0  0  0
   11.0836    1.6266   22.2141 C   0  0  0  0  0  0  0  0  0  0  0  0
    6.6909   -0.4503   20.2724 C   0  0  0  0  0  0  0  0  0  0  0  0
   10.4910   -0.2839   23.5842 C   0  0  0  0  0  0  0  0  0  0  0  0
   10.3380    0.4528   22.3959 C   0  0  0  0  0  0  0  0  0  0  0  0
    5.3649    1.5391   19.9244 C   0  0  0  0  0  0  0  0  0  0  0  0
   11.9559    2.0729   23.2066 C   0  0  0  0  0  0  0  0  0  0  0  0
    5.5302    1.4080   18.5455 C   0  0  0  0  0  0  0  0  0  0  0  0
    7.3030   -1.4306   21.1827 C   0  0  0  0  0  0  0  0  0  0  0  0
    4.3490    2.8910   21.7857 C   0  0  0  0  0  0  0  0  0  0  0  0
    9.6870   -1.5370   23.8141 C   0  0  0  0  0  0  0  0  0  0  0  0
    9.4022    0.0009   21.3000 C   0  0  0  0  0  0  0  0  0  0  0  0
    9.2608   -2.1703   22.4953 C   0  0  0  0  0  0  0  0  0  0  0  0
    3.5030    4.1313   21.9287 C   0  0  0  0  0  0  0  0  0  0  0  0
    8.5984   -1.1809   21.6483 N   0  0  0  0  0  0  0  0  0  0  0  0
    4.6201    2.5992   20.4423 N   0  0  0  0  0  0  0  0  0  0  0  0
    6.6195   -2.4136   21.4654 O   0  0  0  0  0  0  0  0  0  0  0  0
    4.7204    2.2666   22.7742 O   0  0  0  0  0  0  0  0  0  0  0  0
   12.6714    3.2156   23.0196 O   0  0  0  0  0  0  0  0  0  0  0  0
    4.9768    2.2947   17.7063 F   0  0  0  0  0  0  0  0  0  0  0  0
    7.4358   -1.4033   18.4809 H   0  0  0  0  0  0  0  0  0  0  0  0
   11.4721   -0.3701   25.5117 H   0  0  0  0  0  0  0  0  0  0  0  0
   12.7650    1.6980   25.1697 H   0  0  0  0  0  0  0  0  0  0  0  0
    6.4046    0.2459   16.9567 H   0  0  0  0  0  0  0  0  0  0  0  0
    5.8168    0.7118   21.8635 H   0  0  0  0  0  0  0  0  0  0  0  0
   10.9803    2.1975   21.2939 H   0  0  0  0  0  0  0  0  0  0  0  0
   10.2820   -2.2649   24.3782 H   0  0  0  0  0  0  0  0  0  0  0  0
    8.8045   -1.2862   24.4150 H   0  0  0  0  0  0  0  0  0  0  0  0
    8.7404    0.8309   21.0330 H   0  0  0  0  0  0  0  0  0  0  0  0
    9.9902   -0.2707   20.4151 H   0  0  0  0  0  0  0  0  0  0  0  0
   10.1297   -2.5458   21.9403 H   0  0  0  0  0  0  0  0  0  0  0  0
    8.6014   -3.0231   22.6874 H   0  0  0  0  0  0  0  0  0  0  0  0
    2.4436    3.8602   21.9170 H   0  0  0  0  0  0  0  0  0  0  0  0
    3.7034    4.8138   21.0979 H   0  0  0  0  0  0  0  0  0  0  0  0
    3.7408    4.6391   22.8681 H   0  0  0  0  0  0  0  0  0  0  0  0
    4.2184    3.2508   19.7584 H   0  0  0  0  0  0  0  0  0  0  0  0
   12.4693    3.6007   22.1519 H   0  0  0  0  0  0  0  0  0  0  0  0
  1  4  2  0  0  0  0
  1  7  1  0  0  0  0
  2  3  1  0  0  0  0
  2  8  2  0  0  0  0
  3 11  2  0  0  0  0
  4 12  1  0  0  0  0
  5  7  2  0  0  0  0
  5 10  1  0  0  0  0
  6  9  2  0  0  0  0
  6 11  1  0  0  0  0
  7 13  1  0  0  0  0
  8  9  1  0  0  0  0
  8 15  1  0  0  0  0
  9 16  1  0  0  0  0
 10 12  2  0  0  0  0
 10 20  1  0  0  0  0
 11 23  1  0  0  0  0
 12 24  1  0  0  0  0
 13 19  1  0  0  0  0
 13 21  2  0  0  0  0
 14 18  1  0  0  0  0
 14 20  1  0  0  0  0
 14 22  2  0  0  0  0
 15 17  1  0  0  0  0
 16 19  1  0  0  0  0
 17 19  1  0  0  0  0
  1 25  1  0  0  0  0
  2 26  1  0  0  0  0
  3 27  1  0  0  0  0
  4 28  1  0  0  0  0
  5 29  1  0  0  0  0
  6 30  1  0  0  0  0
 15 31  1  0  0  0  0
 15 32  1  0  0  0  0
 16 33  1  0  0  0  0
 16 34  1  0  0  0  0
 17 35  1  0  0  0  0
 17 36  1  0  0  0  0
 18 37  1  0  0  0  0
 18 38  1  0  0  0  0
 18 39  1  0  0  0  0
 20 40  1  0  0  0  0
 23 41  1  0  0  0  0
M  END
> <Hybrid2>
-9.207193

> <fragments>
x0434

> <site>
active-noncovalent

$$$$
top_hits_only_mpro-415_1
  -OEChem-03302021283D

 48 50  0     1  0  0  0  0  0999 V2000
   13.2324   -0.5332   22.5427 C   0  0  0  0  0  0  0  0  0  0  0  0
   12.3952    0.5659   22.7342 C   0  0  0  0  0  0  0  0  0  0  0  0
   12.7703   -1.8191   22.8230 C   0  0  0  0  0  0  0  0  0  0  0  0
   11.0959    0.3791   23.2061 C   0  0  0  0  0  0  0  0  0  0  0  0
   11.4711   -2.0059   23.2949 C   0  0  0  0  0  0  0  0  0  0  0  0
    4.6605    1.4314   19.3002 C   0  0  0  0  0  0  0  0  0  0  0  0
    5.0453    0.8667   18.0925 C   0  0  0  0  0  0  0  0  0  0  0  0
    7.1576    0.3213   18.9610 C   0  0  0  0  0  0  0  0  0  0  0  0
    6.8277    0.8720   20.1912 C   0  0  0  0  0  0  0  0  0  0  0  0
   10.6339   -0.9068   23.4864 C   0  0  0  0  0  0  0  0  0  0  0  0
    5.5646    1.4317   20.3581 C   0  0  0  0  0  0  0  0  0  0  0  0
    7.8184    0.8466   21.2749 C   0  0  0  0  0  0  0  0  0  0  0  0
    7.4105   -1.6142   21.7793 C   0  0  0  0  0  0  0  0  0  0  0  0
    8.1447   -0.0827   23.5457 C   0  0  0  0  0  0  0  0  0  0  0  0
    8.4424   -2.6143   22.2713 C   0  0  0  0  0  0  0  0  0  0  0  0
    9.2054   -1.1130   24.0056 C   0  0  2  0  0  0  0  0  0  0  0  0
    9.2596   -1.0738   25.5450 C   0  0  0  0  0  0  0  0  0  0  0  0
    4.5427    1.1938   22.6074 C   0  0  0  0  0  0  0  0  0  0  0  0
    5.4368    3.4047   21.8586 C   0  0  0  0  0  0  0  0  0  0  0  0
    6.2678    0.3344   17.9591 N   0  3  0  0  0  0  0  0  0  0  0  0
    7.8262   -0.2555   22.1304 N   0  0  0  0  0  0  0  0  0  0  0  0
    5.1818    2.0041   21.5911 N   0  0  0  0  0  0  0  0  0  0  0  0
    8.5887    1.8037   21.3331 O   0  0  0  0  0  0  0  0  0  0  0  0
    8.7188   -2.4329   23.6639 O   0  0  0  0  0  0  0  0  0  0  0  0
   14.2436   -0.3877   22.1740 H   0  0  0  0  0  0  0  0  0  0  0  0
   12.7544    1.5672   22.5150 H   0  0  0  0  0  0  0  0  0  0  0  0
   13.4215   -2.6752   22.6730 H   0  0  0  0  0  0  0  0  0  0  0  0
   10.4507    1.2414   23.3525 H   0  0  0  0  0  0  0  0  0  0  0  0
   11.1197   -3.0115   23.5107 H   0  0  0  0  0  0  0  0  0  0  0  0
    3.6695    1.8619   19.4057 H   0  0  0  0  0  0  0  0  0  0  0  0
    4.4102    0.8219   17.2186 H   0  0  0  0  0  0  0  0  0  0  0  0
    8.1107   -0.1363   18.7322 H   0  0  0  0  0  0  0  0  0  0  0  0
    7.2518   -1.7324   20.7049 H   0  0  0  0  0  0  0  0  0  0  0  0
    6.4510   -1.7844   22.2818 H   0  0  0  0  0  0  0  0  0  0  0  0
    7.2041   -0.2333   24.0906 H   0  0  0  0  0  0  0  0  0  0  0  0
    8.4825    0.9415   23.7411 H   0  0  0  0  0  0  0  0  0  0  0  0
    8.0571   -3.6316   22.1463 H   0  0  0  0  0  0  0  0  0  0  0  0
    9.3711   -2.5495   21.6933 H   0  0  0  0  0  0  0  0  0  0  0  0
    8.2605   -1.2171   25.9518 H   0  0  0  0  0  0  0  0  0  0  0  0
    9.6455   -0.1112   25.8748 H   0  0  0  0  0  0  0  0  0  0  0  0
    9.9116   -1.8650   25.9101 H   0  0  0  0  0  0  0  0  0  0  0  0
    4.3230    1.8152   23.4881 H   0  0  0  0  0  0  0  0  0  0  0  0
    3.6053    0.7783   22.2090 H   0  0  0  0  0  0  0  0  0  0  0  0
    5.2142    0.3720   22.8969 H   0  0  0  0  0  0  0  0  0  0  0  0
    5.0689    3.6596   22.8634 H   0  0  0  0  0  0  0  0  0  0  0  0
    6.5185    3.5971   21.8046 H   0  0  0  0  0  0  0  0  0  0  0  0
    4.9169    4.0213   21.1106 H   0  0  0  0  0  0  0  0  0  0  0  0
    6.5303   -0.0755   17.0632 H   0  0  0  0  0  0  0  0  0  0  0  0
  1  2  1  0  0  0  0
  1  3  2  0  0  0  0
  2  4  2  0  0  0  0
  3  5  1  0  0  0  0
  4 10  1  0  0  0  0
  5 10  2  0  0  0  0
  6  7  2  0  0  0  0
  6 11  1  0  0  0  0
  7 20  1  0  0  0  0
  8  9  1  0  0  0  0
  8 20  2  0  0  0  0
  9 11  2  0  0  0  0
  9 12  1  0  0  0  0
 10 16  1  0  0  0  0
 11 22  1  0  0  0  0
 12 21  1  0  0  0  0
 12 23  2  0  0  0  0
 13 15  1  0  0  0  0
 13 21  1  0  0  0  0
 14 16  1  0  0  0  0
 14 21  1  0  0  0  0
 15 24  1  0  0  0  0
 16 17  1  0  0  0  0
 16 24  1  0  0  0  0
 18 22  1  0  0  0  0
 19 22  1  0  0  0  0
  1 25  1  0  0  0  0
  2 26  1  0  0  0  0
  3 27  1  0  0  0  0
  4 28  1  0  0  0  0
  5 29  1  0  0  0  0
  6 30  1  0  0  0  0
  7 31  1  0  0  0  0
  8 32  1  0  0  0  0
 13 33  1  0  0  0  0
 13 34  1  0  0  0  0
 14 35  1  0  0  0  0
 14 36  1  0  0  0  0
 15 37  1  0  0  0  0
 15 38  1  0  0  0  0
 17 39  1  0  0  0  0
 17 40  1  0  0  0  0
 17 41  1  0  0  0  0
 18 42  1  0  0  0  0
 18 43  1  0  0  0  0
 18 44  1  0  0  0  0
 19 45  1  0  0  0  0
 19 46  1  0  0  0  0
 19 47  1  0  0  0  0
 20 48  1  0  0  0  0
M  CHG  1  20   1
M  END
> <Hybrid2>
-9.193878

> <fragments>
x1093

> <site>
active-noncovalent

$$$$
top_hits_only_mpro-14_1
  -OEChem-03302021283D

 48 50  0     0  0  0  0  0  0999 V2000
   11.1001   -0.7413   24.8935 C   0  0  0  0  0  0  0  0  0  0  0  0
   10.2496   -1.7367   25.3816 C   0  0  0  0  0  0  0  0  0  0  0  0
   11.0973   -0.4039   23.5303 C   0  0  0  0  0  0  0  0  0  0  0  0
    9.4027   -2.3695   24.4893 C   0  0  0  0  0  0  0  0  0  0  0  0
    9.4042   -2.0305   23.1471 C   0  0  0  0  0  0  0  0  0  0  0  0
   10.2426   -1.0561   22.6401 C   0  0  0  0  0  0  0  0  0  0  0  0
   12.0010    0.6407   23.0624 C   0  0  0  0  0  0  0  0  0  0  0  0
    9.6013    6.4971   23.4347 C   0  0  0  0  0  0  0  0  0  0  0  0
    8.4461   -3.4738   24.7272 C   0  0  0  0  0  0  0  0  0  0  0  0
   10.2821    3.4843   24.5614 C   0  0  0  0  0  0  0  0  0  0  0  0
   12.4950    4.1744   23.5458 C   0  0  0  0  0  0  0  0  0  0  0  0
   10.1814    2.3836   23.5062 C   0  0  0  0  0  0  0  0  0  0  0  0
   12.3478    3.0419   22.5284 C   0  0  0  0  0  0  0  0  0  0  0  0
   11.1432    4.6607   24.0848 C   0  0  0  0  0  0  0  0  0  0  0  0
    7.7247   -3.5050   23.3594 C   0  0  0  0  0  0  0  0  0  0  0  0
    8.9823    7.1765   22.2584 C   0  0  0  0  0  0  0  0  0  0  0  0
    7.5965   -4.9359   22.8346 C   0  0  0  0  0  0  0  0  0  0  0  0
    6.3392   -2.8509   23.4367 C   0  0  0  0  0  0  0  0  0  0  0  0
   11.5196    1.9629   23.0694 N   0  0  0  0  0  0  0  0  0  0  0  0
   10.4402    5.4522   23.1014 N   0  0  0  0  0  0  0  0  0  0  0  0
   13.1371    0.3515   22.6829 O   0  0  0  0  0  0  0  0  0  0  0  0
    9.3406    6.8903   24.5657 O   0  0  0  0  0  0  0  0  0  0  0  0
    8.5156   -2.7522   22.3946 O   0  0  0  0  0  0  0  0  0  0  0  0
   10.2307   -0.7529   21.3161 O   0  0  0  0  0  0  0  0  0  0  0  0
   11.7623   -0.2253   25.5851 H   0  0  0  0  0  0  0  0  0  0  0  0
   10.2537   -1.9986   26.4341 H   0  0  0  0  0  0  0  0  0  0  0  0
    8.9433   -4.4190   24.9645 H   0  0  0  0  0  0  0  0  0  0  0  0
    7.7694   -3.2056   25.5455 H   0  0  0  0  0  0  0  0  0  0  0  0
    9.2788    3.8301   24.8378 H   0  0  0  0  0  0  0  0  0  0  0  0
   10.7261    3.0639   25.4731 H   0  0  0  0  0  0  0  0  0  0  0  0
   13.1009    3.8146   24.3878 H   0  0  0  0  0  0  0  0  0  0  0  0
   13.0531    5.0063   23.0996 H   0  0  0  0  0  0  0  0  0  0  0  0
    9.6098    1.5446   23.9111 H   0  0  0  0  0  0  0  0  0  0  0  0
    9.6448    2.7410   22.6194 H   0  0  0  0  0  0  0  0  0  0  0  0
   11.8643    3.4017   21.6129 H   0  0  0  0  0  0  0  0  0  0  0  0
   13.3371    2.6649   22.2494 H   0  0  0  0  0  0  0  0  0  0  0  0
   11.3206    5.3398   24.9349 H   0  0  0  0  0  0  0  0  0  0  0  0
    8.0210    6.7228   21.9686 H   0  0  0  0  0  0  0  0  0  0  0  0
    8.7561    8.2366   22.4562 H   0  0  0  0  0  0  0  0  0  0  0  0
    9.5911    7.1768   21.3401 H   0  0  0  0  0  0  0  0  0  0  0  0
    7.0870   -4.9257   21.8750 H   0  0  0  0  0  0  0  0  0  0  0  0
    7.0250   -5.5313   23.5413 H   0  0  0  0  0  0  0  0  0  0  0  0
    8.5862   -5.3679   22.7143 H   0  0  0  0  0  0  0  0  0  0  0  0
    5.8604   -2.8897   22.4605 H   0  0  0  0  0  0  0  0  0  0  0  0
    6.4406   -1.8126   23.7452 H   0  0  0  0  0  0  0  0  0  0  0  0
    5.7230   -3.3814   24.1596 H   0  0  0  0  0  0  0  0  0  0  0  0
   10.5690    5.2298   22.1198 H   0  0  0  0  0  0  0  0  0  0  0  0
    9.5788   -1.3007   20.8485 H   0  0  0  0  0  0  0  0  0  0  0  0
  1  2  2  0  0  0  0
  1  3  1  0  0  0  0
  2  4  1  0  0  0  0
  3  6  2  0  0  0  0
  3  7  1  0  0  0  0
  4  5  2  0  0  0  0
  4  9  1  0  0  0  0
  5  6  1  0  0  0  0
  5 23  1  0  0  0  0
  6 24  1  0  0  0  0
  7 19  1  0  0  0  0
  7 21  2  0  0  0  0
  8 16  1  0  0  0  0
  8 20  1  0  0  0  0
  8 22  2  0  0  0  0
  9 15  1  0  0  0  0
 10 12  1  0  0  0  0
 10 14  1  0  0  0  0
 11 13  1  0  0  0  0
 11 14  1  0  0  0  0
 12 19  1  0  0  0  0
 13 19  1  0  0  0  0
 14 20  1  0  0  0  0
 15 17  1  0  0  0  0
 15 18  1  0  0  0  0
 15 23  1  0  0  0  0
  1 25  1  0  0  0  0
  2 26  1  0  0  0  0
  9 27  1  0  0  0  0
  9 28  1  0  0  0  0
 10 29  1  0  0  0  0
 10 30  1  0  0  0  0
 11 31  1  0  0  0  0
 11 32  1  0  0  0  0
 12 33  1  0  0  0  0
 12 34  1  0  0  0  0
 13 35  1  0  0  0  0
 13 36  1  0  0  0  0
 14 37  1  0  0  0  0
 16 38  1  0  0  0  0
 16 39  1  0  0  0  0
 16 40  1  0  0  0  0
 17 41  1  0  0  0  0
 17 42  1  0  0  0  0
 17 43  1  0  0  0  0
 18 44  1  0  0  0  0
 18 45  1  0  0  0  0
 18 46  1  0  0  0  0
 20 47  1  0  0  0  0
 24 48  1  0  0  0  0
M  END
> <Hybrid2>
-9.165116

> <fragments>
x0104

> <site>
active-noncovalent

$$$$
top_hits_only_mpro-126_1
  -OEChem-03302021283D

 44 48  0     1  0  0  0  0  0999 V2000
   13.5918   -0.8830   24.8076 C   0  0  0  0  0  0  0  0  0  0  0  0
   14.2520   -1.9327   25.4503 C   0  0  0  0  0  0  0  0  0  0  0  0
   12.2635   -1.0176   24.3843 C   0  0  0  0  0  0  0  0  0  0  0  0
   13.6117   -3.1524   25.6935 C   0  0  0  0  0  0  0  0  0  0  0  0
   11.6049   -2.2361   24.6203 C   0  0  0  0  0  0  0  0  0  0  0  0
   12.2891   -3.2638   25.2632 C   0  0  0  0  0  0  0  0  0  0  0  0
   10.2196   -3.8558   24.7518 C   0  0  0  0  0  0  0  0  0  0  0  0
    6.2576   -0.5375   18.3265 C   0  0  0  0  0  0  0  0  0  0  0  0
    7.0466    0.3318   18.9871 C   0  0  0  0  0  0  0  0  0  0  0  0
    6.0708   -1.9137   18.8611 C   0  0  0  0  0  0  0  0  0  0  0  0
    7.5517   -1.1495   20.6134 C   0  0  0  0  0  0  0  0  0  0  0  0
    7.4507   -3.3019   21.7344 C   0  0  0  0  0  0  0  0  0  0  0  0
    8.1060   -6.6621   23.2656 C   0  0  0  0  0  0  0  0  0  0  0  0
    9.3312   -6.0896   23.9670 C   0  0  0  0  0  0  0  0  0  0  0  0
    7.6059   -5.7026   22.1880 C   0  0  0  0  0  0  0  0  0  0  0  0
    7.7721   -4.0434   24.0548 C   0  0  0  0  0  0  0  0  0  0  0  0
    8.9984   -4.7553   24.6640 C   0  0  2  0  0  0  0  0  0  0  0  0
    7.2507    1.7262   18.4691 C   0  0  0  0  0  0  0  0  0  0  0  0
   10.3209   -2.6221   24.3104 N   0  0  0  0  0  0  0  0  0  0  0  0
    7.7215    0.0469   20.1594 N   0  0  0  0  0  0  0  0  0  0  0  0
    6.7189   -3.3292   20.6615 N   0  0  0  0  0  0  0  0  0  0  0  0
   11.3790   -4.2872   25.3338 N   0  0  0  0  0  0  0  0  0  0  0  0
    6.7740   -2.1216   20.0303 N   0  0  0  0  0  0  0  0  0  0  0  0
    7.6507   -4.3053   22.6223 N   0  0  0  0  0  0  0  0  0  0  0  0
    5.3578   -2.7253   18.2816 O   0  0  0  0  0  0  0  0  0  0  0  0
    8.2738   -1.7762   22.0588 S   0  0  0  0  0  0  0  0  0  0  0  0
   14.1161    0.0533   24.6334 H   0  0  0  0  0  0  0  0  0  0  0  0
   15.2838   -1.8006   25.7668 H   0  0  0  0  0  0  0  0  0  0  0  0
   11.7594   -0.1953   23.8868 H   0  0  0  0  0  0  0  0  0  0  0  0
   14.1222   -3.9678   26.1930 H   0  0  0  0  0  0  0  0  0  0  0  0
    5.7425   -0.2796   17.4084 H   0  0  0  0  0  0  0  0  0  0  0  0
    8.3543   -7.6248   22.8133 H   0  0  0  0  0  0  0  0  0  0  0  0
    7.3113   -6.8389   23.9956 H   0  0  0  0  0  0  0  0  0  0  0  0
    9.7106   -6.8140   24.6999 H   0  0  0  0  0  0  0  0  0  0  0  0
   10.1354   -5.9395   23.2327 H   0  0  0  0  0  0  0  0  0  0  0  0
    8.2158   -5.8117   21.2717 H   0  0  0  0  0  0  0  0  0  0  0  0
    6.5786   -5.9924   21.8983 H   0  0  0  0  0  0  0  0  0  0  0  0
    6.8595   -4.3640   24.5908 H   0  0  0  0  0  0  0  0  0  0  0  0
    7.8376   -2.9509   24.2141 H   0  0  0  0  0  0  0  0  0  0  0  0
    8.7411   -5.0023   25.7416 H   0  0  0  0  0  0  0  0  0  0  0  0
    6.4917    2.3821   18.8882 H   0  0  0  0  0  0  0  0  0  0  0  0
    7.1741    1.7242   17.3843 H   0  0  0  0  0  0  0  0  0  0  0  0
    8.2384    2.0781   18.7576 H   0  0  0  0  0  0  0  0  0  0  0  0
   11.5397   -5.1975   25.7447 H   0  0  0  0  0  0  0  0  0  0  0  0
  1  2  2  0  0  0  0
  1  3  1  0  0  0  0
  2  4  1  0  0  0  0
  3  5  2  0  0  0  0
  4  6  2  0  0  0  0
  5  6  1  0  0  0  0
  5 19  1  0  0  0  0
  6 22  1  0  0  0  0
  7 17  1  0  0  0  0
  7 19  2  0  0  0  0
  7 22  1  0  0  0  0
  8  9  2  0  0  0  0
  8 10  1  0  0  0  0
  9 18  1  0  0  0  0
  9 20  1  0  0  0  0
 10 23  1  0  0  0  0
 10 25  2  0  0  0  0
 11 20  2  0  0  0  0
 11 23  1  0  0  0  0
 11 26  1  0  0  0  0
 12 21  2  0  0  0  0
 12 24  1  0  0  0  0
 12 26  1  0  0  0  0
 13 14  1  0  0  0  0
 13 15  1  0  0  0  0
 14 17  1  0  0  0  0
 15 24  1  0  0  0  0
 16 17  1  0  0  0  0
 16 24  1  0  0  0  0
 21 23  1  0  0  0  0
  1 27  1  0  0  0  0
  2 28  1  0  0  0  0
  3 29  1  0  0  0  0
  4 30  1  0  0  0  0
  8 31  1  0  0  0  0
 13 32  1  0  0  0  0
 13 33  1  0  0  0  0
 14 34  1  0  0  0  0
 14 35  1  0  0  0  0
 15 36  1  0  0  0  0
 15 37  1  0  0  0  0
 16 38  1  0  0  0  0
 16 39  1  0  0  0  0
 17 40  1  0  0  0  0
 18 41  1  0  0  0  0
 18 42  1  0  0  0  0
 18 43  1  0  0  0  0
 22 44  1  0  0  0  0
M  END
> <Hybrid2>
-9.160469

> <fragments>
x0749

> <site>
active-covalent

$$$$
-11.837011337280273_1
  -OEChem-03302021283D

 51 55  0     0  0  0  0  0  0999 V2000
   14.3947   -1.6218   22.6474 C   0  0  0  0  0  0  0  0  0  0  0  0
    7.6151   -3.1839   24.3406 C   0  0  0  0  0  0  0  0  0  0  0  0
   13.2096   -2.1150   22.1018 C   0  0  0  0  0  0  0  0  0  0  0  0
   14.3515   -0.6343   23.6317 C   0  0  0  0  0  0  0  0  0  0  0  0
    8.5603   -3.0140   25.3521 C   0  0  0  0  0  0  0  0  0  0  0  0
    7.6360   -2.3538   23.2197 C   0  0  0  0  0  0  0  0  0  0  0  0
   11.9811   -1.6207   22.5402 C   0  0  0  0  0  0  0  0  0  0  0  0
   13.1231   -0.1400   24.0701 C   0  0  0  0  0  0  0  0  0  0  0  0
    9.5266   -2.0139   25.2428 C   0  0  0  0  0  0  0  0  0  0  0  0
    8.6022   -1.3537   23.1105 C   0  0  0  0  0  0  0  0  0  0  0  0
   12.3956    4.7770   23.9583 C   0  0  0  0  0  0  0  0  0  0  0  0
    9.1294    7.0991   24.1157 C   0  0  0  0  0  0  0  0  0  0  0  0
   11.1167    5.3563   23.8611 C   0  0  0  0  0  0  0  0  0  0  0  0
   11.9379   -0.6332   23.5244 C   0  0  0  0  0  0  0  0  0  0  0  0
    9.5475   -1.1837   24.1220 C   0  0  0  0  0  0  0  0  0  0  0  0
   11.2495    6.5818   24.4900 C   0  0  0  0  0  0  0  0  0  0  0  0
    9.8646    5.0442   23.3423 C   0  0  0  0  0  0  0  0  0  0  0  0
   10.6977    3.1358   21.9573 C   0  0  0  0  0  0  0  0  0  0  0  0
    8.5105    2.9806   23.0714 C   0  0  0  0  0  0  0  0  0  0  0  0
   11.2548    2.0042   22.8127 C   0  0  0  0  0  0  0  0  0  0  0  0
    9.0185    1.8406   23.9518 C   0  0  0  0  0  0  0  0  0  0  0  0
   10.5997   -0.0939   24.0025 C   0  0  0  0  0  0  0  0  0  0  0  0
   13.2714    5.5628   24.5943 N   0  0  0  0  0  0  0  0  0  0  0  0
   10.2959    7.5117   24.6570 N   0  0  0  0  0  0  0  0  0  0  0  0
    8.8550    5.9374   23.4756 N   0  0  0  0  0  0  0  0  0  0  0  0
   12.5459    6.6530   24.9054 N   0  0  0  0  0  0  0  0  0  0  0  0
    9.6418    3.8340   22.6939 N   0  0  0  0  0  0  0  0  0  0  0  0
   10.1132    1.0921   23.2181 N   0  3  0  0  0  0  0  0  0  0  0  0
   15.3511   -2.0078   22.3069 H   0  0  0  0  0  0  0  0  0  0  0  0
    6.8636   -3.9635   24.4251 H   0  0  0  0  0  0  0  0  0  0  0  0
   13.2430   -2.8847   21.3362 H   0  0  0  0  0  0  0  0  0  0  0  0
   15.2739   -0.2509   24.0575 H   0  0  0  0  0  0  0  0  0  0  0  0
    8.5448   -3.6609   26.2243 H   0  0  0  0  0  0  0  0  0  0  0  0
    6.9009   -2.4865   22.4315 H   0  0  0  0  0  0  0  0  0  0  0  0
   11.0628   -2.0108   22.1093 H   0  0  0  0  0  0  0  0  0  0  0  0
   13.0991    0.6294   24.8373 H   0  0  0  0  0  0  0  0  0  0  0  0
   10.2590   -1.8887   26.0360 H   0  0  0  0  0  0  0  0  0  0  0  0
    8.6108   -0.7116   22.2337 H   0  0  0  0  0  0  0  0  0  0  0  0
   12.7307    3.8162   23.5942 H   0  0  0  0  0  0  0  0  0  0  0  0
    8.2988    7.7910   24.2051 H   0  0  0  0  0  0  0  0  0  0  0  0
   11.5124    3.8241   21.7178 H   0  0  0  0  0  0  0  0  0  0  0  0
   10.3030    2.7379   21.0180 H   0  0  0  0  0  0  0  0  0  0  0  0
    8.0275    2.5787   22.1802 H   0  0  0  0  0  0  0  0  0  0  0  0
    7.7747    3.5536   23.6353 H   0  0  0  0  0  0  0  0  0  0  0  0
   11.9640    1.4025   22.2405 H   0  0  0  0  0  0  0  0  0  0  0  0
   11.7304    2.3718   23.7254 H   0  0  0  0  0  0  0  0  0  0  0  0
    9.4359    2.2049   24.8953 H   0  0  0  0  0  0  0  0  0  0  0  0
    8.2161    1.1266   24.1555 H   0  0  0  0  0  0  0  0  0  0  0  0
   10.7638    0.3441   24.9964 H   0  0  0  0  0  0  0  0  0  0  0  0
   13.0007    7.4082   25.4030 H   0  0  0  0  0  0  0  0  0  0  0  0
    9.6986    0.7120   22.3499 H   0  0  0  0  0  0  0  0  0  0  0  0
  1  3  1  0  0  0  0
  1  4  2  0  0  0  0
  2  5  1  0  0  0  0
  2  6  2  0  0  0  0
  3  7  2  0  0  0  0
  4  8  1  0  0  0  0
  5  9  2  0  0  0  0
  6 10  1  0  0  0  0
  7 14  1  0  0  0  0
  8 14  2  0  0  0  0
  9 15  1  0  0  0  0
 10 15  2  0  0  0  0
 11 13  1  0  0  0  0
 11 23  2  0  0  0  0
 12 24  1  0  0  0  0
 12 25  2  0  0  0  0
 13 16  1  0  0  0  0
 13 17  2  0  0  0  0
 14 22  1  0  0  0  0
 15 22  1  0  0  0  0
 16 24  2  0  0  0  0
 16 26  1  0  0  0  0
 17 25  1  0  0  0  0
 17 27  1  0  0  0  0
 18 20  1  0  0  0  0
 18 27  1  0  0  0  0
 19 21  1  0  0  0  0
 19 27  1  0  0  0  0
 20 28  1  0  0  0  0
 21 28  1  0  0  0  0
 22 28  1  0  0  0  0
 23 26  1  0  0  0  0
  1 29  1  0  0  0  0
  2 30  1  0  0  0  0
  3 31  1  0  0  0  0
  4 32  1  0  0  0  0
  5 33  1  0  0  0  0
  6 34  1  0  0  0  0
  7 35  1  0  0  0  0
  8 36  1  0  0  0  0
  9 37  1  0  0  0  0
 10 38  1  0  0  0  0
 11 39  1  0  0  0  0
 12 40  1  0  0  0  0
 18 41  1  0  0  0  0
 18 42  1  0  0  0  0
 19 43  1  0  0  0  0
 19 44  1  0  0  0  0
 20 45  1  0  0  0  0
 20 46  1  0  0  0  0
 21 47  1  0  0  0  0
 21 48  1  0  0  0  0
 22 49  1  0  0  0  0
 26 50  1  0  0  0  0
 28 51  1  0  0  0  0
M  CHG  1  28   1
M  END
> <Hybrid2>
-9.143625

> <fragments>
x0195

> <site>
active-noncovalent

$$$$
top_hits_only_mpro-318_1
  -OEChem-03302021283D

 49 53  0     1  0  0  0  0  0999 V2000
   14.1231   -0.8236   21.8207 C   0  0  0  0  0  0  0  0  0  0  0  0
   13.2268   -1.7754   21.3505 C   0  0  0  0  0  0  0  0  0  0  0  0
   13.7623   -0.0021   22.8856 C   0  0  0  0  0  0  0  0  0  0  0  0
   11.9757   -1.9154   21.9540 C   0  0  0  0  0  0  0  0  0  0  0  0
    7.5338   -2.0836   21.6405 C   0  0  0  0  0  0  0  0  0  0  0  0
   12.5008   -0.1243   23.4930 C   0  0  0  0  0  0  0  0  0  0  0  0
   11.6005   -1.1154   23.0483 C   0  0  0  0  0  0  0  0  0  0  0  0
    7.1464   -1.6892   22.8921 C   0  0  0  0  0  0  0  0  0  0  0  0
    6.7316   -0.0154   21.4987 C   0  0  0  0  0  0  0  0  0  0  0  0
    7.1444    0.1777   18.8260 C   0  0  0  0  0  0  0  0  0  0  0  0
    7.4876   -0.9610   19.4404 C   0  0  0  0  0  0  0  0  0  0  0  0
    6.5567    1.2616   19.6642 C   0  0  0  0  0  0  0  0  0  0  0  0
    7.2268   -2.4570   24.1298 C   0  0  0  0  0  0  0  0  0  0  0  0
   12.1715    0.7944   24.6427 C   0  0  0  0  0  0  0  0  0  0  0  0
   10.6765    0.8785   24.9224 C   0  0  0  0  0  0  0  0  0  0  0  0
    9.9168   -4.4234   25.5933 C   0  0  0  0  0  0  0  0  0  0  0  0
   10.0902   -0.5216   25.0161 C   0  0  0  0  0  0  0  0  0  0  0  0
   10.7847   -3.4277   24.8402 C   0  0  0  0  0  0  0  0  0  0  0  0
    8.6251   -3.6501   25.7820 C   0  0  0  0  0  0  0  0  0  0  0  0
   10.2199   -1.2663   23.6746 C   0  0  2  0  0  0  0  0  0  0  0  0
    9.7982   -2.7261   23.8906 C   0  0  2  0  0  0  0  0  0  0  0  0
    6.3401    1.2168   20.9434 N   0  0  0  0  0  0  0  0  0  0  0  0
    7.2671   -1.0292   20.7923 N   0  0  0  0  0  0  0  0  0  0  0  0
    6.6561   -0.4112   22.7750 N   0  3  0  0  0  0  0  0  0  0  0  0
    8.4877   -2.8818   24.5518 N   0  0  0  0  0  0  0  0  0  0  0  0
    6.1966   -2.7033   24.7580 O   0  0  0  0  0  0  0  0  0  0  0  0
   15.0987   -0.7172   21.3575 H   0  0  0  0  0  0  0  0  0  0  0  0
   13.4969   -2.4109   20.5114 H   0  0  0  0  0  0  0  0  0  0  0  0
   14.4696    0.7430   23.2429 H   0  0  0  0  0  0  0  0  0  0  0  0
   11.2855   -2.6618   21.5616 H   0  0  0  0  0  0  0  0  0  0  0  0
    7.9670   -2.9758   21.2287 H   0  0  0  0  0  0  0  0  0  0  0  0
    7.2731    0.3407   17.7649 H   0  0  0  0  0  0  0  0  0  0  0  0
    7.9215   -1.8153   18.9379 H   0  0  0  0  0  0  0  0  0  0  0  0
    6.2894    2.1781   19.1135 H   0  0  0  0  0  0  0  0  0  0  0  0
   12.6817    0.4567   25.5483 H   0  0  0  0  0  0  0  0  0  0  0  0
   12.5482    1.7911   24.3945 H   0  0  0  0  0  0  0  0  0  0  0  0
   10.4990    1.4275   25.8519 H   0  0  0  0  0  0  0  0  0  0  0  0
   10.1851    1.4390   24.1218 H   0  0  0  0  0  0  0  0  0  0  0  0
    9.7689   -5.3507   25.0350 H   0  0  0  0  0  0  0  0  0  0  0  0
   10.3642   -4.6681   26.5621 H   0  0  0  0  0  0  0  0  0  0  0  0
   10.5827   -1.0850   25.8139 H   0  0  0  0  0  0  0  0  0  0  0  0
    9.0307   -0.4472   25.2869 H   0  0  0  0  0  0  0  0  0  0  0  0
   11.3046   -2.7367   25.5125 H   0  0  0  0  0  0  0  0  0  0  0  0
   11.5412   -3.9623   24.2507 H   0  0  0  0  0  0  0  0  0  0  0  0
    7.7657   -4.3228   25.8604 H   0  0  0  0  0  0  0  0  0  0  0  0
    8.6554   -2.9963   26.6564 H   0  0  0  0  0  0  0  0  0  0  0  0
    9.4747   -0.8079   23.0021 H   0  0  0  0  0  0  0  0  0  0  0  0
    9.7817   -3.2391   22.9167 H   0  0  0  0  0  0  0  0  0  0  0  0
    6.2899    0.1527   23.5370 H   0  0  0  0  0  0  0  0  0  0  0  0
  1  2  2  0  0  0  0
  1  3  1  0  0  0  0
  2  4  1  0  0  0  0
  3  6  2  0  0  0  0
  4  7  2  0  0  0  0
  5  8  2  0  0  0  0
  5 23  1  0  0  0  0
  6  7  1  0  0  0  0
  6 14  1  0  0  0  0
  7 20  1  0  0  0  0
  8 13  1  0  0  0  0
  8 24  1  0  0  0  0
  9 22  1  0  0  0  0
  9 23  1  0  0  0  0
  9 24  2  0  0  0  0
 10 11  2  0  0  0  0
 10 12  1  0  0  0  0
 11 23  1  0  0  0  0
 12 22  2  0  0  0  0
 13 25  1  0  0  0  0
 13 26  2  0  0  0  0
 14 15  1  0  0  0  0
 15 17  1  0  0  0  0
 16 18  1  0  0  0  0
 16 19  1  0  0  0  0
 17 20  1  0  0  0  0
 18 21  1  0  0  0  0
 19 25  1  0  0  0  0
 20 21  1  0  0  0  0
 21 25  1  0  0  0  0
  1 27  1  0  0  0  0
  2 28  1  0  0  0  0
  3 29  1  0  0  0  0
  4 30  1  0  0  0  0
  5 31  1  0  0  0  0
 10 32  1  0  0  0  0
 11 33  1  0  0  0  0
 12 34  1  0  0  0  0
 14 35  1  0  0  0  0
 14 36  1  0  0  0  0
 15 37  1  0  0  0  0
 15 38  1  0  0  0  0
 16 39  1  0  0  0  0
 16 40  1  0  0  0  0
 17 41  1  0  0  0  0
 17 42  1  0  0  0  0
 18 43  1  0  0  0  0
 18 44  1  0  0  0  0
 19 45  1  0  0  0  0
 19 46  1  0  0  0  0
 20 47  1  0  0  0  0
 21 48  1  0  0  0  0
 24 49  1  0  0  0  0
M  CHG  1  24   1
M  END
> <Hybrid2>
-9.137523

> <fragments>
x0831

> <site>
active-covalent

$$$$
top_hits_only_mpro-187_1
  -OEChem-03302021283D

 47 51  0     0  0  0  0  0  0999 V2000
    9.8127    0.4516   23.3168 C   0  0  0  0  0  0  0  0  0  0  0  0
   13.3558   -1.4269   23.2661 C   0  0  0  0  0  0  0  0  0  0  0  0
   10.9148   -0.3953   23.0961 C   0  0  0  0  0  0  0  0  0  0  0  0
   11.9117    0.1265   23.9017 C   0  0  0  0  0  0  0  0  0  0  0  0
   11.2337   -1.5216   22.3449 C   0  0  0  0  0  0  0  0  0  0  0  0
    5.4918   -3.8199   25.6175 C   0  0  0  0  0  0  0  0  0  0  0  0
    7.2687   -4.0165   27.3757 C   0  0  0  0  0  0  0  0  0  0  0  0
    6.6277   -6.0204   26.0115 C   0  0  0  0  0  0  0  0  0  0  0  0
    7.7226   -2.7268   25.2733 C   0  0  0  0  0  0  0  0  0  0  0  0
    7.0801   -4.7351   23.9059 C   0  0  0  0  0  0  0  0  0  0  0  0
    8.8610   -4.9324   25.6681 C   0  0  0  0  0  0  0  0  0  0  0  0
    6.6507   -3.0895   26.3160 C   0  0  0  0  0  0  0  0  0  0  0  0
    6.0065   -5.1034   24.9449 C   0  0  0  0  0  0  0  0  0  0  0  0
    7.7923   -5.3010   26.7120 C   0  0  0  0  0  0  0  0  0  0  0  0
    8.2616   -4.0035   24.5857 C   0  0  0  0  0  0  0  0  0  0  0  0
   12.0140    2.0840   25.4710 C   0  0  0  0  0  0  0  0  0  0  0  0
    9.3276   -3.6389   23.5491 C   0  0  0  0  0  0  0  0  0  0  0  0
    8.7603   -2.6926   22.5017 C   0  0  0  0  0  0  0  0  0  0  0  0
   10.0802    1.4308   24.1877 N   0  0  0  0  0  0  0  0  0  0  0  0
   13.1639   -0.3370   24.0403 N   0  0  0  0  0  0  0  0  0  0  0  0
   12.4807   -2.0428   22.4360 N   0  0  0  0  0  0  0  0  0  0  0  0
   11.3636    1.2072   24.5262 N   0  0  0  0  0  0  0  0  0  0  0  0
   10.0370   -2.2696   21.2825 S   0  0  0  0  0  0  0  0  0  0  0  0
    8.8235    0.4031   22.8839 H   0  0  0  0  0  0  0  0  0  0  0  0
   14.3449   -1.8695   23.3147 H   0  0  0  0  0  0  0  0  0  0  0  0
    4.7109   -4.0670   26.3473 H   0  0  0  0  0  0  0  0  0  0  0  0
    5.0315   -3.1632   24.8690 H   0  0  0  0  0  0  0  0  0  0  0  0
    8.0875   -3.5012   27.8928 H   0  0  0  0  0  0  0  0  0  0  0  0
    6.5194   -4.2670   28.1368 H   0  0  0  0  0  0  0  0  0  0  0  0
    5.8669   -6.3064   26.7482 H   0  0  0  0  0  0  0  0  0  0  0  0
    6.9851   -6.9475   25.5468 H   0  0  0  0  0  0  0  0  0  0  0  0
    7.2944   -2.0456   24.5266 H   0  0  0  0  0  0  0  0  0  0  0  0
    8.5422   -2.1838   25.7613 H   0  0  0  0  0  0  0  0  0  0  0  0
    7.4349   -5.6450   23.4047 H   0  0  0  0  0  0  0  0  0  0  0  0
    6.6372   -4.0997   23.1281 H   0  0  0  0  0  0  0  0  0  0  0  0
    9.7068   -4.4398   26.1650 H   0  0  0  0  0  0  0  0  0  0  0  0
    9.2560   -5.8468   25.2070 H   0  0  0  0  0  0  0  0  0  0  0  0
    6.2776   -2.1772   26.7949 H   0  0  0  0  0  0  0  0  0  0  0  0
    5.1763   -5.6205   24.4508 H   0  0  0  0  0  0  0  0  0  0  0  0
    8.2295   -5.9581   27.4720 H   0  0  0  0  0  0  0  0  0  0  0  0
   12.4786    2.8991   24.9100 H   0  0  0  0  0  0  0  0  0  0  0  0
   11.2732    2.4766   26.1730 H   0  0  0  0  0  0  0  0  0  0  0  0
   12.7698    1.5208   26.0256 H   0  0  0  0  0  0  0  0  0  0  0  0
    9.6844   -4.5629   23.0851 H   0  0  0  0  0  0  0  0  0  0  0  0
   10.1709   -3.1787   24.0721 H   0  0  0  0  0  0  0  0  0  0  0  0
    7.9180   -3.1535   21.9758 H   0  0  0  0  0  0  0  0  0  0  0  0
    8.4040   -1.7672   22.9654 H   0  0  0  0  0  0  0  0  0  0  0  0
  1  3  1  0  0  0  0
  1 19  2  0  0  0  0
  2 20  1  0  0  0  0
  2 21  2  0  0  0  0
  3  4  1  0  0  0  0
  3  5  2  0  0  0  0
  4 20  2  0  0  0  0
  4 22  1  0  0  0  0
  5 21  1  0  0  0  0
  5 23  1  0  0  0  0
  6 12  1  0  0  0  0
  6 13  1  0  0  0  0
  7 12  1  0  0  0  0
  7 14  1  0  0  0  0
  8 13  1  0  0  0  0
  8 14  1  0  0  0  0
  9 12  1  0  0  0  0
  9 15  1  0  0  0  0
 10 13  1  0  0  0  0
 10 15  1  0  0  0  0
 11 14  1  0  0  0  0
 11 15  1  0  0  0  0
 15 17  1  0  0  0  0
 16 22  1  0  0  0  0
 17 18  1  0  0  0  0
 18 23  1  0  0  0  0
 19 22  1  0  0  0  0
  1 24  1  0  0  0  0
  2 25  1  0  0  0  0
  6 26  1  0  0  0  0
  6 27  1  0  0  0  0
  7 28  1  0  0  0  0
  7 29  1  0  0  0  0
  8 30  1  0  0  0  0
  8 31  1  0  0  0  0
  9 32  1  0  0  0  0
  9 33  1  0  0  0  0
 10 34  1  0  0  0  0
 10 35  1  0  0  0  0
 11 36  1  0  0  0  0
 11 37  1  0  0  0  0
 12 38  1  0  0  0  0
 13 39  1  0  0  0  0
 14 40  1  0  0  0  0
 16 41  1  0  0  0  0
 16 42  1  0  0  0  0
 16 43  1  0  0  0  0
 17 44  1  0  0  0  0
 17 45  1  0  0  0  0
 18 46  1  0  0  0  0
 18 47  1  0  0  0  0
M  END
> <Hybrid2>
-9.083645

> <fragments>
x0072

> <site>
active-noncovalent

$$$$
top_hits_only_mpro-161_1
  -OEChem-03302021283D

 34 36  0     0  0  0  0  0  0999 V2000
    9.7384   -2.7582   24.0504 C   0  0  0  0  0  0  0  0  0  0  0  0
    9.3882   -2.9827   25.3771 C   0  0  0  0  0  0  0  0  0  0  0  0
   10.2223   -1.5126   23.6661 C   0  0  0  0  0  0  0  0  0  0  0  0
    9.5394   -1.9371   26.2736 C   0  0  0  0  0  0  0  0  0  0  0  0
   10.3360   -0.5328   24.6391 C   0  0  0  0  0  0  0  0  0  0  0  0
   10.8284    0.7846   24.3216 C   0  0  0  0  0  0  0  0  0  0  0  0
   10.2335    2.0226   24.4461 C   0  0  0  0  0  0  0  0  0  0  0  0
   12.1589    2.6642   23.6146 C   0  0  0  0  0  0  0  0  0  0  0  0
    9.8694    6.3062   22.8177 C   0  0  0  0  0  0  0  0  0  0  0  0
   11.1119    5.6576   22.4739 C   0  0  0  0  0  0  0  0  0  0  0  0
    9.6714    6.7330   24.0694 C   0  0  0  0  0  0  0  0  0  0  0  0
   12.0755    5.4743   23.3901 C   0  0  0  0  0  0  0  0  0  0  0  0
   11.8572    5.9506   24.7939 C   0  0  0  0  0  0  0  0  0  0  0  0
   13.3066    4.8076   22.9587 C   0  0  0  0  0  0  0  0  0  0  0  0
    8.8761    2.2908   24.9661 C   0  0  0  0  0  0  0  0  0  0  0  0
   10.0059   -0.7136   25.9376 N   0  0  0  0  0  0  0  0  0  0  0  0
   10.9951    3.1016   24.0416 N   0  0  0  0  0  0  0  0  0  0  0  0
   10.6347    6.5616   25.0314 N   0  0  0  0  0  0  0  0  0  0  0  0
   13.2398    3.4284   23.1113 N   0  0  0  0  0  0  0  0  0  0  0  0
   12.7181    5.7966   25.6569 O   0  0  0  0  0  0  0  0  0  0  0  0
   14.2444    5.4751   22.5216 O   0  0  0  0  0  0  0  0  0  0  0  0
   12.4048    0.9667   23.6709 S   0  0  0  0  0  0  0  0  0  0  0  0
    9.6346   -3.5525   23.3173 H   0  0  0  0  0  0  0  0  0  0  0  0
    9.0098   -3.9459   25.6996 H   0  0  0  0  0  0  0  0  0  0  0  0
   10.4984   -1.3286   22.6328 H   0  0  0  0  0  0  0  0  0  0  0  0
    9.2820   -2.0614   27.3203 H   0  0  0  0  0  0  0  0  0  0  0  0
    9.1167    6.4351   22.0492 H   0  0  0  0  0  0  0  0  0  0  0  0
   11.2245    5.3311   21.4448 H   0  0  0  0  0  0  0  0  0  0  0  0
    8.7608    7.2255   24.3859 H   0  0  0  0  0  0  0  0  0  0  0  0
    8.8947    2.4503   26.0559 H   0  0  0  0  0  0  0  0  0  0  0  0
    8.4268    3.1847   24.5025 H   0  0  0  0  0  0  0  0  0  0  0  0
    8.1840    1.4577   24.7592 H   0  0  0  0  0  0  0  0  0  0  0  0
   10.4321    6.9054   25.9656 H   0  0  0  0  0  0  0  0  0  0  0  0
   14.0561    2.8874   22.8334 H   0  0  0  0  0  0  0  0  0  0  0  0
  1  2  1  0  0  0  0
  1  3  2  0  0  0  0
  2  4  2  0  0  0  0
  3  5  1  0  0  0  0
  4 16  1  0  0  0  0
  5  6  1  0  0  0  0
  5 16  2  0  0  0  0
  6  7  2  0  0  0  0
  6 22  1  0  0  0  0
  7 15  1  0  0  0  0
  7 17  1  0  0  0  0
  8 17  2  0  0  0  0
  8 19  1  0  0  0  0
  8 22  1  0  0  0  0
  9 10  1  0  0  0  0
  9 11  2  0  0  0  0
 10 12  2  0  0  0  0
 11 18  1  0  0  0  0
 12 13  1  0  0  0  0
 12 14  1  0  0  0  0
 13 18  1  0  0  0  0
 13 20  2  0  0  0  0
 14 19  1  0  0  0  0
 14 21  2  0  0  0  0
  1 23  1  0  0  0  0
  2 24  1  0  0  0  0
  3 25  1  0  0  0  0
  4 26  1  0  0  0  0
  9 27  1  0  0  0  0
 10 28  1  0  0  0  0
 11 29  1  0  0  0  0
 15 30  1  0  0  0  0
 15 31  1  0  0  0  0
 15 32  1  0  0  0  0
 18 33  1  0  0  0  0
 19 34  1  0  0  0  0
M  END
> <Hybrid2>
-9.054347

> <fragments>
x0946

> <site>
active-noncovalent

$$$$
-12.136740684509276_1
  -OEChem-03302021283D

 45 48  0     1  0  0  0  0  0999 V2000
   14.6505   -0.5112   23.5087 C   0  0  0  0  0  0  0  0  0  0  0  0
   13.4687   -0.0731   24.0989 C   0  0  0  0  0  0  0  0  0  0  0  0
   12.0845   -2.7648   20.0433 C   0  0  0  0  0  0  0  0  0  0  0  0
   14.6067   -1.2904   22.3523 C   0  0  0  0  0  0  0  0  0  0  0  0
   12.2386   -0.4126   23.5350 C   0  0  0  0  0  0  0  0  0  0  0  0
   13.3146   -2.4252   20.6072 C   0  0  0  0  0  0  0  0  0  0  0  0
   10.9027   -2.3267   20.6335 C   0  0  0  0  0  0  0  0  0  0  0  0
   13.3775   -1.6417   21.7710 C   0  0  0  0  0  0  0  0  0  0  0  0
   12.1757   -1.1962   22.3712 C   0  0  0  0  0  0  0  0  0  0  0  0
   10.9464   -1.5475   21.7900 C   0  0  0  0  0  0  0  0  0  0  0  0
    6.5187    1.1646   21.1280 C   0  0  0  0  0  0  0  0  0  0  0  0
    5.2089    1.7192   20.8851 C   0  0  0  0  0  0  0  0  0  0  0  0
    7.2547    0.6662   20.1263 C   0  0  0  0  0  0  0  0  0  0  0  0
    4.7069    1.7426   19.6406 C   0  0  0  0  0  0  0  0  0  0  0  0
    6.7139    0.6831   18.7339 C   0  0  0  0  0  0  0  0  0  0  0  0
    8.5900    0.1161   20.4642 C   0  0  0  0  0  0  0  0  0  0  0  0
    8.0634   -2.9426   22.4918 C   0  0  0  0  0  0  0  0  0  0  0  0
    9.0260   -2.1300   23.3528 C   0  0  0  0  0  0  0  0  0  0  0  0
    7.5149   -1.9151   21.5137 C   0  0  0  0  0  0  0  0  0  0  0  0
    9.6196   -1.1036   22.3815 C   0  0  2  0  0  0  0  0  0  0  0  0
    3.3609    2.2979   19.3020 C   0  0  0  0  0  0  0  0  0  0  0  0
    5.4490    1.2341   18.5943 N   0  0  0  0  0  0  0  0  0  0  0  0
    8.5858   -0.9343   21.3585 N   0  0  0  0  0  0  0  0  0  0  0  0
    7.3648    0.2326   17.7943 O   0  0  0  0  0  0  0  0  0  0  0  0
    9.5511    0.6442   19.9234 O   0  0  0  0  0  0  0  0  0  0  0  0
   15.6078   -0.2466   23.9483 H   0  0  0  0  0  0  0  0  0  0  0  0
   13.5038    0.5335   24.9992 H   0  0  0  0  0  0  0  0  0  0  0  0
   12.0498   -3.3715   19.1431 H   0  0  0  0  0  0  0  0  0  0  0  0
   15.5430   -1.6217   21.9080 H   0  0  0  0  0  0  0  0  0  0  0  0
   11.3378   -0.0512   24.0255 H   0  0  0  0  0  0  0  0  0  0  0  0
   14.2256   -2.7787   20.1288 H   0  0  0  0  0  0  0  0  0  0  0  0
    9.9506   -2.5978   20.1847 H   0  0  0  0  0  0  0  0  0  0  0  0
    6.8703    1.1729   22.1550 H   0  0  0  0  0  0  0  0  0  0  0  0
    4.6567    2.1097   21.7328 H   0  0  0  0  0  0  0  0  0  0  0  0
    8.6093   -3.7253   21.9522 H   0  0  0  0  0  0  0  0  0  0  0  0
    7.2766   -3.4174   23.0848 H   0  0  0  0  0  0  0  0  0  0  0  0
    8.4543   -1.6073   24.1299 H   0  0  0  0  0  0  0  0  0  0  0  0
    9.7695   -2.7646   23.8455 H   0  0  0  0  0  0  0  0  0  0  0  0
    7.2499   -2.3628   20.5517 H   0  0  0  0  0  0  0  0  0  0  0  0
    6.6410   -1.3986   21.9256 H   0  0  0  0  0  0  0  0  0  0  0  0
    9.7949   -0.1262   22.8865 H   0  0  0  0  0  0  0  0  0  0  0  0
    3.4487    3.3580   19.0670 H   0  0  0  0  0  0  0  0  0  0  0  0
    2.6863    2.1707   20.1482 H   0  0  0  0  0  0  0  0  0  0  0  0
    2.9509    1.7702   18.4414 H   0  0  0  0  0  0  0  0  0  0  0  0
    5.0432    1.2653   17.6632 H   0  0  0  0  0  0  0  0  0  0  0  0
  1  2  1  0  0  0  0
  1  4  2  0  0  0  0
  2  5  2  0  0  0  0
  3  6  1  0  0  0  0
  3  7  2  0  0  0  0
  4  8  1  0  0  0  0
  5  9  1  0  0  0  0
  6  8  2  0  0  0  0
  7 10  1  0  0  0  0
  8  9  1  0  0  0  0
  9 10  2  0  0  0  0
 10 20  1  0  0  0  0
 11 12  1  0  0  0  0
 11 13  2  0  0  0  0
 12 14  2  0  0  0  0
 13 15  1  0  0  0  0
 13 16  1  0  0  0  0
 14 21  1  0  0  0  0
 14 22  1  0  0  0  0
 15 22  1  0  0  0  0
 15 24  2  0  0  0  0
 16 23  1  0  0  0  0
 16 25  2  0  0  0  0
 17 18  1  0  0  0  0
 17 19  1  0  0  0  0
 18 20  1  0  0  0  0
 19 23  1  0  0  0  0
 20 23  1  0  0  0  0
  1 26  1  0  0  0  0
  2 27  1  0  0  0  0
  3 28  1  0  0  0  0
  4 29  1  0  0  0  0
  5 30  1  0  0  0  0
  6 31  1  0  0  0  0
  7 32  1  0  0  0  0
 11 33  1  0  0  0  0
 12 34  1  0  0  0  0
 17 35  1  0  0  0  0
 17 36  1  0  0  0  0
 18 37  1  0  0  0  0
 18 38  1  0  0  0  0
 19 39  1  0  0  0  0
 19 40  1  0  0  0  0
 20 41  1  0  0  0  0
 21 42  1  0  0  0  0
 21 43  1  0  0  0  0
 21 44  1  0  0  0  0
 22 45  1  0  0  0  0
M  END
> <Hybrid2>
-9.049721

> <fragments>
x0678

> <site>
active-noncovalent

$$$$
top_hits_only_mpro-71_1
  -OEChem-03302021283D

 38 39  0     1  0  0  0  0  0999 V2000
   12.9551   -0.0956   22.2628 C   0  0  0  0  0  0  0  0  0  0  0  0
   14.0998   -0.7080   22.7236 C   0  0  0  0  0  0  0  0  0  0  0  0
   12.0655   -1.8773   23.4614 C   0  0  0  0  0  0  0  0  0  0  0  0
   11.7767   -0.7728   22.6902 C   0  0  0  0  0  0  0  0  0  0  0  0
    4.7557    1.5057   20.8317 C   0  0  0  0  0  0  0  0  0  0  0  0
    6.0664    0.9077   20.9167 C   0  0  0  0  0  0  0  0  0  0  0  0
    4.2271    1.7706   19.6324 C   0  0  0  0  0  0  0  0  0  0  0  0
    6.7668    0.6115   19.8106 C   0  0  0  0  0  0  0  0  0  0  0  0
    6.1780    0.9074   18.4649 C   0  0  0  0  0  0  0  0  0  0  0  0
    8.0892    0.0058   19.9846 C   0  0  0  0  0  0  0  0  0  0  0  0
    9.1633   -0.2720   24.5122 C   0  0  0  0  0  0  0  0  0  0  0  0
   10.7420    1.5593   23.9167 C   0  0  0  0  0  0  0  0  0  0  0  0
   10.3211    0.4224   21.0036 C   0  0  0  0  0  0  0  0  0  0  0  0
   10.3741   -0.3300   22.3368 C   0  0  2  0  0  0  0  0  0  0  0  0
    4.9153    1.4815   18.4811 N   0  0  0  0  0  0  0  0  0  0  0  0
    8.9608    0.8069   20.7019 N   0  0  0  0  0  0  0  0  0  0  0  0
    9.7692    0.5364   23.3985 N   0  3  0  0  0  0  0  0  0  0  0  0
    6.7936    0.6505   17.4331 O   0  0  0  0  0  0  0  0  0  0  0  0
    8.3437   -1.1058   19.5209 O   0  0  0  0  0  0  0  0  0  0  0  0
   13.7516   -2.0937   23.6675 S   0  0  0  0  0  0  0  0  0  0  0  0
   12.9673    0.7955   21.6480 H   0  0  0  0  0  0  0  0  0  0  0  0
   15.1238   -0.4085   22.5506 H   0  0  0  0  0  0  0  0  0  0  0  0
   11.3704   -2.5705   23.9145 H   0  0  0  0  0  0  0  0  0  0  0  0
    4.2227    1.7296   21.7480 H   0  0  0  0  0  0  0  0  0  0  0  0
    6.4503    0.7108   21.9128 H   0  0  0  0  0  0  0  0  0  0  0  0
    3.2496    2.2183   19.5063 H   0  0  0  0  0  0  0  0  0  0  0  0
    9.9665   -0.8342   24.9919 H   0  0  0  0  0  0  0  0  0  0  0  0
    8.6969    0.4224   25.2136 H   0  0  0  0  0  0  0  0  0  0  0  0
    8.4225   -0.9430   24.0732 H   0  0  0  0  0  0  0  0  0  0  0  0
   11.5693    1.0250   24.3873 H   0  0  0  0  0  0  0  0  0  0  0  0
   11.0891    2.1507   23.0673 H   0  0  0  0  0  0  0  0  0  0  0  0
   10.2157    2.1840   24.6410 H   0  0  0  0  0  0  0  0  0  0  0  0
   10.6795   -0.2122   20.1849 H   0  0  0  0  0  0  0  0  0  0  0  0
   10.9400    1.3266   21.0199 H   0  0  0  0  0  0  0  0  0  0  0  0
    9.7130   -1.2041   22.2897 H   0  0  0  0  0  0  0  0  0  0  0  0
    4.4665    1.7030   17.5972 H   0  0  0  0  0  0  0  0  0  0  0  0
    8.6285    1.7084   21.0322 H   0  0  0  0  0  0  0  0  0  0  0  0
    8.9976    1.0587   22.9590 H   0  0  0  0  0  0  0  0  0  0  0  0
  1  2  2  0  0  0  0
  1  4  1  0  0  0  0
  2 20  1  0  0  0  0
  3  4  2  0  0  0  0
  3 20  1  0  0  0  0
  4 14  1  0  0  0  0
  5  6  1  0  0  0  0
  5  7  2  0  0  0  0
  6  8  2  0  0  0  0
  7 15  1  0  0  0  0
  8  9  1  0  0  0  0
  8 10  1  0  0  0  0
  9 15  1  0  0  0  0
  9 18  2  0  0  0  0
 10 16  1  0  0  0  0
 10 19  2  0  0  0  0
 11 17  1  0  0  0  0
 12 17  1  0  0  0  0
 13 14  1  0  0  0  0
 13 16  1  0  0  0  0
 14 17  1  0  0  0  0
  1 21  1  0  0  0  0
  2 22  1  0  0  0  0
  3 23  1  0  0  0  0
  5 24  1  0  0  0  0
  6 25  1  0  0  0  0
  7 26  1  0  0  0  0
 11 27  1  0  0  0  0
 11 28  1  0  0  0  0
 11 29  1  0  0  0  0
 12 30  1  0  0  0  0
 12 31  1  0  0  0  0
 12 32  1  0  0  0  0
 13 33  1  0  0  0  0
 13 34  1  0  0  0  0
 14 35  1  0  0  0  0
 15 36  1  0  0  0  0
 16 37  1  0  0  0  0
 17 38  1  0  0  0  0
M  CHG  1  17   1
M  END
> <Hybrid2>
-9.024748

> <fragments>
x0678

> <site>
active-noncovalent

$$$$
top_hits_only_mpro-169_2
  -OEChem-03302021283D

 49 53  0     0  0  0  0  0  0999 V2000
   10.5186    2.2134   24.7954 C   0  0  0  0  0  0  0  0  0  0  0  0
   11.6981    2.7706   22.7619 C   0  0  0  0  0  0  0  0  0  0  0  0
   11.0642    0.9302   24.7603 C   0  0  0  0  0  0  0  0  0  0  0  0
   12.2439    1.4874   22.7268 C   0  0  0  0  0  0  0  0  0  0  0  0
   10.4711   -1.8251   22.5316 C   0  0  0  0  0  0  0  0  0  0  0  0
   11.1890   -2.8264   24.6098 C   0  0  0  0  0  0  0  0  0  0  0  0
    9.4131   -2.7313   22.4604 C   0  0  0  0  0  0  0  0  0  0  0  0
   10.1310   -3.7326   24.5387 C   0  0  0  0  0  0  0  0  0  0  0  0
   10.5497    6.7618   23.9349 C   0  0  0  0  0  0  0  0  0  0  0  0
    6.7671    4.6213   23.7236 C   0  0  0  0  0  0  0  0  0  0  0  0
   10.8355    3.1336   23.7961 C   0  0  0  0  0  0  0  0  0  0  0  0
   11.9269    0.5672   23.7261 C   0  0  0  0  0  0  0  0  0  0  0  0
   11.3591   -1.8727   23.6063 C   0  0  0  0  0  0  0  0  0  0  0  0
    8.8963    4.6865   23.7965 C   0  0  0  0  0  0  0  0  0  0  0  0
    9.2431   -3.6850   23.4639 C   0  0  0  0  0  0  0  0  0  0  0  0
   10.2693    4.4645   23.8324 C   0  0  0  0  0  0  0  0  0  0  0  0
    8.4737    6.0056   23.8365 C   0  0  0  0  0  0  0  0  0  0  0  0
   13.4176   -1.1729   24.9499 C   0  0  0  0  0  0  0  0  0  0  0  0
   13.5323   -0.9197   22.4722 C   0  0  0  0  0  0  0  0  0  0  0  0
   14.1939   -2.4804   24.8499 C   0  0  0  0  0  0  0  0  0  0  0  0
   14.3682   -2.1955   22.3844 C   0  0  0  0  0  0  0  0  0  0  0  0
   12.5352   -0.8637   23.6868 C   0  0  0  0  0  0  0  0  0  0  0  0
   11.1068    5.5271   23.9030 N   0  0  0  0  0  0  0  0  0  0  0  0
    9.2428    7.1025   23.9063 N   0  0  0  0  0  0  0  0  0  0  0  0
    7.8228    3.8345   23.7261 N   0  0  0  0  0  0  0  0  0  0  0  0
    7.1101    5.9457   23.7889 N   0  0  0  0  0  0  0  0  0  0  0  0
   15.0909   -2.4132   23.6648 N   0  3  0  0  0  0  0  0  0  0  0  0
    7.9378   -4.8027   23.3760 Cl  0  0  0  0  0  0  0  0  0  0  0  0
    9.8471    2.4811   25.6078 H   0  0  0  0  0  0  0  0  0  0  0  0
   11.9553    3.4769   21.9760 H   0  0  0  0  0  0  0  0  0  0  0  0
   10.8109    0.2194   25.5424 H   0  0  0  0  0  0  0  0  0  0  0  0
   12.9156    1.2133   21.9175 H   0  0  0  0  0  0  0  0  0  0  0  0
   10.5970   -1.0850   21.7457 H   0  0  0  0  0  0  0  0  0  0  0  0
   11.8763   -2.8700   25.4506 H   0  0  0  0  0  0  0  0  0  0  0  0
    8.7290   -2.6820   21.6172 H   0  0  0  0  0  0  0  0  0  0  0  0
   10.0110   -4.4704   25.3279 H   0  0  0  0  0  0  0  0  0  0  0  0
   11.2498    7.5885   23.9911 H   0  0  0  0  0  0  0  0  0  0  0  0
    5.7363    4.3003   23.6758 H   0  0  0  0  0  0  0  0  0  0  0  0
   12.7778   -1.2133   25.8419 H   0  0  0  0  0  0  0  0  0  0  0  0
   14.1222   -0.3469   25.1228 H   0  0  0  0  0  0  0  0  0  0  0  0
   14.2168   -0.0606   22.5257 H   0  0  0  0  0  0  0  0  0  0  0  0
   12.9751   -0.8010   21.5329 H   0  0  0  0  0  0  0  0  0  0  0  0
   14.8364   -2.6253   25.7237 H   0  0  0  0  0  0  0  0  0  0  0  0
   13.5475   -3.3557   24.7321 H   0  0  0  0  0  0  0  0  0  0  0  0
   13.7522   -3.0817   22.2002 H   0  0  0  0  0  0  0  0  0  0  0  0
   15.1263   -2.1192   21.5990 H   0  0  0  0  0  0  0  0  0  0  0  0
    6.4729    6.7310   23.7993 H   0  0  0  0  0  0  0  0  0  0  0  0
   15.7833   -1.6631   23.7999 H   0  0  0  0  0  0  0  0  0  0  0  0
   15.6358   -3.2842   23.6028 H   0  0  0  0  0  0  0  0  0  0  0  0
  1  3  2  0  0  0  0
  1 11  1  0  0  0  0
  2  4  1  0  0  0  0
  2 11  2  0  0  0  0
  3 12  1  0  0  0  0
  4 12  2  0  0  0  0
  5  7  2  0  0  0  0
  5 13  1  0  0  0  0
  6  8  1  0  0  0  0
  6 13  2  0  0  0  0
  7 15  1  0  0  0  0
  8 15  2  0  0  0  0
  9 23  2  0  0  0  0
  9 24  1  0  0  0  0
 10 25  2  0  0  0  0
 10 26  1  0  0  0  0
 11 16  1  0  0  0  0
 12 22  1  0  0  0  0
 13 22  1  0  0  0  0
 14 16  2  0  0  0  0
 14 17  1  0  0  0  0
 14 25  1  0  0  0  0
 15 28  1  0  0  0  0
 16 23  1  0  0  0  0
 17 24  2  0  0  0  0
 17 26  1  0  0  0  0
 18 20  1  0  0  0  0
 18 22  1  0  0  0  0
 19 21  1  0  0  0  0
 19 22  1  0  0  0  0
 20 27  1  0  0  0  0
 21 27  1  0  0  0  0
  1 29  1  0  0  0  0
  2 30  1  0  0  0  0
  3 31  1  0  0  0  0
  4 32  1  0  0  0  0
  5 33  1  0  0  0  0
  6 34  1  0  0  0  0
  7 35  1  0  0  0  0
  8 36  1  0  0  0  0
  9 37  1  0  0  0  0
 10 38  1  0  0  0  0
 18 39  1  0  0  0  0
 18 40  1  0  0  0  0
 19 41  1  0  0  0  0
 19 42  1  0  0  0  0
 20 43  1  0  0  0  0
 20 44  1  0  0  0  0
 21 45  1  0  0  0  0
 21 46  1  0  0  0  0
 26 47  1  0  0  0  0
 27 48  1  0  0  0  0
 27 49  1  0  0  0  0
M  CHG  1  27   1
M  END
> <Hybrid2>
-8.993325

> <fragments>
x0161

> <site>
active-noncovalent

$$$$
top_hits_only_mpro-147_1
  -OEChem-03302021283D

 38 41  0     0  0  0  0  0  0999 V2000
   13.2229    4.2267   21.4647 C   0  0  0  0  0  0  0  0  0  0  0  0
   12.6730    2.9851   21.7836 C   0  0  0  0  0  0  0  0  0  0  0  0
   13.1087    5.2906   22.3595 C   0  0  0  0  0  0  0  0  0  0  0  0
   10.5984   -4.8109   24.8121 C   0  0  0  0  0  0  0  0  0  0  0  0
   11.8945    3.8714   23.8920 C   0  0  0  0  0  0  0  0  0  0  0  0
    8.2641   -4.2305   24.5852 C   0  0  0  0  0  0  0  0  0  0  0  0
   10.9483   -3.4987   24.4792 C   0  0  0  0  0  0  0  0  0  0  0  0
   12.0088    2.8075   22.9972 C   0  0  0  0  0  0  0  0  0  0  0  0
   12.4445    5.1130   23.5732 C   0  0  0  0  0  0  0  0  0  0  0  0
    9.9605   -2.5376   24.1962 C   0  0  0  0  0  0  0  0  0  0  0  0
    9.2531   -5.1728   24.8635 C   0  0  0  0  0  0  0  0  0  0  0  0
    8.6160   -2.9207   24.2536 C   0  0  0  0  0  0  0  0  0  0  0  0
   12.3771   -3.1002   24.4261 C   0  0  0  0  0  0  0  0  0  0  0  0
   12.1418    0.4029   23.4612 C   0  0  0  0  0  0  0  0  0  0  0  0
   11.5201   -0.8959   23.8042 C   0  0  0  0  0  0  0  0  0  0  0  0
   11.4426    1.5309   23.3248 C   0  0  0  0  0  0  0  0  0  0  0  0
   13.6227    0.2236   23.3478 C   0  0  0  0  0  0  0  0  0  0  0  0
   13.8632   -1.1318   23.9969 C   0  0  0  0  0  0  0  0  0  0  0  0
   12.3237    6.2505   24.5301 C   0  0  0  0  0  0  0  0  0  0  0  0
   10.2707   -1.2049   23.8544 N   0  0  0  0  0  0  0  0  0  0  0  0
   12.5663   -1.7767   24.0652 N   0  0  0  0  0  0  0  0  0  0  0  0
   13.2676   -3.8982   24.6945 O   0  0  0  0  0  0  0  0  0  0  0  0
    8.8120   -6.7862   25.2708 Cl  0  0  0  0  0  0  0  0  0  0  0  0
    7.3458   -1.7954   23.9168 Cl  0  0  0  0  0  0  0  0  0  0  0  0
   13.7404    4.3646   20.5198 H   0  0  0  0  0  0  0  0  0  0  0  0
   12.7701    2.1655   21.0756 H   0  0  0  0  0  0  0  0  0  0  0  0
   13.5406    6.2545   22.1033 H   0  0  0  0  0  0  0  0  0  0  0  0
   11.3661   -5.5491   25.0309 H   0  0  0  0  0  0  0  0  0  0  0  0
   11.3772    3.7395   24.8402 H   0  0  0  0  0  0  0  0  0  0  0  0
    7.2156   -4.5191   24.6264 H   0  0  0  0  0  0  0  0  0  0  0  0
   10.3678    1.4834   23.5013 H   0  0  0  0  0  0  0  0  0  0  0  0
   13.9154    0.1986   22.2925 H   0  0  0  0  0  0  0  0  0  0  0  0
   14.1795    1.0151   23.8583 H   0  0  0  0  0  0  0  0  0  0  0  0
   14.5675   -1.7541   23.4353 H   0  0  0  0  0  0  0  0  0  0  0  0
   14.2430   -1.0297   25.0202 H   0  0  0  0  0  0  0  0  0  0  0  0
   11.4080    6.8209   24.3318 H   0  0  0  0  0  0  0  0  0  0  0  0
   12.2948    5.8962   25.5687 H   0  0  0  0  0  0  0  0  0  0  0  0
   13.1816    6.9309   24.4505 H   0  0  0  0  0  0  0  0  0  0  0  0
  1  2  1  0  0  0  0
  1  3  2  0  0  0  0
  2  8  2  0  0  0  0
  3  9  1  0  0  0  0
  4  7  1  0  0  0  0
  4 11  2  0  0  0  0
  5  8  1  0  0  0  0
  5  9  2  0  0  0  0
  6 11  1  0  0  0  0
  6 12  2  0  0  0  0
  7 10  2  0  0  0  0
  7 13  1  0  0  0  0
  8 16  1  0  0  0  0
  9 19  1  0  0  0  0
 10 12  1  0  0  0  0
 10 20  1  0  0  0  0
 11 23  1  0  0  0  0
 12 24  1  0  0  0  0
 13 21  1  0  0  0  0
 13 22  2  0  0  0  0
 14 15  1  0  0  0  0
 14 16  2  0  0  0  0
 14 17  1  0  0  0  0
 15 20  2  0  0  0  0
 15 21  1  0  0  0  0
 17 18  1  0  0  0  0
 18 21  1  0  0  0  0
  1 25  1  0  0  0  0
  2 26  1  0  0  0  0
  3 27  1  0  0  0  0
  4 28  1  0  0  0  0
  5 29  1  0  0  0  0
  6 30  1  0  0  0  0
 16 31  1  0  0  0  0
 17 32  1  0  0  0  0
 17 33  1  0  0  0  0
 18 34  1  0  0  0  0
 18 35  1  0  0  0  0
 19 36  1  0  0  0  0
 19 37  1  0  0  0  0
 19 38  1  0  0  0  0
M  END
> <Hybrid2>
-8.923834

> <fragments>
x0161

> <site>
active-noncovalent

$$$$
top_hits_only_mpro-105_1
  -OEChem-03302021283D

 45 47  0     1  0  0  0  0  0999 V2000
   10.7088   -3.3852   23.4259 C   0  0  0  0  0  0  0  0  0  0  0  0
   10.9144   -1.5945   25.0346 C   0  0  0  0  0  0  0  0  0  0  0  0
   10.0795   -4.1764   24.3870 C   0  0  0  0  0  0  0  0  0  0  0  0
   10.2851   -2.3856   25.9957 C   0  0  0  0  0  0  0  0  0  0  0  0
    7.5663   -0.0897   18.4806 C   0  0  0  0  0  0  0  0  0  0  0  0
    7.0684    0.5611   20.7534 C   0  0  0  0  0  0  0  0  0  0  0  0
    6.3281    0.4026   18.0684 C   0  0  0  0  0  0  0  0  0  0  0  0
    5.8301    1.0534   20.3411 C   0  0  0  0  0  0  0  0  0  0  0  0
    8.3539   -5.2020   28.4630 C   0  0  0  0  0  0  0  0  0  0  0  0
    8.9731   -4.1030   27.9159 C   0  0  0  0  0  0  0  0  0  0  0  0
    8.7859   -5.7365   26.4485 C   0  0  0  0  0  0  0  0  0  0  0  0
   11.1262   -2.0943   23.7497 C   0  0  0  0  0  0  0  0  0  0  0  0
    9.8677   -3.6766   25.6719 C   0  0  0  0  0  0  0  0  0  0  0  0
    7.9365   -0.0105   19.8232 C   0  0  0  0  0  0  0  0  0  0  0  0
    5.4600    0.9742   18.9986 C   0  0  0  0  0  0  0  0  0  0  0  0
    9.7256   -0.5160   21.5332 C   0  0  0  0  0  0  0  0  0  0  0  0
   12.2049    0.1366   23.2479 C   0  0  0  0  0  0  0  0  0  0  0  0
    3.4135    2.0260   19.5996 C   0  0  0  0  0  0  0  0  0  0  0  0
   11.7990   -1.2483   22.7222 C   0  0  2  0  0  0  0  0  0  0  0  0
    8.2407   -6.2155   27.5445 N   0  0  0  0  0  0  0  0  0  0  0  0
    9.2442   -4.4605   26.6252 N   0  0  0  0  0  0  0  0  0  0  0  0
    9.1920   -0.5097   20.2414 N   0  0  0  0  0  0  0  0  0  0  0  0
   10.9917   -1.0992   21.5231 N   0  0  0  0  0  0  0  0  0  0  0  0
    9.1887   -0.0820   22.5496 O   0  0  0  0  0  0  0  0  0  0  0  0
    4.2517    1.4546   18.5963 O   0  0  0  0  0  0  0  0  0  0  0  0
   10.8700   -3.7821   22.4271 H   0  0  0  0  0  0  0  0  0  0  0  0
   11.2364   -0.5899   25.2959 H   0  0  0  0  0  0  0  0  0  0  0  0
    9.7597   -5.1813   24.1217 H   0  0  0  0  0  0  0  0  0  0  0  0
   10.1268   -1.9831   26.9933 H   0  0  0  0  0  0  0  0  0  0  0  0
    8.2350   -0.5330   17.7471 H   0  0  0  0  0  0  0  0  0  0  0  0
    7.3461    0.6281   21.8023 H   0  0  0  0  0  0  0  0  0  0  0  0
    6.0455    0.3381   17.0211 H   0  0  0  0  0  0  0  0  0  0  0  0
    5.1581    1.4975   21.0705 H   0  0  0  0  0  0  0  0  0  0  0  0
    7.9843   -5.3149   29.4716 H   0  0  0  0  0  0  0  0  0  0  0  0
    9.2323   -3.1351   28.3231 H   0  0  0  0  0  0  0  0  0  0  0  0
    8.8748   -6.2653   25.5085 H   0  0  0  0  0  0  0  0  0  0  0  0
   11.3293    0.6828   23.6154 H   0  0  0  0  0  0  0  0  0  0  0  0
   12.9237    0.0544   24.0710 H   0  0  0  0  0  0  0  0  0  0  0  0
   12.6780    0.7427   22.4671 H   0  0  0  0  0  0  0  0  0  0  0  0
    2.4814    2.3697   19.1444 H   0  0  0  0  0  0  0  0  0  0  0  0
    3.9305    2.8640   20.0737 H   0  0  0  0  0  0  0  0  0  0  0  0
    3.1903    1.2656   20.3517 H   0  0  0  0  0  0  0  0  0  0  0  0
   12.7244   -1.7381   22.3709 H   0  0  0  0  0  0  0  0  0  0  0  0
    9.7729   -0.9123   19.5102 H   0  0  0  0  0  0  0  0  0  0  0  0
   11.3642   -1.4326   20.6441 H   0  0  0  0  0  0  0  0  0  0  0  0
  1  3  2  0  0  0  0
  1 12  1  0  0  0  0
  2  4  1  0  0  0  0
  2 12  2  0  0  0  0
  3 13  1  0  0  0  0
  4 13  2  0  0  0  0
  5  7  2  0  0  0  0
  5 14  1  0  0  0  0
  6  8  1  0  0  0  0
  6 14  2  0  0  0  0
  7 15  1  0  0  0  0
  8 15  2  0  0  0  0
  9 10  2  0  0  0  0
  9 20  1  0  0  0  0
 10 21  1  0  0  0  0
 11 20  2  0  0  0  0
 11 21  1  0  0  0  0
 12 19  1  0  0  0  0
 13 21  1  0  0  0  0
 14 22  1  0  0  0  0
 15 25  1  0  0  0  0
 16 22  1  0  0  0  0
 16 23  1  0  0  0  0
 16 24  2  0  0  0  0
 17 19  1  0  0  0  0
 18 25  1  0  0  0  0
 19 23  1  0  0  0  0
  1 26  1  0  0  0  0
  2 27  1  0  0  0  0
  3 28  1  0  0  0  0
  4 29  1  0  0  0  0
  5 30  1  0  0  0  0
  6 31  1  0  0  0  0
  7 32  1  0  0  0  0
  8 33  1  0  0  0  0
  9 34  1  0  0  0  0
 10 35  1  0  0  0  0
 11 36  1  0  0  0  0
 17 37  1  0  0  0  0
 17 38  1  0  0  0  0
 17 39  1  0  0  0  0
 18 40  1  0  0  0  0
 18 41  1  0  0  0  0
 18 42  1  0  0  0  0
 19 43  1  0  0  0  0
 22 44  1  0  0  0  0
 23 45  1  0  0  0  0
M  END
> <Hybrid2>
-8.898511

> <fragments>
x0387

> <site>
active-noncovalent

$$$$
top_hits_only_mpro-78_1
  -OEChem-03302021283D

 44 47  0     1  0  0  0  0  0999 V2000
    7.7033   -6.5168   21.9155 C   0  0  0  0  0  0  0  0  0  0  0  0
    6.3213   -6.5198   22.0624 C   0  0  0  0  0  0  0  0  0  0  0  0
   12.7682    0.4348   24.5884 C   0  0  0  0  0  0  0  0  0  0  0  0
   12.5359   -0.6384   25.4365 C   0  0  0  0  0  0  0  0  0  0  0  0
    8.4027   -5.3064   21.8626 C   0  0  0  0  0  0  0  0  0  0  0  0
    5.6376   -5.3123   22.1471 C   0  0  0  0  0  0  0  0  0  0  0  0
   11.5024   -2.8224   25.8412 C   0  0  0  0  0  0  0  0  0  0  0  0
   10.1985   -3.8501   24.1032 C   0  0  0  0  0  0  0  0  0  0  0  0
   12.2068    0.3857   23.3286 C   0  0  0  0  0  0  0  0  0  0  0  0
   11.7563   -1.7207   25.0066 C   0  0  0  0  0  0  0  0  0  0  0  0
   10.4511   -2.7547   23.2737 C   0  0  0  0  0  0  0  0  0  0  0  0
   11.2253   -1.6791   23.7004 C   0  0  0  0  0  0  0  0  0  0  0  0
    7.7418   -4.0688   21.9578 C   0  0  0  0  0  0  0  0  0  0  0  0
    6.3397   -4.1030   22.0820 C   0  0  0  0  0  0  0  0  0  0  0  0
   10.7247   -3.8843   25.3887 C   0  0  0  0  0  0  0  0  0  0  0  0
    6.1433   -1.5840   20.3095 C   0  0  0  0  0  0  0  0  0  0  0  0
    7.6465   -1.6813   22.3344 C   0  0  0  0  0  0  0  0  0  0  0  0
    6.2247   -1.7624   21.7991 C   0  0  2  0  0  0  0  0  0  0  0  0
    6.6753   -0.0068   18.4624 C   0  0  0  0  0  0  0  0  0  0  0  0
    9.8606   -2.7645   21.8933 C   0  0  0  0  0  0  0  0  0  0  0  0
   11.4491   -0.6391   22.8751 N   0  0  0  0  0  0  0  0  0  0  0  0
    8.4108   -2.8507   21.9229 N   0  0  1  0  0  0  0  0  0  0  0  0
    6.6530   -0.3816   19.8581 N   0  0  0  0  0  0  0  0  0  0  0  0
    5.6556   -2.4723   19.6204 O   0  0  0  0  0  0  0  0  0  0  0  0
    5.5648   -2.9704   22.1591 O   0  0  0  0  0  0  0  0  0  0  0  0
   10.4853   -4.9322   26.1874 F   0  0  0  0  0  0  0  0  0  0  0  0
    8.2427   -7.4561   21.8364 H   0  0  0  0  0  0  0  0  0  0  0  0
    5.7793   -7.4588   22.1132 H   0  0  0  0  0  0  0  0  0  0  0  0
   13.3682    1.2799   24.9047 H   0  0  0  0  0  0  0  0  0  0  0  0
   12.9662   -0.6258   26.4353 H   0  0  0  0  0  0  0  0  0  0  0  0
    9.4816   -5.3570   21.7342 H   0  0  0  0  0  0  0  0  0  0  0  0
    4.5573   -5.3151   22.2733 H   0  0  0  0  0  0  0  0  0  0  0  0
   11.9095   -2.8595   26.8491 H   0  0  0  0  0  0  0  0  0  0  0  0
    9.5916   -4.6804   23.7520 H   0  0  0  0  0  0  0  0  0  0  0  0
   12.3543    1.1960   22.6222 H   0  0  0  0  0  0  0  0  0  0  0  0
    8.1559   -0.7752   21.9607 H   0  0  0  0  0  0  0  0  0  0  0  0
    7.6246   -1.5957   23.4342 H   0  0  0  0  0  0  0  0  0  0  0  0
    5.6099   -0.8959   22.2457 H   0  0  0  0  0  0  0  0  0  0  0  0
    7.6168   -0.3465   18.0060 H   0  0  0  0  0  0  0  0  0  0  0  0
    5.8263   -0.4757   17.9433 H   0  0  0  0  0  0  0  0  0  0  0  0
    6.5995    1.0871   18.3753 H   0  0  0  0  0  0  0  0  0  0  0  0
   10.1333   -1.8529   21.3503 H   0  0  0  0  0  0  0  0  0  0  0  0
   10.2347   -3.6136   21.3118 H   0  0  0  0  0  0  0  0  0  0  0  0
    7.0299    0.2701   20.5397 H   0  0  0  0  0  0  0  0  0  0  0  0
  1  2  2  0  0  0  0
  1  5  1  0  0  0  0
  2  6  1  0  0  0  0
  3  4  2  0  0  0  0
  3  9  1  0  0  0  0
  4 10  1  0  0  0  0
  5 13  2  0  0  0  0
  6 14  2  0  0  0  0
  7 10  2  0  0  0  0
  7 15  1  0  0  0  0
  8 11  1  0  0  0  0
  8 15  2  0  0  0  0
  9 21  2  0  0  0  0
 10 12  1  0  0  0  0
 11 12  2  0  0  0  0
 11 20  1  0  0  0  0
 12 21  1  0  0  0  0
 13 14  1  0  0  0  0
 13 22  1  0  0  0  0
 14 25  1  0  0  0  0
 15 26  1  0  0  0  0
 16 18  1  0  0  0  0
 16 23  1  0  0  0  0
 16 24  2  0  0  0  0
 17 18  1  0  0  0  0
 17 22  1  0  0  0  0
 18 25  1  0  0  0  0
 19 23  1  0  0  0  0
 20 22  1  0  0  0  0
  1 27  1  0  0  0  0
  2 28  1  0  0  0  0
  3 29  1  0  0  0  0
  4 30  1  0  0  0  0
  5 31  1  0  0  0  0
  6 32  1  0  0  0  0
  7 33  1  0  0  0  0
  8 34  1  0  0  0  0
  9 35  1  0  0  0  0
 17 36  1  0  0  0  0
 17 37  1  0  0  0  0
 18 38  1  0  0  0  0
 19 39  1  0  0  0  0
 19 40  1  0  0  0  0
 19 41  1  0  0  0  0
 20 42  1  0  0  0  0
 20 43  1  0  0  0  0
 23 44  1  0  0  0  0
M  END
> <Hybrid2>
-8.891710

> <fragments>
x0749

> <site>
active-covalent

$$$$
top_hits_only_mpro-2_1
  -OEChem-03302021283D

 43 46  0     1  0  0  0  0  0999 V2000
   12.9393   -1.0173   21.9181 C   0  0  0  0  0  0  0  0  0  0  0  0
   13.4084   -0.0068   22.7551 C   0  0  0  0  0  0  0  0  0  0  0  0
    5.9917   -1.8553   19.8873 C   0  0  0  0  0  0  0  0  0  0  0  0
    6.2350   -0.5582   19.4494 C   0  0  0  0  0  0  0  0  0  0  0  0
   11.6192   -1.4722   22.0147 C   0  0  0  0  0  0  0  0  0  0  0  0
   12.5764    0.5801   23.7128 C   0  0  0  0  0  0  0  0  0  0  0  0
    7.0235   -4.1469   25.5326 C   0  0  0  0  0  0  0  0  0  0  0  0
    9.2292   -4.1579   24.5468 C   0  0  0  0  0  0  0  0  0  0  0  0
    7.4103   -5.1604   26.4094 C   0  0  0  0  0  0  0  0  0  0  0  0
    9.6161   -5.1713   25.4237 C   0  0  0  0  0  0  0  0  0  0  0  0
    6.7140   -2.3683   20.9589 C   0  0  0  0  0  0  0  0  0  0  0  0
    7.2034    0.1789   20.1118 C   0  0  0  0  0  0  0  0  0  0  0  0
   10.7619   -0.8956   22.9728 C   0  0  0  0  0  0  0  0  0  0  0  0
    9.4028   -1.1034   23.3398 C   0  0  0  0  0  0  0  0  0  0  0  0
   11.2593    0.1152   23.7981 C   0  0  0  0  0  0  0  0  0  0  0  0
    7.9330   -3.6457   24.6012 C   0  0  0  0  0  0  0  0  0  0  0  0
    8.7066   -5.6726   26.3550 C   0  0  0  0  0  0  0  0  0  0  0  0
    7.6610   -1.5502   21.5536 C   0  0  0  0  0  0  0  0  0  0  0  0
    9.1070   -0.2312   24.3619 C   0  0  0  0  0  0  0  0  0  0  0  0
    7.8595   -0.0134   25.1197 C   0  0  0  0  0  0  0  0  0  0  0  0
    8.4744   -2.0811   22.7346 C   0  0  2  0  0  0  0  0  0  0  0  0
    7.9252   -0.2853   21.1563 N   0  0  0  0  0  0  0  0  0  0  0  0
   10.2329    0.4997   24.6312 N   0  0  0  0  0  0  0  0  0  0  0  0
    7.5541   -2.6535   23.7418 N   0  0  0  0  0  0  0  0  0  0  0  0
    9.2311   -7.0443   27.5442 Br  0  0  0  0  0  0  0  0  0  0  0  0
   13.6051   -1.4575   21.1806 H   0  0  0  0  0  0  0  0  0  0  0  0
   14.4374    0.3310   22.6629 H   0  0  0  0  0  0  0  0  0  0  0  0
    5.2406   -2.4650   19.3942 H   0  0  0  0  0  0  0  0  0  0  0  0
    5.6841   -0.1376   18.6161 H   0  0  0  0  0  0  0  0  0  0  0  0
   11.2688   -2.2604   21.3546 H   0  0  0  0  0  0  0  0  0  0  0  0
   12.9420    1.3674   24.3639 H   0  0  0  0  0  0  0  0  0  0  0  0
    6.0109   -3.7552   25.5828 H   0  0  0  0  0  0  0  0  0  0  0  0
    9.9453   -3.7745   23.8242 H   0  0  0  0  0  0  0  0  0  0  0  0
    6.6889   -5.5411   27.1278 H   0  0  0  0  0  0  0  0  0  0  0  0
   10.6293   -5.5608   25.3673 H   0  0  0  0  0  0  0  0  0  0  0  0
    6.5337   -3.3787   21.3101 H   0  0  0  0  0  0  0  0  0  0  0  0
    7.4309    1.1957   19.8090 H   0  0  0  0  0  0  0  0  0  0  0  0
    7.8178   -0.6606   26.0112 H   0  0  0  0  0  0  0  0  0  0  0  0
    7.7585    1.0316   25.4594 H   0  0  0  0  0  0  0  0  0  0  0  0
    6.9633   -0.2236   24.5110 H   0  0  0  0  0  0  0  0  0  0  0  0
    9.0232   -2.9716   22.3627 H   0  0  0  0  0  0  0  0  0  0  0  0
   10.3044    1.2186   25.3382 H   0  0  0  0  0  0  0  0  0  0  0  0
    6.6320   -2.2738   23.7638 H   0  0  0  0  0  0  0  0  0  0  0  0
  1  2  2  0  0  0  0
  1  5  1  0  0  0  0
  2  6  1  0  0  0  0
  3  4  1  0  0  0  0
  3 11  2  0  0  0  0
  4 12  2  0  0  0  0
  5 13  2  0  0  0  0
  6 15  2  0  0  0  0
  7  9  2  0  0  0  0
  7 16  1  0  0  0  0
  8 10  1  0  0  0  0
  8 16  2  0  0  0  0
  9 17  1  0  0  0  0
 10 17  2  0  0  0  0
 11 18  1  0  0  0  0
 12 22  1  0  0  0  0
 13 14  1  0  0  0  0
 13 15  1  0  0  0  0
 14 19  2  0  0  0  0
 14 21  1  0  0  0  0
 15 23  1  0  0  0  0
 16 24  1  0  0  0  0
 17 25  1  0  0  0  0
 18 21  1  0  0  0  0
 18 22  2  0  0  0  0
 19 20  1  0  0  0  0
 19 23  1  0  0  0  0
 21 24  1  0  0  0  0
  1 26  1  0  0  0  0
  2 27  1  0  0  0  0
  3 28  1  0  0  0  0
  4 29  1  0  0  0  0
  5 30  1  0  0  0  0
  6 31  1  0  0  0  0
  7 32  1  0  0  0  0
  8 33  1  0  0  0  0
  9 34  1  0  0  0  0
 10 35  1  0  0  0  0
 11 36  1  0  0  0  0
 12 37  1  0  0  0  0
 20 38  1  0  0  0  0
 20 39  1  0  0  0  0
 20 40  1  0  0  0  0
 21 41  1  0  0  0  0
 23 42  1  0  0  0  0
 24 43  1  0  0  0  0
M  END
> <Hybrid2>
-8.873873

> <fragments>
x1392

> <site>
active-covalent

$$$$
top_hits_only_mpro-120_1
  -OEChem-03302021283D

 40 43  0     0  0  0  0  0  0999 V2000
    8.1730    1.6749   23.2439 C   0  0  0  0  0  0  0  0  0  0  0  0
    8.5054    0.3917   23.6744 C   0  0  0  0  0  0  0  0  0  0  0  0
    5.3700   -6.2848   26.2535 C   0  0  0  0  0  0  0  0  0  0  0  0
    8.6410    2.1077   22.0105 C   0  0  0  0  0  0  0  0  0  0  0  0
    6.1291   -5.9178   27.3460 C   0  0  0  0  0  0  0  0  0  0  0  0
   10.5575   -1.9055   21.7118 C   0  0  0  0  0  0  0  0  0  0  0  0
    9.3017   -0.3977   22.8291 C   0  0  0  0  0  0  0  0  0  0  0  0
    9.8493   -1.7070   22.8774 C   0  0  0  0  0  0  0  0  0  0  0  0
    9.7016    0.1621   21.6192 C   0  0  0  0  0  0  0  0  0  0  0  0
    5.9517   -6.0652   25.0215 C   0  0  0  0  0  0  0  0  0  0  0  0
    7.8190   -5.2136   25.9987 C   0  0  0  0  0  0  0  0  0  0  0  0
    9.5645   -2.3438   25.2471 C   0  0  0  0  0  0  0  0  0  0  0  0
    9.7137   -2.7130   23.9582 C   0  0  0  0  0  0  0  0  0  0  0  0
    9.4134   -3.3237   26.3808 C   0  0  0  0  0  0  0  0  0  0  0  0
    9.7344   -4.1789   23.5684 C   0  0  0  0  0  0  0  0  0  0  0  0
    9.9546   -5.1071   24.7719 C   0  0  0  0  0  0  0  0  0  0  0  0
    5.9094   -6.1541   22.6454 C   0  0  0  0  0  0  0  0  0  0  0  0
    9.4096    1.3924   21.1566 N   0  0  0  0  0  0  0  0  0  0  0  0
    7.3619   -5.3775   27.2547 N   0  0  0  0  0  0  0  0  0  0  0  0
    7.1788   -5.5294   24.8567 N   0  0  0  0  0  0  0  0  0  0  0  0
   10.4615   -0.7656   20.9565 N   0  0  0  0  0  0  0  0  0  0  0  0
    9.0894   -4.6574   25.8665 N   0  0  0  0  0  0  0  0  0  0  0  0
    5.2615   -6.4026   23.8875 O   0  0  0  0  0  0  0  0  0  0  0  0
    7.5601    2.3232   23.8611 H   0  0  0  0  0  0  0  0  0  0  0  0
    8.1560    0.0245   24.6342 H   0  0  0  0  0  0  0  0  0  0  0  0
    4.3837   -6.7158   26.3626 H   0  0  0  0  0  0  0  0  0  0  0  0
    8.3916    3.1054   21.6591 H   0  0  0  0  0  0  0  0  0  0  0  0
    5.7557   -6.0519   28.3555 H   0  0  0  0  0  0  0  0  0  0  0  0
   11.1226   -2.7530   21.3475 H   0  0  0  0  0  0  0  0  0  0  0  0
    9.5545   -1.2957   25.5108 H   0  0  0  0  0  0  0  0  0  0  0  0
   10.3502   -3.3631   26.9372 H   0  0  0  0  0  0  0  0  0  0  0  0
    8.6231   -2.9676   27.0433 H   0  0  0  0  0  0  0  0  0  0  0  0
    8.7846   -4.4594   23.0949 H   0  0  0  0  0  0  0  0  0  0  0  0
   10.5251   -4.3403   22.8238 H   0  0  0  0  0  0  0  0  0  0  0  0
    9.7210   -6.1417   24.5074 H   0  0  0  0  0  0  0  0  0  0  0  0
   11.0072   -5.0586   25.0610 H   0  0  0  0  0  0  0  0  0  0  0  0
    5.2579   -6.4652   21.8251 H   0  0  0  0  0  0  0  0  0  0  0  0
    6.8508   -6.7080   22.6073 H   0  0  0  0  0  0  0  0  0  0  0  0
    6.1145   -5.0845   22.5592 H   0  0  0  0  0  0  0  0  0  0  0  0
   10.8859   -0.6300   20.0494 H   0  0  0  0  0  0  0  0  0  0  0  0
  1  2  1  0  0  0  0
  1  4  2  0  0  0  0
  2  7  2  0  0  0  0
  3  5  2  0  0  0  0
  3 10  1  0  0  0  0
  4 18  1  0  0  0  0
  5 19  1  0  0  0  0
  6  8  2  0  0  0  0
  6 21  1  0  0  0  0
  7  8  1  0  0  0  0
  7  9  1  0  0  0  0
  8 13  1  0  0  0  0
  9 18  2  0  0  0  0
  9 21  1  0  0  0  0
 10 20  2  0  0  0  0
 10 23  1  0  0  0  0
 11 19  2  0  0  0  0
 11 20  1  0  0  0  0
 11 22  1  0  0  0  0
 12 13  2  0  0  0  0
 12 14  1  0  0  0  0
 13 15  1  0  0  0  0
 14 22  1  0  0  0  0
 15 16  1  0  0  0  0
 16 22  1  0  0  0  0
 17 23  1  0  0  0  0
  1 24  1  0  0  0  0
  2 25  1  0  0  0  0
  3 26  1  0  0  0  0
  4 27  1  0  0  0  0
  5 28  1  0  0  0  0
  6 29  1  0  0  0  0
 12 30  1  0  0  0  0
 14 31  1  0  0  0  0
 14 32  1  0  0  0  0
 15 33  1  0  0  0  0
 15 34  1  0  0  0  0
 16 35  1  0  0  0  0
 16 36  1  0  0  0  0
 17 37  1  0  0  0  0
 17 38  1  0  0  0  0
 17 39  1  0  0  0  0
 21 40  1  0  0  0  0
M  END
> <Hybrid2>
-8.853418

> <fragments>
x1077

> <site>
active-noncovalent

$$$$
top_hits_only_mpro-332_1
  -OEChem-03302021283D

 41 43  0     1  0  0  0  0  0999 V2000
   10.5881   -2.9260   23.8213 C   0  0  0  0  0  0  0  0  0  0  0  0
   10.9505   -1.0768   25.3333 C   0  0  0  0  0  0  0  0  0  0  0  0
    9.9233   -3.6214   24.8311 C   0  0  0  0  0  0  0  0  0  0  0  0
   10.2855   -1.7722   26.3432 C   0  0  0  0  0  0  0  0  0  0  0  0
    7.5920    0.3357   18.7643 C   0  0  0  0  0  0  0  0  0  0  0  0
    6.3837    0.8934   18.3466 C   0  0  0  0  0  0  0  0  0  0  0  0
    7.1838    1.1323   21.0084 C   0  0  0  0  0  0  0  0  0  0  0  0
    8.0280   -5.2317   28.2331 C   0  0  0  0  0  0  0  0  0  0  0  0
    8.5624   -4.9800   26.9915 C   0  0  0  0  0  0  0  0  0  0  0  0
    8.8938   -3.2920   28.3689 C   0  0  0  0  0  0  0  0  0  0  0  0
   11.1018   -1.6536   24.0724 C   0  0  0  0  0  0  0  0  0  0  0  0
    9.7719   -3.0446   26.0921 C   0  0  0  0  0  0  0  0  0  0  0  0
    7.9921    0.4551   20.0953 C   0  0  0  0  0  0  0  0  0  0  0  0
    5.5755    1.5706   19.2597 C   0  0  0  0  0  0  0  0  0  0  0  0
    5.9755    1.6900   20.5906 C   0  0  0  0  0  0  0  0  0  0  0  0
    9.7736   -0.0914   21.8006 C   0  0  0  0  0  0  0  0  0  0  0  0
   12.3254    0.4668   23.4408 C   0  0  0  0  0  0  0  0  0  0  0  0
   11.8127   -0.9100   22.9927 C   0  0  2  0  0  0  0  0  0  0  0  0
    8.2373   -4.1769   29.0858 N   0  0  0  0  0  0  0  0  0  0  0  0
    9.1132   -3.7337   27.0937 N   0  0  0  0  0  0  0  0  0  0  0  0
    9.2171   -0.1112   20.5187 N   0  0  0  0  0  0  0  0  0  0  0  0
   10.9950   -0.7633   21.8004 N   0  0  0  0  0  0  0  0  0  0  0  0
    9.2883    0.4298   22.8019 O   0  0  0  0  0  0  0  0  0  0  0  0
    4.0918    2.2421   18.6800 Cl  0  0  0  0  0  0  0  0  0  0  0  0
    5.0188    2.5188   21.7682 Cl  0  0  0  0  0  0  0  0  0  0  0  0
   10.7018   -3.3825   22.8416 H   0  0  0  0  0  0  0  0  0  0  0  0
   11.3476   -0.0861   25.5380 H   0  0  0  0  0  0  0  0  0  0  0  0
    9.5283   -4.6129   24.6224 H   0  0  0  0  0  0  0  0  0  0  0  0
   10.1752   -1.3104   27.3213 H   0  0  0  0  0  0  0  0  0  0  0  0
    8.2136   -0.1913   18.0450 H   0  0  0  0  0  0  0  0  0  0  0  0
    6.0871    0.7893   17.3058 H   0  0  0  0  0  0  0  0  0  0  0  0
    7.5019    1.2233   22.0451 H   0  0  0  0  0  0  0  0  0  0  0  0
    7.5029   -6.1186   28.5560 H   0  0  0  0  0  0  0  0  0  0  0  0
    8.5944   -5.5624   26.0806 H   0  0  0  0  0  0  0  0  0  0  0  0
    9.2305   -2.3250   28.7194 H   0  0  0  0  0  0  0  0  0  0  0  0
   11.4977    1.0917   23.7937 H   0  0  0  0  0  0  0  0  0  0  0  0
   13.0522    0.3744   24.2556 H   0  0  0  0  0  0  0  0  0  0  0  0
   12.8249    0.9980   22.6228 H   0  0  0  0  0  0  0  0  0  0  0  0
   12.6943   -1.4815   22.6523 H   0  0  0  0  0  0  0  0  0  0  0  0
    9.7540   -0.5900   19.7999 H   0  0  0  0  0  0  0  0  0  0  0  0
   11.3261   -1.1657   20.9337 H   0  0  0  0  0  0  0  0  0  0  0  0
  1  3  2  0  0  0  0
  1 11  1  0  0  0  0
  2  4  1  0  0  0  0
  2 11  2  0  0  0  0
  3 12  1  0  0  0  0
  4 12  2  0  0  0  0
  5  6  2  0  0  0  0
  5 13  1  0  0  0  0
  6 14  1  0  0  0  0
  7 13  2  0  0  0  0
  7 15  1  0  0  0  0
  8  9  2  0  0  0  0
  8 19  1  0  0  0  0
  9 20  1  0  0  0  0
 10 19  2  0  0  0  0
 10 20  1  0  0  0  0
 11 18  1  0  0  0  0
 12 20  1  0  0  0  0
 13 21  1  0  0  0  0
 14 15  2  0  0  0  0
 14 24  1  0  0  0  0
 15 25  1  0  0  0  0
 16 21  1  0  0  0  0
 16 22  1  0  0  0  0
 16 23  2  0  0  0  0
 17 18  1  0  0  0  0
 18 22  1  0  0  0  0
  1 26  1  0  0  0  0
  2 27  1  0  0  0  0
  3 28  1  0  0  0  0
  4 29  1  0  0  0  0
  5 30  1  0  0  0  0
  6 31  1  0  0  0  0
  7 32  1  0  0  0  0
  8 33  1  0  0  0  0
  9 34  1  0  0  0  0
 10 35  1  0  0  0  0
 17 36  1  0  0  0  0
 17 37  1  0  0  0  0
 17 38  1  0  0  0  0
 18 39  1  0  0  0  0
 21 40  1  0  0  0  0
 22 41  1  0  0  0  0
M  END
> <Hybrid2>
-8.820930

> <fragments>
x0387

> <site>
active-noncovalent

$$$$
top_hits_only_mpro-455_1
  -OEChem-03302021283D

 42 45  0     1  0  0  0  0  0999 V2000
    7.4986   -1.7280   24.4125 C   0  0  0  0  0  0  0  0  0  0  0  0
    7.0649   -2.8794   23.7472 C   0  0  0  0  0  0  0  0  0  0  0  0
    7.2198   -0.3811   22.3959 C   0  0  0  0  0  0  0  0  0  0  0  0
    7.5754   -0.4895   23.7424 C   0  0  0  0  0  0  0  0  0  0  0  0
   10.5676   -0.8928   23.3299 C   0  0  0  0  0  0  0  0  0  0  0  0
    6.7978   -1.5341   21.7738 C   0  0  0  0  0  0  0  0  0  0  0  0
    6.7194   -2.7491   22.4196 C   0  0  0  0  0  0  0  0  0  0  0  0
   10.5313   -2.3001   23.3358 C   0  0  0  0  0  0  0  0  0  0  0  0
   10.6388   -0.5567   22.0001 C   0  0  0  0  0  0  0  0  0  0  0  0
    6.0678   -3.0950   20.3685 C   0  0  0  0  0  0  0  0  0  0  0  0
    8.0341    0.7012   24.4721 C   0  0  0  0  0  0  0  0  0  0  0  0
   11.2501    2.2447   25.1686 C   0  0  0  0  0  0  0  0  0  0  0  0
   11.7770    0.9492   24.5662 C   0  0  0  0  0  0  0  0  0  0  0  0
    9.8647    2.3607   24.5573 C   0  0  0  0  0  0  0  0  0  0  0  0
   10.5343    0.0441   24.5171 C   0  0  1  0  0  0  0  0  0  0  0  0
   10.4542   -3.1973   24.5024 C   0  0  0  0  0  0  0  0  0  0  0  0
   10.7020    0.7432   21.3109 C   0  0  0  0  0  0  0  0  0  0  0  0
   10.5756   -2.8222   22.1072 N   0  0  0  0  0  0  0  0  0  0  0  0
   10.6404   -1.7371   21.3169 N   0  0  0  0  0  0  0  0  0  0  0  0
    6.3883   -1.7520   20.4851 N   0  0  0  0  0  0  0  0  0  0  0  0
    9.3956    0.9845   24.4730 N   0  0  0  0  0  0  0  0  0  0  0  0
    5.6628   -3.6594   19.3599 O   0  0  0  0  0  0  0  0  0  0  0  0
    7.1712    1.3757   25.0320 O   0  0  0  0  0  0  0  0  0  0  0  0
    6.2682   -3.7638   21.5897 O   0  0  0  0  0  0  0  0  0  0  0  0
    7.7775   -1.7982   25.4616 H   0  0  0  0  0  0  0  0  0  0  0  0
    7.0053   -3.8317   24.2605 H   0  0  0  0  0  0  0  0  0  0  0  0
    7.2715    0.5624   21.8644 H   0  0  0  0  0  0  0  0  0  0  0  0
   11.2255    2.2155   26.2597 H   0  0  0  0  0  0  0  0  0  0  0  0
   11.8734    3.0882   24.8552 H   0  0  0  0  0  0  0  0  0  0  0  0
   12.2465    1.1097   23.5944 H   0  0  0  0  0  0  0  0  0  0  0  0
   12.5169    0.5131   25.2443 H   0  0  0  0  0  0  0  0  0  0  0  0
    9.1835    2.9046   25.2149 H   0  0  0  0  0  0  0  0  0  0  0  0
    9.8645    2.8306   23.5741 H   0  0  0  0  0  0  0  0  0  0  0  0
   10.4737   -0.5736   25.4453 H   0  0  0  0  0  0  0  0  0  0  0  0
    9.4064   -3.4143   24.7711 H   0  0  0  0  0  0  0  0  0  0  0  0
   10.9579   -4.1627   24.3190 H   0  0  0  0  0  0  0  0  0  0  0  0
   10.9438   -2.7649   25.3929 H   0  0  0  0  0  0  0  0  0  0  0  0
   11.7460    1.0729   21.1723 H   0  0  0  0  0  0  0  0  0  0  0  0
   10.2288    0.7100   20.3133 H   0  0  0  0  0  0  0  0  0  0  0  0
   10.1740    1.5372   21.8689 H   0  0  0  0  0  0  0  0  0  0  0  0
   10.6861   -1.8769   20.3150 H   0  0  0  0  0  0  0  0  0  0  0  0
    6.3302   -1.0575   19.7507 H   0  0  0  0  0  0  0  0  0  0  0  0
  1  2  1  0  0  0  0
  1  4  2  0  0  0  0
  2  7  2  0  0  0  0
  3  4  1  0  0  0  0
  3  6  2  0  0  0  0
  4 11  1  0  0  0  0
  5  8  1  0  0  0  0
  5  9  2  0  0  0  0
  5 15  1  0  0  0  0
  6  7  1  0  0  0  0
  6 20  1  0  0  0  0
  7 24  1  0  0  0  0
  8 16  1  0  0  0  0
  8 18  2  0  0  0  0
  9 17  1  0  0  0  0
  9 19  1  0  0  0  0
 10 20  1  0  0  0  0
 10 22  2  0  0  0  0
 10 24  1  0  0  0  0
 11 21  1  0  0  0  0
 11 23  2  0  0  0  0
 12 13  1  0  0  0  0
 12 14  1  0  0  0  0
 13 15  1  0  0  0  0
 14 21  1  0  0  0  0
 15 21  1  0  0  0  0
 18 19  1  0  0  0  0
  1 25  1  0  0  0  0
  2 26  1  0  0  0  0
  3 27  1  0  0  0  0
 12 28  1  0  0  0  0
 12 29  1  0  0  0  0
 13 30  1  0  0  0  0
 13 31  1  0  0  0  0
 14 32  1  0  0  0  0
 14 33  1  0  0  0  0
 15 34  1  0  0  0  0
 16 35  1  0  0  0  0
 16 36  1  0  0  0  0
 16 37  1  0  0  0  0
 17 38  1  0  0  0  0
 17 39  1  0  0  0  0
 17 40  1  0  0  0  0
 19 41  1  0  0  0  0
 20 42  1  0  0  0  0
M  END
> <Hybrid2>
-8.810550

> <fragments>
x0831

> <site>
active-covalent

$$$$
top_hits_only_mpro-247_1
  -OEChem-03302021283D

 33 35  0     0  0  0  0  0  0999 V2000
   13.8787   -0.9712   26.1016 C   0  0  0  0  0  0  0  0  0  0  0  0
    6.1397   -5.7247   23.7610 C   0  0  0  0  0  0  0  0  0  0  0  0
    7.6178   -6.1665   21.9158 C   0  0  0  0  0  0  0  0  0  0  0  0
   14.3774   -2.2692   25.8818 C   0  0  0  0  0  0  0  0  0  0  0  0
    5.2384   -5.2070   22.8449 C   0  0  0  0  0  0  0  0  0  0  0  0
    6.6502   -5.6292   21.0823 C   0  0  0  0  0  0  0  0  0  0  0  0
   12.5326   -1.0731   25.8483 C   0  0  0  0  0  0  0  0  0  0  0  0
    8.8523   -2.6730   24.8433 C   0  0  0  0  0  0  0  0  0  0  0  0
    7.3499   -6.2116   23.2794 C   0  0  0  0  0  0  0  0  0  0  0  0
   11.0124   -4.2679   24.8392 C   0  0  0  0  0  0  0  0  0  0  0  0
   11.0878   -2.9293   25.1659 C   0  0  0  0  0  0  0  0  0  0  0  0
    9.7545   -4.7334   24.5149 C   0  0  0  0  0  0  0  0  0  0  0  0
    8.3565   -6.7792   24.2216 C   0  0  0  0  0  0  0  0  0  0  0  0
    5.4632   -5.1464   21.5132 N   0  0  0  0  0  0  0  0  0  0  0  0
   13.4255   -3.1324   25.5171 N   0  0  0  0  0  0  0  0  0  0  0  0
   10.0239   -2.0996   25.1782 N   0  0  0  0  0  0  0  0  0  0  0  0
    8.6483   -3.9609   24.5069 N   0  0  0  0  0  0  0  0  0  0  0  0
   12.3152   -2.3753   25.5058 N   0  0  0  0  0  0  0  0  0  0  0  0
   12.1409   -5.1043   24.8368 N   0  0  0  0  0  0  0  0  0  0  0  0
    9.6106   -6.0708   24.1759 N   0  0  0  0  0  0  0  0  0  0  0  0
   14.4189   -0.0858   26.4023 H   0  0  0  0  0  0  0  0  0  0  0  0
    5.9009   -5.7447   24.8189 H   0  0  0  0  0  0  0  0  0  0  0  0
    8.5522   -6.5386   21.5100 H   0  0  0  0  0  0  0  0  0  0  0  0
   15.3946   -2.6227   25.9722 H   0  0  0  0  0  0  0  0  0  0  0  0
    4.2807   -4.8134   23.1697 H   0  0  0  0  0  0  0  0  0  0  0  0
    6.8107   -5.5712   20.0108 H   0  0  0  0  0  0  0  0  0  0  0  0
   11.7357   -0.3421   25.8856 H   0  0  0  0  0  0  0  0  0  0  0  0
    7.9811   -2.0295   24.8445 H   0  0  0  0  0  0  0  0  0  0  0  0
    7.9943   -6.7415   25.2587 H   0  0  0  0  0  0  0  0  0  0  0  0
    8.5683   -7.8340   23.9982 H   0  0  0  0  0  0  0  0  0  0  0  0
   13.0440   -4.7153   25.0332 H   0  0  0  0  0  0  0  0  0  0  0  0
   12.0463   -6.0596   24.5470 H   0  0  0  0  0  0  0  0  0  0  0  0
   10.4383   -6.5786   23.8797 H   0  0  0  0  0  0  0  0  0  0  0  0
  1  4  1  0  0  0  0
  1  7  2  0  0  0  0
  2  5  2  0  0  0  0
  2  9  1  0  0  0  0
  3  6  1  0  0  0  0
  3  9  2  0  0  0  0
  4 15  2  0  0  0  0
  5 14  1  0  0  0  0
  6 14  2  0  0  0  0
  7 18  1  0  0  0  0
  8 16  2  0  0  0  0
  8 17  1  0  0  0  0
  9 13  1  0  0  0  0
 10 11  2  0  0  0  0
 10 12  1  0  0  0  0
 10 19  1  0  0  0  0
 11 16  1  0  0  0  0
 11 18  1  0  0  0  0
 12 17  2  0  0  0  0
 12 20  1  0  0  0  0
 13 20  1  0  0  0  0
 15 18  1  0  0  0  0
  1 21  1  0  0  0  0
  2 22  1  0  0  0  0
  3 23  1  0  0  0  0
  4 24  1  0  0  0  0
  5 25  1  0  0  0  0
  6 26  1  0  0  0  0
  7 27  1  0  0  0  0
  8 28  1  0  0  0  0
 13 29  1  0  0  0  0
 13 30  1  0  0  0  0
 19 31  1  0  0  0  0
 19 32  1  0  0  0  0
 20 33  1  0  0  0  0
M  END
> <Hybrid2>
-8.809822

> <fragments>
x0749

> <site>
active-covalent

$$$$
top_hits_only_mpro-333_1
  -OEChem-03302021283D

 38 40  0     1  0  0  0  0  0999 V2000
    5.9537    0.9639   20.0933 C   0  0  0  0  0  0  0  0  0  0  0  0
    5.5220    1.0278   18.7731 C   0  0  0  0  0  0  0  0  0  0  0  0
   12.5098    0.0224   24.0687 C   0  0  0  0  0  0  0  0  0  0  0  0
   12.7179    1.1644   24.8443 C   0  0  0  0  0  0  0  0  0  0  0  0
    7.2416    0.5234   20.3771 C   0  0  0  0  0  0  0  0  0  0  0  0
   12.4095    1.3579   22.0278 C   0  0  0  0  0  0  0  0  0  0  0  0
    6.4095    0.6431   17.7812 C   0  0  0  0  0  0  0  0  0  0  0  0
   12.6154    2.4825   22.8030 C   0  0  0  0  0  0  0  0  0  0  0  0
   12.3568    0.1180   22.6727 C   0  0  0  0  0  0  0  0  0  0  0  0
   12.7654    2.3748   24.1832 C   0  0  0  0  0  0  0  0  0  0  0  0
    8.0521    0.1611   19.3134 C   0  0  0  0  0  0  0  0  0  0  0  0
   12.9434    4.6255   23.7411 C   0  0  0  0  0  0  0  0  0  0  0  0
    9.9563   -0.4125   20.8709 C   0  0  0  0  0  0  0  0  0  0  0  0
   12.7152    3.9192   22.3999 C   0  0  0  0  0  0  0  0  0  0  0  0
   13.4391   -1.7767   21.3956 C   0  0  0  0  0  0  0  0  0  0  0  0
   12.1345   -1.1221   21.8714 C   0  0  2  0  0  0  0  0  0  0  0  0
    7.6680    0.2098   18.0181 N   0  0  0  0  0  0  0  0  0  0  0  0
   12.9585    3.6376   24.7320 N   0  0  0  0  0  0  0  0  0  0  0  0
    9.3604   -0.2853   19.6130 N   0  0  0  0  0  0  0  0  0  0  0  0
   11.2604   -0.8873   20.7353 N   0  0  0  0  0  0  0  0  0  0  0  0
   13.0841    5.8295   23.8905 O   0  0  0  0  0  0  0  0  0  0  0  0
    9.4399   -0.1546   21.9555 O   0  0  0  0  0  0  0  0  0  0  0  0
    5.2873    1.2563   20.8991 H   0  0  0  0  0  0  0  0  0  0  0  0
    4.5225    1.3687   18.5286 H   0  0  0  0  0  0  0  0  0  0  0  0
   12.4653   -0.9493   24.5552 H   0  0  0  0  0  0  0  0  0  0  0  0
   12.8348    1.0940   25.9195 H   0  0  0  0  0  0  0  0  0  0  0  0
    7.5867    0.4712   21.4046 H   0  0  0  0  0  0  0  0  0  0  0  0
   12.2919    1.4375   20.9523 H   0  0  0  0  0  0  0  0  0  0  0  0
    6.1223    0.6750   16.7353 H   0  0  0  0  0  0  0  0  0  0  0  0
   13.5725    4.0929   21.7446 H   0  0  0  0  0  0  0  0  0  0  0  0
   11.7836    4.2754   21.9530 H   0  0  0  0  0  0  0  0  0  0  0  0
   14.0217   -1.0794   20.7836 H   0  0  0  0  0  0  0  0  0  0  0  0
   14.0607   -2.0844   22.2440 H   0  0  0  0  0  0  0  0  0  0  0  0
   13.2468   -2.6733   20.7957 H   0  0  0  0  0  0  0  0  0  0  0  0
   11.6025   -1.8758   22.4775 H   0  0  0  0  0  0  0  0  0  0  0  0
   13.0903    3.8072   25.7220 H   0  0  0  0  0  0  0  0  0  0  0  0
    9.9325   -0.5444   18.8132 H   0  0  0  0  0  0  0  0  0  0  0  0
   11.6127   -1.0763   19.8062 H   0  0  0  0  0  0  0  0  0  0  0  0
  1  2  1  0  0  0  0
  1  5  2  0  0  0  0
  2  7  2  0  0  0  0
  3  4  2  0  0  0  0
  3  9  1  0  0  0  0
  4 10  1  0  0  0  0
  5 11  1  0  0  0  0
  6  8  1  0  0  0  0
  6  9  2  0  0  0  0
  7 17  1  0  0  0  0
  8 10  2  0  0  0  0
  8 14  1  0  0  0  0
  9 16  1  0  0  0  0
 10 18  1  0  0  0  0
 11 17  2  0  0  0  0
 11 19  1  0  0  0  0
 12 14  1  0  0  0  0
 12 18  1  0  0  0  0
 12 21  2  0  0  0  0
 13 19  1  0  0  0  0
 13 20  1  0  0  0  0
 13 22  2  0  0  0  0
 15 16  1  0  0  0  0
 16 20  1  0  0  0  0
  1 23  1  0  0  0  0
  2 24  1  0  0  0  0
  3 25  1  0  0  0  0
  4 26  1  0  0  0  0
  5 27  1  0  0  0  0
  6 28  1  0  0  0  0
  7 29  1  0  0  0  0
 14 30  1  0  0  0  0
 14 31  1  0  0  0  0
 15 32  1  0  0  0  0
 15 33  1  0  0  0  0
 15 34  1  0  0  0  0
 16 35  1  0  0  0  0
 18 36  1  0  0  0  0
 19 37  1  0  0  0  0
 20 38  1  0  0  0  0
M  END
> <Hybrid2>
-8.762221

> <fragments>
x0678

> <site>
active-noncovalent

$$$$
top_hits_only_mpro-175_1
  -OEChem-03302021283D

 41 45  0     0  0  0  0  0  0999 V2000
    5.6271   -6.2816   26.4596 C   0  0  0  0  0  0  0  0  0  0  0  0
    5.7516   -5.3569   27.4922 C   0  0  0  0  0  0  0  0  0  0  0  0
    6.1537   -5.9967   25.1995 C   0  0  0  0  0  0  0  0  0  0  0  0
    6.4032   -4.1437   27.2687 C   0  0  0  0  0  0  0  0  0  0  0  0
    7.3488   -4.4770   23.6944 C   0  0  0  0  0  0  0  0  0  0  0  0
    8.0004   -3.2638   23.4709 C   0  0  0  0  0  0  0  0  0  0  0  0
   10.7376    3.8860   23.9366 C   0  0  0  0  0  0  0  0  0  0  0  0
   11.5487    4.9823   23.6373 C   0  0  0  0  0  0  0  0  0  0  0  0
    7.5983   -2.6240   25.7636 C   0  0  0  0  0  0  0  0  0  0  0  0
   13.2034    3.5081   22.6749 C   0  0  0  0  0  0  0  0  0  0  0  0
    6.8127   -4.7805   24.9565 C   0  0  0  0  0  0  0  0  0  0  0  0
    6.9393   -3.8402   26.0066 C   0  0  0  0  0  0  0  0  0  0  0  0
   12.3895    2.4117   22.9762 C   0  0  0  0  0  0  0  0  0  0  0  0
    8.1248   -2.3391   24.5035 C   0  0  0  0  0  0  0  0  0  0  0  0
   11.1462    2.5881   23.6108 C   0  0  0  0  0  0  0  0  0  0  0  0
   12.7784    4.7932   23.0082 C   0  0  0  0  0  0  0  0  0  0  0  0
   12.8289    1.0389   22.6218 C   0  0  0  0  0  0  0  0  0  0  0  0
   10.0568   -0.9756   23.8526 C   0  0  0  0  0  0  0  0  0  0  0  0
   10.7140    0.3310   23.6249 C   0  0  0  0  0  0  0  0  0  0  0  0
    8.7956   -1.0925   24.2719 C   0  0  0  0  0  0  0  0  0  0  0  0
   11.0104   -2.0730   23.4997 C   0  0  0  0  0  0  0  0  0  0  0  0
   12.0990   -1.3539   22.7162 C   0  0  0  0  0  0  0  0  0  0  0  0
   10.2966    1.5097   23.9339 N   0  0  0  0  0  0  0  0  0  0  0  0
   11.9274    0.0578   22.9992 N   0  0  0  0  0  0  0  0  0  0  0  0
   13.8907    0.8437   22.0420 O   0  0  0  0  0  0  0  0  0  0  0  0
   13.7729    6.1497   22.6423 Cl  0  0  0  0  0  0  0  0  0  0  0  0
    5.1192   -7.2256   26.6338 H   0  0  0  0  0  0  0  0  0  0  0  0
    5.3420   -5.5793   28.4731 H   0  0  0  0  0  0  0  0  0  0  0  0
    6.0442   -6.7338   24.4068 H   0  0  0  0  0  0  0  0  0  0  0  0
    6.4882   -3.4359   28.0905 H   0  0  0  0  0  0  0  0  0  0  0  0
    7.2626   -5.1848   22.8727 H   0  0  0  0  0  0  0  0  0  0  0  0
    8.4054   -3.0557   22.4833 H   0  0  0  0  0  0  0  0  0  0  0  0
    9.7817    4.0518   24.4278 H   0  0  0  0  0  0  0  0  0  0  0  0
   11.2068    5.9800   23.9016 H   0  0  0  0  0  0  0  0  0  0  0  0
    7.6998   -1.8955   26.5672 H   0  0  0  0  0  0  0  0  0  0  0  0
   14.1630    3.3653   22.1839 H   0  0  0  0  0  0  0  0  0  0  0  0
    8.2267   -0.1750   24.4235 H   0  0  0  0  0  0  0  0  0  0  0  0
   11.4252   -2.5141   24.4125 H   0  0  0  0  0  0  0  0  0  0  0  0
   10.5400   -2.8582   22.9005 H   0  0  0  0  0  0  0  0  0  0  0  0
   13.1077   -1.6770   22.9937 H   0  0  0  0  0  0  0  0  0  0  0  0
   11.9828   -1.4974   21.6357 H   0  0  0  0  0  0  0  0  0  0  0  0
  1  2  2  0  0  0  0
  1  3  1  0  0  0  0
  2  4  1  0  0  0  0
  3 11  2  0  0  0  0
  4 12  2  0  0  0  0
  5  6  2  0  0  0  0
  5 11  1  0  0  0  0
  6 14  1  0  0  0  0
  7  8  2  0  0  0  0
  7 15  1  0  0  0  0
  8 16  1  0  0  0  0
  9 12  1  0  0  0  0
  9 14  2  0  0  0  0
 10 13  1  0  0  0  0
 10 16  2  0  0  0  0
 11 12  1  0  0  0  0
 13 15  2  0  0  0  0
 13 17  1  0  0  0  0
 14 20  1  0  0  0  0
 15 23  1  0  0  0  0
 16 26  1  0  0  0  0
 17 24  1  0  0  0  0
 17 25  2  0  0  0  0
 18 19  1  0  0  0  0
 18 20  2  0  0  0  0
 18 21  1  0  0  0  0
 19 23  2  0  0  0  0
 19 24  1  0  0  0  0
 21 22  1  0  0  0  0
 22 24  1  0  0  0  0
  1 27  1  0  0  0  0
  2 28  1  0  0  0  0
  3 29  1  0  0  0  0
  4 30  1  0  0  0  0
  5 31  1  0  0  0  0
  6 32  1  0  0  0  0
  7 33  1  0  0  0  0
  8 34  1  0  0  0  0
  9 35  1  0  0  0  0
 10 36  1  0  0  0  0
 20 37  1  0  0  0  0
 21 38  1  0  0  0  0
 21 39  1  0  0  0  0
 22 40  1  0  0  0  0
 22 41  1  0  0  0  0
M  END
> <Hybrid2>
-8.755840

> <fragments>
x0104

> <site>
active-noncovalent

$$$$
top_hits_only_mpro-438_1
  -OEChem-03302021283D

 42 44  0     1  0  0  0  0  0999 V2000
    6.2145   -5.7191   21.8437 C   0  0  0  0  0  0  0  0  0  0  0  0
    6.4182   -5.7571   23.2231 C   0  0  0  0  0  0  0  0  0  0  0  0
    6.0484   -4.4946   21.1967 C   0  0  0  0  0  0  0  0  0  0  0  0
    6.4556   -4.5706   23.9555 C   0  0  0  0  0  0  0  0  0  0  0  0
    6.0858   -3.3081   21.9290 C   0  0  0  0  0  0  0  0  0  0  0  0
    6.2894   -3.3460   23.3084 C   0  0  0  0  0  0  0  0  0  0  0  0
    6.0223    1.2429   17.7047 C   0  0  0  0  0  0  0  0  0  0  0  0
    5.6981   -1.9010   19.8701 C   0  0  0  0  0  0  0  0  0  0  0  0
    6.0145   -0.2140   18.1177 C   0  0  0  0  0  0  0  0  0  0  0  0
    4.8531    3.3621   21.1849 C   0  0  0  0  0  0  0  0  0  0  0  0
    5.5429    2.3039   22.0395 C   0  0  0  0  0  0  0  0  0  0  0  0
    3.7693    2.7491   20.3011 C   0  0  0  0  0  0  0  0  0  0  0  0
    6.0951    1.1605   21.1907 C   0  0  0  0  0  0  0  0  0  0  0  0
    4.2922    1.5906   19.4439 C   0  0  2  0  0  0  0  0  0  0  0  0
    5.0000    0.5361   20.3058 C   0  0  1  0  0  0  0  0  0  0  0  0
    6.6761   -4.6605   25.4315 C   0  0  0  0  0  0  0  0  0  0  0  0
    5.1801    2.0716   18.4031 N   0  0  0  0  0  0  0  0  0  0  0  0
    5.5609   -0.5453   19.4685 N   0  0  0  0  0  0  0  0  0  0  0  0
    5.9125   -2.0834   21.2364 N   0  0  0  0  0  0  0  0  0  0  0  0
    6.6750    1.6225   16.7320 O   0  0  0  0  0  0  0  0  0  0  0  0
    5.6387   -2.8198   19.0484 O   0  0  0  0  0  0  0  0  0  0  0  0
    6.3368   -1.8746   24.2241 Cl  0  0  0  0  0  0  0  0  0  0  0  0
    6.1849   -6.6430   21.2735 H   0  0  0  0  0  0  0  0  0  0  0  0
    6.5463   -6.7168   23.7170 H   0  0  0  0  0  0  0  0  0  0  0  0
    5.8903   -4.4793   20.1211 H   0  0  0  0  0  0  0  0  0  0  0  0
    5.3721   -0.7473   17.4085 H   0  0  0  0  0  0  0  0  0  0  0  0
    7.0379   -0.5917   18.0146 H   0  0  0  0  0  0  0  0  0  0  0  0
    4.4084    4.1246   21.8343 H   0  0  0  0  0  0  0  0  0  0  0  0
    5.5971    3.8719   20.5610 H   0  0  0  0  0  0  0  0  0  0  0  0
    6.3570    2.7643   22.6109 H   0  0  0  0  0  0  0  0  0  0  0  0
    4.8289    1.9027   22.7692 H   0  0  0  0  0  0  0  0  0  0  0  0
    2.9581    2.3770   20.9411 H   0  0  0  0  0  0  0  0  0  0  0  0
    3.3257    3.5249   19.6650 H   0  0  0  0  0  0  0  0  0  0  0  0
    6.9177    1.5404   20.5727 H   0  0  0  0  0  0  0  0  0  0  0  0
    6.5218    0.3986   21.8537 H   0  0  0  0  0  0  0  0  0  0  0  0
    3.4437    1.1255   18.9263 H   0  0  0  0  0  0  0  0  0  0  0  0
    4.2538    0.0945   20.9712 H   0  0  0  0  0  0  0  0  0  0  0  0
    7.7477   -4.6239   25.6567 H   0  0  0  0  0  0  0  0  0  0  0  0
    6.1788   -3.8361   25.9559 H   0  0  0  0  0  0  0  0  0  0  0  0
    6.2640   -5.5927   25.8360 H   0  0  0  0  0  0  0  0  0  0  0  0
    5.1791    3.0577   18.1825 H   0  0  0  0  0  0  0  0  0  0  0  0
    5.9554   -1.2359   21.8701 H   0  0  0  0  0  0  0  0  0  0  0  0
  1  2  1  0  0  0  0
  1  3  2  0  0  0  0
  2  4  2  0  0  0  0
  3  5  1  0  0  0  0
  4  6  1  0  0  0  0
  4 16  1  0  0  0  0
  5  6  2  0  0  0  0
  5 19  1  0  0  0  0
  6 22  1  0  0  0  0
  7  9  1  0  0  0  0
  7 17  1  0  0  0  0
  7 20  2  0  0  0  0
  8 18  1  0  0  0  0
  8 19  1  0  0  0  0
  8 21  2  0  0  0  0
  9 18  1  0  0  0  0
 10 11  1  0  0  0  0
 10 12  1  0  0  0  0
 11 13  1  0  0  0  0
 12 14  1  0  0  0  0
 13 15  1  0  0  0  0
 14 15  1  0  0  0  0
 14 17  1  0  0  0  0
 15 18  1  0  0  0  0
  1 23  1  0  0  0  0
  2 24  1  0  0  0  0
  3 25  1  0  0  0  0
  9 26  1  0  0  0  0
  9 27  1  0  0  0  0
 10 28  1  0  0  0  0
 10 29  1  0  0  0  0
 11 30  1  0  0  0  0
 11 31  1  0  0  0  0
 12 32  1  0  0  0  0
 12 33  1  0  0  0  0
 13 34  1  0  0  0  0
 13 35  1  0  0  0  0
 14 36  1  0  0  0  0
 15 37  1  0  0  0  0
 16 38  1  0  0  0  0
 16 39  1  0  0  0  0
 16 40  1  0  0  0  0
 17 41  1  0  0  0  0
 19 42  1  0  0  0  0
M  END
> <Hybrid2>
-8.720431

> <fragments>
x0397

> <site>
active-noncovalent

$$$$
top_hits_only_mpro-74_1
  -OEChem-03302021283D

 57 60  0     0  0  0  0  0  0999 V2000
   10.4526    8.0397   24.8482 C   0  0  0  0  0  0  0  0  0  0  0  0
   11.7062    7.4857   25.1070 C   0  0  0  0  0  0  0  0  0  0  0  0
    9.4328    7.2440   24.3261 C   0  0  0  0  0  0  0  0  0  0  0  0
    9.1250   -3.7979   24.3334 C   0  0  0  0  0  0  0  0  0  0  0  0
   11.9402    6.1361   24.8438 C   0  0  0  0  0  0  0  0  0  0  0  0
    9.6667    5.8943   24.0629 C   0  0  0  0  0  0  0  0  0  0  0  0
    6.3095   -2.9987   26.6047 C   0  0  0  0  0  0  0  0  0  0  0  0
    5.8578   -4.2728   26.9459 C   0  0  0  0  0  0  0  0  0  0  0  0
    9.5469   -2.5114   24.0160 C   0  0  0  0  0  0  0  0  0  0  0  0
    7.5720   -5.2644   25.5550 C   0  0  0  0  0  0  0  0  0  0  0  0
   12.0245    2.1297   23.2056 C   0  0  0  0  0  0  0  0  0  0  0  0
    8.0405   -3.9896   25.2001 C   0  0  0  0  0  0  0  0  0  0  0  0
   10.9978    1.7727   24.1141 C   0  0  0  0  0  0  0  0  0  0  0  0
   10.9204    5.3403   24.3217 C   0  0  0  0  0  0  0  0  0  0  0  0
    7.3956   -2.8529   25.7360 C   0  0  0  0  0  0  0  0  0  0  0  0
    6.4867   -5.4022   26.4230 C   0  0  0  0  0  0  0  0  0  0  0  0
    8.8779   -1.4329   24.5702 C   0  0  0  0  0  0  0  0  0  0  0  0
   12.1008    3.5049   23.1908 C   0  0  0  0  0  0  0  0  0  0  0  0
   10.4777    2.9406   24.6267 C   0  0  0  0  0  0  0  0  0  0  0  0
   10.5528    0.4114   24.4613 C   0  0  0  0  0  0  0  0  0  0  0  0
    9.3118   -0.0806   24.2442 C   0  0  0  0  0  0  0  0  0  0  0  0
   13.0017    4.3861   22.4162 C   0  0  0  0  0  0  0  0  0  0  0  0
    9.3900    3.1459   25.6121 C   0  0  0  0  0  0  0  0  0  0  0  0
    7.1786   -0.4333   25.9500 C   0  0  0  0  0  0  0  0  0  0  0  0
    4.9000   -6.8452   27.6721 C   0  0  0  0  0  0  0  0  0  0  0  0
    6.6614   -7.8701   26.2246 C   0  0  0  0  0  0  0  0  0  0  0  0
   11.1556    3.9872   24.0582 N   0  0  0  0  0  0  0  0  0  0  0  0
    7.8426   -1.6288   25.3975 N   0  3  0  0  0  0  0  0  0  0  0  0
    6.0250   -6.6890   26.7723 N   0  0  0  0  0  0  0  0  0  0  0  0
   10.2694    9.0901   25.0546 H   0  0  0  0  0  0  0  0  0  0  0  0
   12.5000    8.1048   25.5147 H   0  0  0  0  0  0  0  0  0  0  0  0
    8.4563    7.6758   24.1261 H   0  0  0  0  0  0  0  0  0  0  0  0
    9.6468   -4.6484   23.9012 H   0  0  0  0  0  0  0  0  0  0  0  0
   12.9217    5.7166   25.0509 H   0  0  0  0  0  0  0  0  0  0  0  0
    8.8627    5.2853   23.6567 H   0  0  0  0  0  0  0  0  0  0  0  0
    5.7915   -2.1463   27.0340 H   0  0  0  0  0  0  0  0  0  0  0  0
    5.0125   -4.3750   27.6219 H   0  0  0  0  0  0  0  0  0  0  0  0
   10.3885   -2.3732   23.3434 H   0  0  0  0  0  0  0  0  0  0  0  0
    8.0554   -6.1531   25.1529 H   0  0  0  0  0  0  0  0  0  0  0  0
   12.6443    1.4604   22.6232 H   0  0  0  0  0  0  0  0  0  0  0  0
   11.3187   -0.2264   24.8961 H   0  0  0  0  0  0  0  0  0  0  0  0
    8.5650    0.5561   23.7599 H   0  0  0  0  0  0  0  0  0  0  0  0
   12.5550    4.6508   21.4451 H   0  0  0  0  0  0  0  0  0  0  0  0
   13.2215    5.3231   22.9535 H   0  0  0  0  0  0  0  0  0  0  0  0
   13.9756    3.9081   22.2211 H   0  0  0  0  0  0  0  0  0  0  0  0
    9.7897    3.1705   26.6368 H   0  0  0  0  0  0  0  0  0  0  0  0
    8.8514    4.0899   25.4344 H   0  0  0  0  0  0  0  0  0  0  0  0
    8.6361    2.3448   25.5601 H   0  0  0  0  0  0  0  0  0  0  0  0
    7.6667   -0.1597   26.8895 H   0  0  0  0  0  0  0  0  0  0  0  0
    7.2484    0.4014   25.2469 H   0  0  0  0  0  0  0  0  0  0  0  0
    6.1222   -0.6497   26.1326 H   0  0  0  0  0  0  0  0  0  0  0  0
    4.6939   -7.9155   27.8199 H   0  0  0  0  0  0  0  0  0  0  0  0
    5.1378   -6.3806   28.6404 H   0  0  0  0  0  0  0  0  0  0  0  0
    4.0140   -6.3577   27.2392 H   0  0  0  0  0  0  0  0  0  0  0  0
    6.1621   -8.7699   26.6133 H   0  0  0  0  0  0  0  0  0  0  0  0
    6.5837   -7.8529   25.1274 H   0  0  0  0  0  0  0  0  0  0  0  0
    7.7217   -7.8841   26.5169 H   0  0  0  0  0  0  0  0  0  0  0  0
  1  2  1  0  0  0  0
  1  3  2  0  0  0  0
  2  5  2  0  0  0  0
  3  6  1  0  0  0  0
  4  9  1  0  0  0  0
  4 12  2  0  0  0  0
  5 14  1  0  0  0  0
  6 14  2  0  0  0  0
  7  8  2  0  0  0  0
  7 15  1  0  0  0  0
  8 16  1  0  0  0  0
  9 17  2  0  0  0  0
 10 12  1  0  0  0  0
 10 16  2  0  0  0  0
 11 13  1  0  0  0  0
 11 18  2  0  0  0  0
 12 15  1  0  0  0  0
 13 19  2  0  0  0  0
 13 20  1  0  0  0  0
 14 27  1  0  0  0  0
 15 28  2  0  0  0  0
 16 29  1  0  0  0  0
 17 21  1  0  0  0  0
 17 28  1  0  0  0  0
 18 22  1  0  0  0  0
 18 27  1  0  0  0  0
 19 23  1  0  0  0  0
 19 27  1  0  0  0  0
 20 21  2  0  0  0  0
 24 28  1  0  0  0  0
 25 29  1  0  0  0  0
 26 29  1  0  0  0  0
  1 30  1  0  0  0  0
  2 31  1  0  0  0  0
  3 32  1  0  0  0  0
  4 33  1  0  0  0  0
  5 34  1  0  0  0  0
  6 35  1  0  0  0  0
  7 36  1  0  0  0  0
  8 37  1  0  0  0  0
  9 38  1  0  0  0  0
 10 39  1  0  0  0  0
 11 40  1  0  0  0  0
 20 41  1  0  0  0  0
 21 42  1  0  0  0  0
 22 43  1  0  0  0  0
 22 44  1  0  0  0  0
 22 45  1  0  0  0  0
 23 46  1  0  0  0  0
 23 47  1  0  0  0  0
 23 48  1  0  0  0  0
 24 49  1  0  0  0  0
 24 50  1  0  0  0  0
 24 51  1  0  0  0  0
 25 52  1  0  0  0  0
 25 53  1  0  0  0  0
 25 54  1  0  0  0  0
 26 55  1  0  0  0  0
 26 56  1  0  0  0  0
 26 57  1  0  0  0  0
M  CHG  1  28   1
M  END
> <Hybrid2>
-8.719566

> <fragments>
x0104

> <site>
active-noncovalent

$$$$
top_hits_only_mpro-440_1
  -OEChem-03302021283D

 45 49  0     1  0  0  0  0  0999 V2000
    8.9019   -4.6845   27.1307 C   0  0  0  0  0  0  0  0  0  0  0  0
    9.6533   -4.8602   25.9687 C   0  0  0  0  0  0  0  0  0  0  0  0
    7.5410   -4.3911   27.0435 C   0  0  0  0  0  0  0  0  0  0  0  0
    5.0511    1.7529   19.0119 C   0  0  0  0  0  0  0  0  0  0  0  0
    9.0438   -4.7425   24.7196 C   0  0  0  0  0  0  0  0  0  0  0  0
    6.9315   -4.2734   25.7944 C   0  0  0  0  0  0  0  0  0  0  0  0
    5.3037    0.7963   19.9888 C   0  0  0  0  0  0  0  0  0  0  0  0
    5.5930    1.5526   17.7526 C   0  0  0  0  0  0  0  0  0  0  0  0
    6.5752   -0.4235   18.3915 C   0  0  0  0  0  0  0  0  0  0  0  0
    6.5037   -5.4440   22.7501 C   0  0  0  0  0  0  0  0  0  0  0  0
    6.9040   -3.1528   22.5385 C   0  0  0  0  0  0  0  0  0  0  0  0
    7.6829   -4.4490   24.6324 C   0  0  0  0  0  0  0  0  0  0  0  0
    6.0795   -0.3157   19.6809 C   0  0  0  0  0  0  0  0  0  0  0  0
    7.0528   -4.3271   23.3417 C   0  0  0  0  0  0  0  0  0  0  0  0
    7.2908   -1.8208   22.7176 C   0  0  0  0  0  0  0  0  0  0  0  0
    6.2367   -3.4440   21.3558 C   0  0  0  0  0  0  0  0  0  0  0  0
    6.3593   -1.3241   20.6718 C   0  0  0  0  0  0  0  0  0  0  0  0
   10.0105   -0.4850   24.9375 C   0  0  0  0  0  0  0  0  0  0  0  0
    9.4343   -1.4435   23.9134 C   0  0  0  0  0  0  0  0  0  0  0  0
    8.0764   -1.1222   26.3023 C   0  0  0  0  0  0  0  0  0  0  0  0
    7.2109   -1.0150   25.0588 C   0  0  0  0  0  0  0  0  0  0  0  0
    6.3513    0.4852   17.4160 N   0  0  0  0  0  0  0  0  0  0  0  0
    7.0133   -0.8993   21.7705 N   0  0  0  0  0  0  0  0  0  0  0  0
    5.9343   -2.5662   20.3793 N   0  0  0  0  0  0  0  0  0  0  0  0
    9.2945   -0.3787   26.1087 N   0  0  0  0  0  0  0  0  0  0  0  0
    7.9688   -1.4133   23.8693 N   0  0  3  0  0  0  0  0  0  0  0  0
   11.0736    0.1031   24.7427 O   0  0  0  0  0  0  0  0  0  0  0  0
    5.8066   -5.0882   21.2292 S   0  0  0  0  0  0  0  0  0  0  0  0
    9.3760   -4.7772   28.1034 H   0  0  0  0  0  0  0  0  0  0  0  0
   10.7126   -5.0899   26.0364 H   0  0  0  0  0  0  0  0  0  0  0  0
    6.9559   -4.2556   27.9484 H   0  0  0  0  0  0  0  0  0  0  0  0
    4.4485    2.6275   19.2284 H   0  0  0  0  0  0  0  0  0  0  0  0
    9.6431   -4.8822   23.8229 H   0  0  0  0  0  0  0  0  0  0  0  0
    5.8696   -4.0443   25.7434 H   0  0  0  0  0  0  0  0  0  0  0  0
    4.8898    0.9305   20.9852 H   0  0  0  0  0  0  0  0  0  0  0  0
    5.4256    2.2700   16.9556 H   0  0  0  0  0  0  0  0  0  0  0  0
    7.1868   -1.2681   18.0869 H   0  0  0  0  0  0  0  0  0  0  0  0
    6.4725   -6.4565   23.1299 H   0  0  0  0  0  0  0  0  0  0  0  0
    9.8431   -1.1813   22.9307 H   0  0  0  0  0  0  0  0  0  0  0  0
    9.7756   -2.4528   24.1732 H   0  0  0  0  0  0  0  0  0  0  0  0
    7.5621   -0.7189   27.1815 H   0  0  0  0  0  0  0  0  0  0  0  0
    8.3428   -2.1641   26.5042 H   0  0  0  0  0  0  0  0  0  0  0  0
    6.3250   -1.6551   25.1508 H   0  0  0  0  0  0  0  0  0  0  0  0
    6.8584    0.0192   24.9618 H   0  0  0  0  0  0  0  0  0  0  0  0
    9.6301    0.2326   26.8465 H   0  0  0  0  0  0  0  0  0  0  0  0
  1  2  1  0  0  0  0
  1  3  2  0  0  0  0
  2  5  2  0  0  0  0
  3  6  1  0  0  0  0
  4  7  2  0  0  0  0
  4  8  1  0  0  0  0
  5 12  1  0  0  0  0
  6 12  2  0  0  0  0
  7 13  1  0  0  0  0
  8 22  2  0  0  0  0
  9 13  2  0  0  0  0
  9 22  1  0  0  0  0
 10 14  2  0  0  0  0
 10 28  1  0  0  0  0
 11 14  1  0  0  0  0
 11 15  2  0  0  0  0
 11 16  1  0  0  0  0
 12 14  1  0  0  0  0
 13 17  1  0  0  0  0
 15 23  1  0  0  0  0
 15 26  1  0  0  0  0
 16 24  2  0  0  0  0
 16 28  1  0  0  0  0
 17 23  2  0  0  0  0
 17 24  1  0  0  0  0
 18 19  1  0  0  0  0
 18 25  1  0  0  0  0
 18 27  2  0  0  0  0
 19 26  1  0  0  0  0
 20 21  1  0  0  0  0
 20 25  1  0  0  0  0
 21 26  1  0  0  0  0
  1 29  1  0  0  0  0
  2 30  1  0  0  0  0
  3 31  1  0  0  0  0
  4 32  1  0  0  0  0
  5 33  1  0  0  0  0
  6 34  1  0  0  0  0
  7 35  1  0  0  0  0
  8 36  1  0  0  0  0
  9 37  1  0  0  0  0
 10 38  1  0  0  0  0
 19 39  1  0  0  0  0
 19 40  1  0  0  0  0
 20 41  1  0  0  0  0
 20 42  1  0  0  0  0
 21 43  1  0  0  0  0
 21 44  1  0  0  0  0
 25 45  1  0  0  0  0
M  END
> <Hybrid2>
-8.692316

> <fragments>
x0107

> <site>
active-noncovalent

$$$$
top_hits_only_mpro-399_1
  -OEChem-03302021283D

 31 33  0     0  0  0  0  0  0999 V2000
    5.5361    0.9339   19.2635 C   0  0  0  0  0  0  0  0  0  0  0  0
    6.3977   -5.9746   27.7941 C   0  0  0  0  0  0  0  0  0  0  0  0
    5.5775   -0.3229   19.8566 C   0  0  0  0  0  0  0  0  0  0  0  0
    7.4028   -5.1517   27.2983 C   0  0  0  0  0  0  0  0  0  0  0  0
    6.4118   -5.1874   21.6058 C   0  0  0  0  0  0  0  0  0  0  0  0
    6.0945    1.0751   18.0033 C   0  0  0  0  0  0  0  0  0  0  0  0
    5.4396   -6.4355   26.9056 C   0  0  0  0  0  0  0  0  0  0  0  0
    6.6976   -1.1403   17.9244 C   0  0  0  0  0  0  0  0  0  0  0  0
    6.4661   -5.9258   22.7626 C   0  0  0  0  0  0  0  0  0  0  0  0
    6.1677   -1.3853   19.1810 C   0  0  0  0  0  0  0  0  0  0  0  0
    7.4189   -4.8195   25.9483 C   0  0  0  0  0  0  0  0  0  0  0  0
    6.4152   -5.3322   25.1423 C   0  0  0  0  0  0  0  0  0  0  0  0
    6.3087   -3.8536   22.0441 C   0  0  0  0  0  0  0  0  0  0  0  0
    6.2257   -2.7089   19.7760 C   0  0  0  0  0  0  0  0  0  0  0  0
    6.6763    0.0668   17.3160 N   0  0  0  0  0  0  0  0  0  0  0  0
    5.4224   -6.1344   25.5878 N   0  0  0  0  0  0  0  0  0  0  0  0
    6.2977   -3.7478   23.3755 N   0  0  0  0  0  0  0  0  0  0  0  0
    6.3946   -5.0245   23.7838 N   0  0  0  0  0  0  0  0  0  0  0  0
    6.2246   -2.7327   21.1801 N   0  0  0  0  0  0  0  0  0  0  0  0
    6.3057   -3.7338   19.0827 O   0  0  0  0  0  0  0  0  0  0  0  0
    8.6743   -3.7984   25.3539 Cl  0  0  0  0  0  0  0  0  0  0  0  0
    5.0807    1.7765   19.7711 H   0  0  0  0  0  0  0  0  0  0  0  0
    6.3652   -6.2468   28.8428 H   0  0  0  0  0  0  0  0  0  0  0  0
    5.1481   -0.4633   20.8450 H   0  0  0  0  0  0  0  0  0  0  0  0
    8.1655   -4.7783   27.9767 H   0  0  0  0  0  0  0  0  0  0  0  0
    6.4430   -5.5669   20.5945 H   0  0  0  0  0  0  0  0  0  0  0  0
    6.0881    2.0351   17.4978 H   0  0  0  0  0  0  0  0  0  0  0  0
    4.6345   -7.0803   27.2423 H   0  0  0  0  0  0  0  0  0  0  0  0
    7.1703   -1.9301   17.3481 H   0  0  0  0  0  0  0  0  0  0  0  0
    6.5475   -6.9910   22.9334 H   0  0  0  0  0  0  0  0  0  0  0  0
    6.1542   -1.8269   21.6372 H   0  0  0  0  0  0  0  0  0  0  0  0
  1  3  2  0  0  0  0
  1  6  1  0  0  0  0
  2  4  2  0  0  0  0
  2  7  1  0  0  0  0
  3 10  1  0  0  0  0
  4 11  1  0  0  0  0
  5  9  2  0  0  0  0
  5 13  1  0  0  0  0
  6 15  2  0  0  0  0
  7 16  2  0  0  0  0
  8 10  2  0  0  0  0
  8 15  1  0  0  0  0
  9 18  1  0  0  0  0
 10 14  1  0  0  0  0
 11 12  2  0  0  0  0
 11 21  1  0  0  0  0
 12 16  1  0  0  0  0
 12 18  1  0  0  0  0
 13 17  2  0  0  0  0
 13 19  1  0  0  0  0
 14 19  1  0  0  0  0
 14 20  2  0  0  0  0
 17 18  1  0  0  0  0
  1 22  1  0  0  0  0
  2 23  1  0  0  0  0
  3 24  1  0  0  0  0
  4 25  1  0  0  0  0
  5 26  1  0  0  0  0
  6 27  1  0  0  0  0
  7 28  1  0  0  0  0
  8 29  1  0  0  0  0
  9 30  1  0  0  0  0
 19 31  1  0  0  0  0
M  END
> <Hybrid2>
-8.659170

> <fragments>
x0397

> <site>
active-noncovalent

$$$$
top_hits_only_mpro-156_1
  -OEChem-03302021283D

 57 61  0     0  0  0  0  0  0999 V2000
    8.7818    4.2462   25.4057 C   0  0  0  0  0  0  0  0  0  0  0  0
   11.9653   -1.1985   24.4316 C   0  0  0  0  0  0  0  0  0  0  0  0
    9.6028    4.1779   24.2861 C   0  0  0  0  0  0  0  0  0  0  0  0
   13.2901   -1.6303   24.3702 C   0  0  0  0  0  0  0  0  0  0  0  0
   13.9124    0.4893   23.4308 C   0  0  0  0  0  0  0  0  0  0  0  0
    5.7623    0.2670   19.9889 C   0  0  0  0  0  0  0  0  0  0  0  0
    8.4545    3.0623   26.0412 C   0  0  0  0  0  0  0  0  0  0  0  0
    6.6109    1.1214   17.9380 C   0  0  0  0  0  0  0  0  0  0  0  0
    7.3079   -0.9484   18.6509 C   0  0  0  0  0  0  0  0  0  0  0  0
   11.5785    0.0826   23.9766 C   0  0  0  0  0  0  0  0  0  0  0  0
   10.0728    2.9418   23.8350 C   0  0  0  0  0  0  0  0  0  0  0  0
   12.5755    0.9471   23.4713 C   0  0  0  0  0  0  0  0  0  0  0  0
    5.7986    1.2898   19.0478 C   0  0  0  0  0  0  0  0  0  0  0  0
    6.5285   -0.8769   19.7942 C   0  0  0  0  0  0  0  0  0  0  0  0
   14.2659   -0.7854   23.8669 C   0  0  0  0  0  0  0  0  0  0  0  0
    9.6870    1.8062   24.5460 C   0  0  0  0  0  0  0  0  0  0  0  0
   10.1483    0.4727   24.1112 C   0  0  0  0  0  0  0  0  0  0  0  0
    9.1853   -0.3895   23.7559 C   0  0  0  0  0  0  0  0  0  0  0  0
   10.9593    2.8343   22.6274 C   0  0  0  0  0  0  0  0  0  0  0  0
   12.3689    2.3749   22.9976 C   0  0  0  0  0  0  0  0  0  0  0  0
    7.7202   -0.0628   23.8649 C   0  0  0  0  0  0  0  0  0  0  0  0
    9.4819   -1.7535   23.1931 C   0  0  0  0  0  0  0  0  0  0  0  0
    7.0167   -0.2806   22.5293 C   0  0  0  0  0  0  0  0  0  0  0  0
    8.7640   -1.9578   21.8632 C   0  0  0  0  0  0  0  0  0  0  0  0
    4.9899    2.5254   19.2265 C   0  0  0  0  0  0  0  0  0  0  0  0
    6.5097   -1.9990   20.7899 C   0  0  0  0  0  0  0  0  0  0  0  0
    7.3691    0.0247   17.7144 N   0  0  0  0  0  0  0  0  0  0  0  0
    8.8845    1.8462   25.6400 N   0  0  0  0  0  0  0  0  0  0  0  0
    7.2838   -1.6895   22.0411 N   0  3  0  0  0  0  0  0  0  0  0  0
   15.9016   -1.3073   23.7733 Cl  0  0  0  0  0  0  0  0  0  0  0  0
    8.4085    5.1983   25.7692 H   0  0  0  0  0  0  0  0  0  0  0  0
   11.2155   -1.8815   24.8430 H   0  0  0  0  0  0  0  0  0  0  0  0
    9.8697    5.0938   23.7777 H   0  0  0  0  0  0  0  0  0  0  0  0
   13.5375   -2.6292   24.7189 H   0  0  0  0  0  0  0  0  0  0  0  0
   14.6858    1.1591   23.0394 H   0  0  0  0  0  0  0  0  0  0  0  0
    5.1378    0.3612   20.8740 H   0  0  0  0  0  0  0  0  0  0  0  0
    7.8129    3.0608   26.9167 H   0  0  0  0  0  0  0  0  0  0  0  0
    6.6795    1.8860   17.1700 H   0  0  0  0  0  0  0  0  0  0  0  0
    7.9265   -1.8167   18.4450 H   0  0  0  0  0  0  0  0  0  0  0  0
   10.5161    2.1535   21.9286 H   0  0  0  0  0  0  0  0  0  0  0  0
   11.0561    3.8119   22.1913 H   0  0  0  0  0  0  0  0  0  0  0  0
   12.8289    3.0771   23.7576 H   0  0  0  0  0  0  0  0  0  0  0  0
   13.0343    2.5479   22.1012 H   0  0  0  0  0  0  0  0  0  0  0  0
    7.2697   -0.7034   24.6336 H   0  0  0  0  0  0  0  0  0  0  0  0
    7.5645    0.9736   24.1874 H   0  0  0  0  0  0  0  0  0  0  0  0
   10.5585   -1.9003   23.0454 H   0  0  0  0  0  0  0  0  0  0  0  0
    9.1561   -2.5134   23.9145 H   0  0  0  0  0  0  0  0  0  0  0  0
    5.9329   -0.1737   22.6436 H   0  0  0  0  0  0  0  0  0  0  0  0
    7.3742    0.4107   21.7573 H   0  0  0  0  0  0  0  0  0  0  0  0
    9.1327   -1.2776   21.0867 H   0  0  0  0  0  0  0  0  0  0  0  0
    8.8705   -2.9934   21.5238 H   0  0  0  0  0  0  0  0  0  0  0  0
    5.5609    3.2837   19.7788 H   0  0  0  0  0  0  0  0  0  0  0  0
    4.6922    2.9548   18.2594 H   0  0  0  0  0  0  0  0  0  0  0  0
    4.0618    2.3223   19.7793 H   0  0  0  0  0  0  0  0  0  0  0  0
    5.4866   -2.2335   21.1030 H   0  0  0  0  0  0  0  0  0  0  0  0
    6.9464   -2.9103   20.3672 H   0  0  0  0  0  0  0  0  0  0  0  0
    6.9396   -2.3356   22.7647 H   0  0  0  0  0  0  0  0  0  0  0  0
  1  3  1  0  0  0  0
  1  7  2  0  0  0  0
  2  4  2  0  0  0  0
  2 10  1  0  0  0  0
  3 11  2  0  0  0  0
  4 15  1  0  0  0  0
  5 12  1  0  0  0  0
  5 15  2  0  0  0  0
  6 13  2  0  0  0  0
  6 14  1  0  0  0  0
  7 28  1  0  0  0  0
  8 13  1  0  0  0  0
  8 27  2  0  0  0  0
  9 14  2  0  0  0  0
  9 27  1  0  0  0  0
 10 12  2  0  0  0  0
 10 17  1  0  0  0  0
 11 16  1  0  0  0  0
 11 19  1  0  0  0  0
 12 20  1  0  0  0  0
 13 25  1  0  0  0  0
 14 26  1  0  0  0  0
 15 30  1  0  0  0  0
 16 17  1  0  0  0  0
 16 28  2  0  0  0  0
 17 18  2  0  0  0  0
 18 21  1  0  0  0  0
 18 22  1  0  0  0  0
 19 20  1  0  0  0  0
 21 23  1  0  0  0  0
 22 24  1  0  0  0  0
 23 29  1  0  0  0  0
 24 29  1  0  0  0  0
 26 29  1  0  0  0  0
  1 31  1  0  0  0  0
  2 32  1  0  0  0  0
  3 33  1  0  0  0  0
  4 34  1  0  0  0  0
  5 35  1  0  0  0  0
  6 36  1  0  0  0  0
  7 37  1  0  0  0  0
  8 38  1  0  0  0  0
  9 39  1  0  0  0  0
 19 40  1  0  0  0  0
 19 41  1  0  0  0  0
 20 42  1  0  0  0  0
 20 43  1  0  0  0  0
 21 44  1  0  0  0  0
 21 45  1  0  0  0  0
 22 46  1  0  0  0  0
 22 47  1  0  0  0  0
 23 48  1  0  0  0  0
 23 49  1  0  0  0  0
 24 50  1  0  0  0  0
 24 51  1  0  0  0  0
 25 52  1  0  0  0  0
 25 53  1  0  0  0  0
 25 54  1  0  0  0  0
 26 55  1  0  0  0  0
 26 56  1  0  0  0  0
 29 57  1  0  0  0  0
M  CHG  1  29   1
M  END
> <Hybrid2>
-8.626873

> <fragments>
x0678

> <site>
active-noncovalent

$$$$
top_hits_only_mpro-153_1
  -OEChem-03302021283D

 46 50  0     1  0  0  0  0  0999 V2000
    4.9870    1.5008   18.2392 C   0  0  0  0  0  0  0  0  0  0  0  0
    5.2002    1.1950   19.5787 C   0  0  0  0  0  0  0  0  0  0  0  0
   14.2926   -0.8376   22.8417 C   0  0  0  0  0  0  0  0  0  0  0  0
    5.9332    1.0791   17.3191 C   0  0  0  0  0  0  0  0  0  0  0  0
   13.7364   -1.9888   22.3223 C   0  0  0  0  0  0  0  0  0  0  0  0
    7.2229    0.1104   18.9552 C   0  0  0  0  0  0  0  0  0  0  0  0
    6.3371    0.4869   19.9520 C   0  0  0  0  0  0  0  0  0  0  0  0
   13.4424   -0.0484   23.5891 C   0  0  0  0  0  0  0  0  0  0  0  0
    6.5853    0.1569   21.3259 C   0  0  0  0  0  0  0  0  0  0  0  0
    7.3663   -0.8018   22.9843 C   0  0  0  0  0  0  0  0  0  0  0  0
   11.7238   -1.4989   23.2584 C   0  0  0  0  0  0  0  0  0  0  0  0
    7.2834   -3.2927   25.7143 C   0  0  0  0  0  0  0  0  0  0  0  0
    8.4665   -3.8702   24.9627 C   0  0  0  0  0  0  0  0  0  0  0  0
    7.2254   -1.8184   25.3118 C   0  0  0  0  0  0  0  0  0  0  0  0
    9.7852   -3.0483   22.9379 C   0  0  0  0  0  0  0  0  0  0  0  0
    9.4905   -1.0763   24.3266 C   0  0  0  0  0  0  0  0  0  0  0  0
    8.4250   -3.1197   23.6303 C   0  0  2  0  0  0  0  0  0  0  0  0
    8.0800   -1.6635   24.0250 C   0  0  2  0  0  0  0  0  0  0  0  0
   13.9538    1.2170   24.1914 C   0  0  0  0  0  0  0  0  0  0  0  0
    7.0497    0.3893   17.6438 N   0  0  0  0  0  0  0  0  0  0  0  0
   12.4508   -2.3517   22.5116 N   0  0  0  0  0  0  0  0  0  0  0  0
   12.1474   -0.3498   23.8183 N   0  0  0  0  0  0  0  0  0  0  0  0
    7.4397   -0.8470   21.6781 N   0  0  0  0  0  0  0  0  0  0  0  0
    6.0017    0.8051   22.3383 N   0  0  0  0  0  0  0  0  0  0  0  0
   10.4032   -1.8389   23.4727 N   0  0  0  0  0  0  0  0  0  0  0  0
    6.5298    0.1566   23.4618 O   0  0  0  0  0  0  0  0  0  0  0  0
    4.1081    2.0524   17.9256 H   0  0  0  0  0  0  0  0  0  0  0  0
    4.4718    1.5150   20.3196 H   0  0  0  0  0  0  0  0  0  0  0  0
   15.3294   -0.5794   22.6682 H   0  0  0  0  0  0  0  0  0  0  0  0
    5.8129    1.2931   16.2624 H   0  0  0  0  0  0  0  0  0  0  0  0
   14.3272   -2.6719   21.7214 H   0  0  0  0  0  0  0  0  0  0  0  0
    8.1296   -0.4440   19.1805 H   0  0  0  0  0  0  0  0  0  0  0  0
    6.3604   -3.7994   25.4134 H   0  0  0  0  0  0  0  0  0  0  0  0
    7.3837   -3.4064   26.7968 H   0  0  0  0  0  0  0  0  0  0  0  0
    9.4007   -3.7265   25.4902 H   0  0  0  0  0  0  0  0  0  0  0  0
    8.3168   -4.9325   24.8017 H   0  0  0  0  0  0  0  0  0  0  0  0
    6.1804   -1.4856   25.1668 H   0  0  0  0  0  0  0  0  0  0  0  0
    7.6266   -1.1998   26.1377 H   0  0  0  0  0  0  0  0  0  0  0  0
   10.4197   -3.9154   23.1608 H   0  0  0  0  0  0  0  0  0  0  0  0
    9.6639   -2.9853   21.8499 H   0  0  0  0  0  0  0  0  0  0  0  0
    9.5486   -0.0182   24.0578 H   0  0  0  0  0  0  0  0  0  0  0  0
    9.7402   -1.1841   25.3848 H   0  0  0  0  0  0  0  0  0  0  0  0
    7.6758   -3.5543   22.9565 H   0  0  0  0  0  0  0  0  0  0  0  0
   13.8146    2.0539   23.4964 H   0  0  0  0  0  0  0  0  0  0  0  0
   13.4316    1.4515   25.1279 H   0  0  0  0  0  0  0  0  0  0  0  0
   15.0216    1.1393   24.4337 H   0  0  0  0  0  0  0  0  0  0  0  0
  1  2  2  0  0  0  0
  1  4  1  0  0  0  0
  2  7  1  0  0  0  0
  3  5  2  0  0  0  0
  3  8  1  0  0  0  0
  4 20  2  0  0  0  0
  5 21  1  0  0  0  0
  6  7  2  0  0  0  0
  6 20  1  0  0  0  0
  7  9  1  0  0  0  0
  8 19  1  0  0  0  0
  8 22  2  0  0  0  0
  9 23  1  0  0  0  0
  9 24  2  0  0  0  0
 10 18  1  0  0  0  0
 10 23  2  0  0  0  0
 10 26  1  0  0  0  0
 11 21  2  0  0  0  0
 11 22  1  0  0  0  0
 11 25  1  0  0  0  0
 12 13  1  0  0  0  0
 12 14  1  0  0  0  0
 13 17  1  0  0  0  0
 14 18  1  0  0  0  0
 15 17  1  0  0  0  0
 15 25  1  0  0  0  0
 16 18  1  0  0  0  0
 16 25  1  0  0  0  0
 17 18  1  0  0  0  0
 24 26  1  0  0  0  0
  1 27  1  0  0  0  0
  2 28  1  0  0  0  0
  3 29  1  0  0  0  0
  4 30  1  0  0  0  0
  5 31  1  0  0  0  0
  6 32  1  0  0  0  0
 12 33  1  0  0  0  0
 12 34  1  0  0  0  0
 13 35  1  0  0  0  0
 13 36  1  0  0  0  0
 14 37  1  0  0  0  0
 14 38  1  0  0  0  0
 15 39  1  0  0  0  0
 15 40  1  0  0  0  0
 16 41  1  0  0  0  0
 16 42  1  0  0  0  0
 17 43  1  0  0  0  0
 19 44  1  0  0  0  0
 19 45  1  0  0  0  0
 19 46  1  0  0  0  0
M  END
> <Hybrid2>
-8.592076

> <fragments>
x0678

> <site>
active-noncovalent

$$$$
top_hits_only_mpro-174_1
  -OEChem-03302021283D

 39 42  0     1  0  0  0  0  0999 V2000
    8.6268    7.4657   24.6084 C   0  0  0  0  0  0  0  0  0  0  0  0
    9.0937    7.0090   25.8431 C   0  0  0  0  0  0  0  0  0  0  0  0
   14.1100   -2.1880   24.2299 C   0  0  0  0  0  0  0  0  0  0  0  0
    9.3047    7.1579   23.4221 C   0  0  0  0  0  0  0  0  0  0  0  0
   10.2517    6.2302   25.9383 C   0  0  0  0  0  0  0  0  0  0  0  0
   13.4532   -3.3774   24.5660 C   0  0  0  0  0  0  0  0  0  0  0  0
   13.6677    0.2994   23.5807 C   0  0  0  0  0  0  0  0  0  0  0  0
   11.2842   -2.3047   24.3444 C   0  0  0  0  0  0  0  0  0  0  0  0
   13.3469   -1.0379   23.9462 C   0  0  0  0  0  0  0  0  0  0  0  0
   10.4701    6.3766   23.4992 C   0  0  0  0  0  0  0  0  0  0  0  0
   10.9105    5.9361   24.7441 C   0  0  0  0  0  0  0  0  0  0  0  0
   11.9544   -1.1226   24.0099 C   0  0  0  0  0  0  0  0  0  0  0  0
   12.0619   -3.4325   24.6217 C   0  0  0  0  0  0  0  0  0  0  0  0
   12.4857    0.9878   23.4319 C   0  0  0  0  0  0  0  0  0  0  0  0
   12.2419    5.2479   23.1167 C   0  0  0  0  0  0  0  0  0  0  0  0
   12.2964    2.3573   23.0715 C   0  0  0  0  0  0  0  0  0  0  0  0
   13.4504    4.7184   20.9601 C   0  0  0  0  0  0  0  0  0  0  0  0
   13.4187    4.5432   22.4770 C   0  0  2  0  0  0  0  0  0  0  0  0
   11.3095    5.9392   22.5004 N   0  0  0  0  0  0  0  0  0  0  0  0
   11.4580    0.1217   23.6931 N   0  0  0  0  0  0  0  0  0  0  0  0
   12.0452    5.2168   24.4693 N   0  0  0  0  0  0  0  0  0  0  0  0
   13.4445    3.1414   22.8277 N   0  0  0  0  0  0  0  0  0  0  0  0
   11.1484    2.8629   22.9916 O   0  0  0  0  0  0  0  0  0  0  0  0
   11.2849   -4.9132   25.0391 Cl  0  0  0  0  0  0  0  0  0  0  0  0
    7.7233    8.0688   24.5667 H   0  0  0  0  0  0  0  0  0  0  0  0
    8.5478    7.2646   26.7481 H   0  0  0  0  0  0  0  0  0  0  0  0
   15.1953   -2.1583   24.1904 H   0  0  0  0  0  0  0  0  0  0  0  0
    8.9329    7.5169   22.4678 H   0  0  0  0  0  0  0  0  0  0  0  0
   10.6149    5.8741   26.8956 H   0  0  0  0  0  0  0  0  0  0  0  0
   14.0509   -4.2597   24.7840 H   0  0  0  0  0  0  0  0  0  0  0  0
   14.6588    0.7101   23.4421 H   0  0  0  0  0  0  0  0  0  0  0  0
   10.1996   -2.3361   24.3842 H   0  0  0  0  0  0  0  0  0  0  0  0
   12.5414    4.3186   20.4976 H   0  0  0  0  0  0  0  0  0  0  0  0
   13.5262    5.7797   20.6976 H   0  0  0  0  0  0  0  0  0  0  0  0
   14.3106    4.2128   20.5069 H   0  0  0  0  0  0  0  0  0  0  0  0
   14.3498    4.9602   22.8800 H   0  0  0  0  0  0  0  0  0  0  0  0
   10.4757    0.3578   23.6592 H   0  0  0  0  0  0  0  0  0  0  0  0
   12.6298    4.7474   25.1483 H   0  0  0  0  0  0  0  0  0  0  0  0
   14.3559    2.7163   22.9634 H   0  0  0  0  0  0  0  0  0  0  0  0
  1  2  2  0  0  0  0
  1  4  1  0  0  0  0
  2  5  1  0  0  0  0
  3  6  2  0  0  0  0
  3  9  1  0  0  0  0
  4 10  2  0  0  0  0
  5 11  2  0  0  0  0
  6 13  1  0  0  0  0
  7  9  1  0  0  0  0
  7 14  2  0  0  0  0
  8 12  1  0  0  0  0
  8 13  2  0  0  0  0
  9 12  2  0  0  0  0
 10 11  1  0  0  0  0
 10 19  1  0  0  0  0
 11 21  1  0  0  0  0
 12 20  1  0  0  0  0
 13 24  1  0  0  0  0
 14 16  1  0  0  0  0
 14 20  1  0  0  0  0
 15 18  1  0  0  0  0
 15 19  2  0  0  0  0
 15 21  1  0  0  0  0
 16 22  1  0  0  0  0
 16 23  2  0  0  0  0
 17 18  1  0  0  0  0
 18 22  1  0  0  0  0
  1 25  1  0  0  0  0
  2 26  1  0  0  0  0
  3 27  1  0  0  0  0
  4 28  1  0  0  0  0
  5 29  1  0  0  0  0
  6 30  1  0  0  0  0
  7 31  1  0  0  0  0
  8 32  1  0  0  0  0
 17 33  1  0  0  0  0
 17 34  1  0  0  0  0
 17 35  1  0  0  0  0
 18 36  1  0  0  0  0
 20 37  1  0  0  0  0
 21 38  1  0  0  0  0
 22 39  1  0  0  0  0
M  END
> <Hybrid2>
-8.583343

> <fragments>
x0161

> <site>
active-noncovalent

$$$$
top_hits_only_mpro-346_1
  -OEChem-03302021283D

 40 42  0     1  0  0  0  0  0999 V2000
    5.5687    1.0775   19.7980 C   0  0  0  0  0  0  0  0  0  0  0  0
    5.2531    1.2050   18.4499 C   0  0  0  0  0  0  0  0  0  0  0  0
    6.7855    0.5178   20.1715 C   0  0  0  0  0  0  0  0  0  0  0  0
    6.1812    0.7610   17.5218 C   0  0  0  0  0  0  0  0  0  0  0  0
    7.6448    0.1044   19.1663 C   0  0  0  0  0  0  0  0  0  0  0  0
    9.3581   -0.6674   20.8544 C   0  0  0  0  0  0  0  0  0  0  0  0
   12.8471    1.6029   23.7112 C   0  0  0  0  0  0  0  0  0  0  0  0
   13.8444    0.8215   24.5750 C   0  0  0  0  0  0  0  0  0  0  0  0
   11.7274    0.7149   23.1565 C   0  0  0  0  0  0  0  0  0  0  0  0
   12.3202   -2.7765   21.7995 C   0  0  0  0  0  0  0  0  0  0  0  0
   14.3694   -0.4368   23.8855 C   0  0  0  0  0  0  0  0  0  0  0  0
   13.4707   -2.5731   22.7899 C   0  0  0  0  0  0  0  0  0  0  0  0
   11.3768   -1.5886   22.0057 C   0  0  1  0  0  0  0  0  0  0  0  0
   12.3238   -0.4873   22.4444 C   0  0  2  0  0  0  0  0  0  0  0  0
    7.3731    0.2120   17.8464 N   0  0  0  0  0  0  0  0  0  0  0  0
    8.8800   -0.4633   19.5570 N   0  0  0  0  0  0  0  0  0  0  0  0
   10.6315   -1.2589   20.8254 N   0  0  0  0  0  0  0  0  0  0  0  0
   13.1914   -1.2362   23.4279 N   0  3  2  0  0  0  0  0  0  0  0  0
    8.7799   -0.3848   21.9011 O   0  0  0  0  0  0  0  0  0  0  0  0
    4.8674    1.4133   20.5558 H   0  0  0  0  0  0  0  0  0  0  0  0
    4.3107    1.6389   18.1359 H   0  0  0  0  0  0  0  0  0  0  0  0
    7.0399    0.4153   21.2214 H   0  0  0  0  0  0  0  0  0  0  0  0
    5.9839    0.8384   16.4576 H   0  0  0  0  0  0  0  0  0  0  0  0
   12.4133    2.4208   24.2974 H   0  0  0  0  0  0  0  0  0  0  0  0
   13.3865    2.0635   22.8740 H   0  0  0  0  0  0  0  0  0  0  0  0
   14.6861    1.4714   24.8398 H   0  0  0  0  0  0  0  0  0  0  0  0
   13.3559    0.5399   25.5165 H   0  0  0  0  0  0  0  0  0  0  0  0
   11.0725    0.3934   23.9760 H   0  0  0  0  0  0  0  0  0  0  0  0
   11.1085    1.2954   22.4631 H   0  0  0  0  0  0  0  0  0  0  0  0
   12.7233   -2.7882   20.7793 H   0  0  0  0  0  0  0  0  0  0  0  0
   11.8061   -3.7286   21.9666 H   0  0  0  0  0  0  0  0  0  0  0  0
   14.9802   -0.1988   23.0082 H   0  0  0  0  0  0  0  0  0  0  0  0
   14.9433   -1.0595   24.5787 H   0  0  0  0  0  0  0  0  0  0  0  0
   13.4911   -3.3229   23.5857 H   0  0  0  0  0  0  0  0  0  0  0  0
   14.4386   -2.5224   22.2814 H   0  0  0  0  0  0  0  0  0  0  0  0
   10.6494   -1.8179   22.7942 H   0  0  0  0  0  0  0  0  0  0  0  0
   12.9767   -0.1715   21.6181 H   0  0  0  0  0  0  0  0  0  0  0  0
    9.4903   -0.7575   18.7986 H   0  0  0  0  0  0  0  0  0  0  0  0
   11.0482   -1.4648   19.9174 H   0  0  0  0  0  0  0  0  0  0  0  0
   12.6185   -1.4318   24.2617 H   0  0  0  0  0  0  0  0  0  0  0  0
  1  2  1  0  0  0  0
  1  3  2  0  0  0  0
  2  4  2  0  0  0  0
  3  5  1  0  0  0  0
  4 15  1  0  0  0  0
  5 15  2  0  0  0  0
  5 16  1  0  0  0  0
  6 16  1  0  0  0  0
  6 17  1  0  0  0  0
  6 19  2  0  0  0  0
  7  8  1  0  0  0  0
  7  9  1  0  0  0  0
  8 11  1  0  0  0  0
  9 14  1  0  0  0  0
 10 12  1  0  0  0  0
 10 13  1  0  0  0  0
 11 18  1  0  0  0  0
 12 18  1  0  0  0  0
 13 14  1  0  0  0  0
 13 17  1  0  0  0  0
 14 18  1  0  0  0  0
  1 20  1  0  0  0  0
  2 21  1  0  0  0  0
  3 22  1  0  0  0  0
  4 23  1  0  0  0  0
  7 24  1  0  0  0  0
  7 25  1  0  0  0  0
  8 26  1  0  0  0  0
  8 27  1  0  0  0  0
  9 28  1  0  0  0  0
  9 29  1  0  0  0  0
 10 30  1  0  0  0  0
 10 31  1  0  0  0  0
 11 32  1  0  0  0  0
 11 33  1  0  0  0  0
 12 34  1  0  0  0  0
 12 35  1  0  0  0  0
 13 36  1  0  0  0  0
 14 37  1  0  0  0  0
 16 38  1  0  0  0  0
 17 39  1  0  0  0  0
 18 40  1  0  0  0  0
M  CHG  1  18   1
M  END
> <Hybrid2>
-8.566411

> <fragments>
x0678

> <site>
active-noncovalent

$$$$
top_hits_only_mpro-38_1
  -OEChem-03302021283D

 50 54  0     1  0  0  0  0  0999 V2000
    6.7033   -5.3316   27.4109 C   0  0  0  0  0  0  0  0  0  0  0  0
    7.8691   -5.2803   26.6468 C   0  0  0  0  0  0  0  0  0  0  0  0
    5.4571   -5.2901   26.7855 C   0  0  0  0  0  0  0  0  0  0  0  0
    5.1524    0.8509   18.3801 C   0  0  0  0  0  0  0  0  0  0  0  0
    7.7888   -5.1874   25.2574 C   0  0  0  0  0  0  0  0  0  0  0  0
    5.3768   -5.1973   25.3960 C   0  0  0  0  0  0  0  0  0  0  0  0
    5.1860   -0.1105   19.3840 C   0  0  0  0  0  0  0  0  0  0  0  0
    6.1733    0.8463   17.4433 C   0  0  0  0  0  0  0  0  0  0  0  0
    7.1975   -0.9545   18.4366 C   0  0  0  0  0  0  0  0  0  0  0  0
    6.4208   -6.2034   22.4432 C   0  0  0  0  0  0  0  0  0  0  0  0
    6.4075   -3.8685   22.3912 C   0  0  0  0  0  0  0  0  0  0  0  0
    6.5427   -5.1459   24.6320 C   0  0  0  0  0  0  0  0  0  0  0  0
    6.2247   -1.0341   19.4200 C   0  0  0  0  0  0  0  0  0  0  0  0
    6.4594   -5.0498   23.1961 C   0  0  0  0  0  0  0  0  0  0  0  0
    6.4196   -2.5044   22.6994 C   0  0  0  0  0  0  0  0  0  0  0  0
    6.3306   -4.1919   21.0427 C   0  0  0  0  0  0  0  0  0  0  0  0
    6.2875   -2.0422   20.4480 C   0  0  0  0  0  0  0  0  0  0  0  0
    7.9220   -1.3238   25.8902 C   0  0  0  0  0  0  0  0  0  0  0  0
    6.6737   -1.0143   26.7088 C   0  0  0  0  0  0  0  0  0  0  0  0
    7.6454   -1.2245   24.3926 C   0  0  0  0  0  0  0  0  0  0  0  0
    5.2581   -1.8395   24.7844 C   0  0  0  0  0  0  0  0  0  0  0  0
    5.5243   -1.9388   26.2945 C   0  0  2  0  0  0  0  0  0  0  0  0
    4.2594   -1.6169   27.0878 C   0  0  0  0  0  0  0  0  0  0  0  0
    7.1986   -0.0348   17.4457 N   0  0  0  0  0  0  0  0  0  0  0  0
    6.3589   -1.5842   21.7132 N   0  0  0  0  0  0  0  0  0  0  0  0
    6.2678   -3.3171   20.0199 N   0  0  0  0  0  0  0  0  0  0  0  0
    6.4953   -2.0617   24.0257 N   0  0  1  0  0  0  0  0  0  0  0  0
    6.3212   -5.8737   20.7677 S   0  0  0  0  0  0  0  0  0  0  0  0
    6.7655   -5.4049   28.4927 H   0  0  0  0  0  0  0  0  0  0  0  0
    8.8394   -5.3138   27.1335 H   0  0  0  0  0  0  0  0  0  0  0  0
    4.5495   -5.3313   27.3805 H   0  0  0  0  0  0  0  0  0  0  0  0
    4.3524    1.5805   18.3312 H   0  0  0  0  0  0  0  0  0  0  0  0
    8.7068   -5.1484   24.6756 H   0  0  0  0  0  0  0  0  0  0  0  0
    4.3977   -5.1660   24.9237 H   0  0  0  0  0  0  0  0  0  0  0  0
    4.3965   -0.1279   20.1313 H   0  0  0  0  0  0  0  0  0  0  0  0
    6.1931    1.5760   16.6402 H   0  0  0  0  0  0  0  0  0  0  0  0
    8.0342   -1.6467   18.4079 H   0  0  0  0  0  0  0  0  0  0  0  0
    6.4450   -7.2289   22.7868 H   0  0  0  0  0  0  0  0  0  0  0  0
    8.7213   -0.6248   26.1619 H   0  0  0  0  0  0  0  0  0  0  0  0
    8.2843   -2.3308   26.1323 H   0  0  0  0  0  0  0  0  0  0  0  0
    6.8958   -1.1400   27.7750 H   0  0  0  0  0  0  0  0  0  0  0  0
    6.3895    0.0354   26.5619 H   0  0  0  0  0  0  0  0  0  0  0  0
    7.4479   -0.1804   24.1175 H   0  0  0  0  0  0  0  0  0  0  0  0
    8.5408   -1.5476   23.8469 H   0  0  0  0  0  0  0  0  0  0  0  0
    4.5073   -2.5901   24.5046 H   0  0  0  0  0  0  0  0  0  0  0  0
    4.8460   -0.8524   24.5354 H   0  0  0  0  0  0  0  0  0  0  0  0
    5.8095   -2.9758   26.5261 H   0  0  0  0  0  0  0  0  0  0  0  0
    3.9462   -0.5947   26.8830 H   0  0  0  0  0  0  0  0  0  0  0  0
    4.4556   -1.7237   28.1531 H   0  0  0  0  0  0  0  0  0  0  0  0
    3.4612   -2.2993   26.8013 H   0  0  0  0  0  0  0  0  0  0  0  0
  1  2  1  0  0  0  0
  1  3  2  0  0  0  0
  2  5  2  0  0  0  0
  3  6  1  0  0  0  0
  4  7  2  0  0  0  0
  4  8  1  0  0  0  0
  5 12  1  0  0  0  0
  6 12  2  0  0  0  0
  7 13  1  0  0  0  0
  8 24  2  0  0  0  0
  9 13  2  0  0  0  0
  9 24  1  0  0  0  0
 10 14  2  0  0  0  0
 10 28  1  0  0  0  0
 11 14  1  0  0  0  0
 11 15  2  0  0  0  0
 11 16  1  0  0  0  0
 12 14  1  0  0  0  0
 13 17  1  0  0  0  0
 15 25  1  0  0  0  0
 15 27  1  0  0  0  0
 16 26  2  0  0  0  0
 16 28  1  0  0  0  0
 17 25  2  0  0  0  0
 17 26  1  0  0  0  0
 18 19  1  0  0  0  0
 18 20  1  0  0  0  0
 19 22  1  0  0  0  0
 20 27  1  0  0  0  0
 21 22  1  0  0  0  0
 21 27  1  0  0  0  0
 22 23  1  0  0  0  0
  1 29  1  0  0  0  0
  2 30  1  0  0  0  0
  3 31  1  0  0  0  0
  4 32  1  0  0  0  0
  5 33  1  0  0  0  0
  6 34  1  0  0  0  0
  7 35  1  0  0  0  0
  8 36  1  0  0  0  0
  9 37  1  0  0  0  0
 10 38  1  0  0  0  0
 18 39  1  0  0  0  0
 18 40  1  0  0  0  0
 19 41  1  0  0  0  0
 19 42  1  0  0  0  0
 20 43  1  0  0  0  0
 20 44  1  0  0  0  0
 21 45  1  0  0  0  0
 21 46  1  0  0  0  0
 22 47  1  0  0  0  0
 23 48  1  0  0  0  0
 23 49  1  0  0  0  0
 23 50  1  0  0  0  0
M  END
> <Hybrid2>
-8.548792

> <fragments>
x0397

> <site>
active-noncovalent

$$$$
top_hits_only_mpro-305_1
  -OEChem-03302021283D

 36 37  0     1  0  0  0  0  0999 V2000
   13.7075   -0.4147   23.0165 C   0  0  0  0  0  0  0  0  0  0  0  0
   13.1505   -1.5110   22.4892 C   0  0  0  0  0  0  0  0  0  0  0  0
   12.8944    0.6536   23.5314 C   0  0  0  0  0  0  0  0  0  0  0  0
   11.5616    0.5539   23.4837 C   0  0  0  0  0  0  0  0  0  0  0  0
   11.6625   -1.6385   22.4264 C   0  0  0  0  0  0  0  0  0  0  0  0
    7.5973   -0.0114   18.9475 C   0  0  0  0  0  0  0  0  0  0  0  0
    8.9602    0.2960   21.8352 C   0  0  0  0  0  0  0  0  0  0  0  0
    4.6656    1.2949   19.7182 C   0  0  0  0  0  0  0  0  0  0  0  0
    4.8182    1.3731   18.2007 C   0  0  0  0  0  0  0  0  0  0  0  0
    5.5345    0.2340   20.3929 C   0  0  0  0  0  0  0  0  0  0  0  0
    6.2254    1.7423   17.7510 C   0  0  0  0  0  0  0  0  0  0  0  0
    7.0342    0.5048   20.2665 C   0  0  1  0  0  0  0  0  0  0  0  0
    9.4794   -0.6097   22.9225 C   0  0  0  0  0  0  0  0  0  0  0  0
    7.1398    0.6164   17.8092 N   0  0  0  0  0  0  0  0  0  0  0  0
   10.9486   -0.5590   22.9470 N   0  0  0  0  0  0  0  0  0  0  0  0
    7.7584   -0.1688   21.3184 N   0  0  0  0  0  0  0  0  0  0  0  0
   11.1757   -2.6556   21.9348 O   0  0  0  0  0  0  0  0  0  0  0  0
    8.4043   -0.9410   18.8863 O   0  0  0  0  0  0  0  0  0  0  0  0
    9.5412    1.3142   21.4690 O   0  0  0  0  0  0  0  0  0  0  0  0
   14.7852   -0.3080   23.0685 H   0  0  0  0  0  0  0  0  0  0  0  0
   13.7510   -2.3239   22.0987 H   0  0  0  0  0  0  0  0  0  0  0  0
   13.3815    1.5251   23.9527 H   0  0  0  0  0  0  0  0  0  0  0  0
   10.9205    1.3415   23.8636 H   0  0  0  0  0  0  0  0  0  0  0  0
    4.8796    2.2768   20.1586 H   0  0  0  0  0  0  0  0  0  0  0  0
    3.6148    1.0778   19.9468 H   0  0  0  0  0  0  0  0  0  0  0  0
    4.5047    0.4293   17.7382 H   0  0  0  0  0  0  0  0  0  0  0  0
    4.1266    2.1410   17.8322 H   0  0  0  0  0  0  0  0  0  0  0  0
    5.2564    0.2226   21.4550 H   0  0  0  0  0  0  0  0  0  0  0  0
    5.2845   -0.7551   19.9889 H   0  0  0  0  0  0  0  0  0  0  0  0
    6.2009    2.0626   16.7039 H   0  0  0  0  0  0  0  0  0  0  0  0
    6.6357    2.5674   18.3425 H   0  0  0  0  0  0  0  0  0  0  0  0
    7.2636    1.5698   20.3764 H   0  0  0  0  0  0  0  0  0  0  0  0
    9.0916   -0.2820   23.8915 H   0  0  0  0  0  0  0  0  0  0  0  0
    9.1587   -1.6383   22.7331 H   0  0  0  0  0  0  0  0  0  0  0  0
    7.5049    0.2769   16.9246 H   0  0  0  0  0  0  0  0  0  0  0  0
    7.3687   -1.0267   21.6997 H   0  0  0  0  0  0  0  0  0  0  0  0
  1  2  2  0  0  0  0
  1  3  1  0  0  0  0
  2  5  1  0  0  0  0
  3  4  2  0  0  0  0
  4 15  1  0  0  0  0
  5 15  1  0  0  0  0
  5 17  2  0  0  0  0
  6 12  1  0  0  0  0
  6 14  1  0  0  0  0
  6 18  2  0  0  0  0
  7 13  1  0  0  0  0
  7 16  1  0  0  0  0
  7 19  2  0  0  0  0
  8  9  1  0  0  0  0
  8 10  1  0  0  0  0
  9 11  1  0  0  0  0
 10 12  1  0  0  0  0
 11 14  1  0  0  0  0
 12 16  1  0  0  0  0
 13 15  1  0  0  0  0
  1 20  1  0  0  0  0
  2 21  1  0  0  0  0
  3 22  1  0  0  0  0
  4 23  1  0  0  0  0
  8 24  1  0  0  0  0
  8 25  1  0  0  0  0
  9 26  1  0  0  0  0
  9 27  1  0  0  0  0
 10 28  1  0  0  0  0
 10 29  1  0  0  0  0
 11 30  1  0  0  0  0
 11 31  1  0  0  0  0
 12 32  1  0  0  0  0
 13 33  1  0  0  0  0
 13 34  1  0  0  0  0
 14 35  1  0  0  0  0
 16 36  1  0  0  0  0
M  END
> <Hybrid2>
-8.533876

> <fragments>
x1093

> <site>
active-noncovalent

$$$$
top_hits_only_mpro-129_1
  -OEChem-03302021283D

 40 43  0     0  0  0  0  0  0999 V2000
    9.4008   -4.8802   24.6026 C   0  0  0  0  0  0  0  0  0  0  0  0
    8.7684   -3.9423   23.7919 C   0  0  0  0  0  0  0  0  0  0  0  0
   10.7501   -4.7292   24.9239 C   0  0  0  0  0  0  0  0  0  0  0  0
    9.4828   -2.8498   23.2993 C   0  0  0  0  0  0  0  0  0  0  0  0
   12.8433   -3.4679   24.7502 C   0  0  0  0  0  0  0  0  0  0  0  0
   10.0638    2.1413   24.7412 C   0  0  0  0  0  0  0  0  0  0  0  0
   11.2618    1.4211   24.7384 C   0  0  0  0  0  0  0  0  0  0  0  0
   13.5577   -2.3755   24.2576 C   0  0  0  0  0  0  0  0  0  0  0  0
   12.3250    3.0831   23.3227 C   0  0  0  0  0  0  0  0  0  0  0  0
   11.5760   -1.5886   23.1255 C   0  0  0  0  0  0  0  0  0  0  0  0
   10.7276    5.0512   22.7072 C   0  0  0  0  0  0  0  0  0  0  0  0
   11.4846   -3.6357   24.4369 C   0  0  0  0  0  0  0  0  0  0  0  0
   10.8415   -2.6820   23.6124 C   0  0  0  0  0  0  0  0  0  0  0  0
   11.1280    3.8264   23.3108 C   0  0  0  0  0  0  0  0  0  0  0  0
   10.0273    3.3394   24.0189 C   0  0  0  0  0  0  0  0  0  0  0  0
   12.3762    1.8828   24.0408 C   0  0  0  0  0  0  0  0  0  0  0  0
   12.9253   -1.4376   23.4468 C   0  0  0  0  0  0  0  0  0  0  0  0
    9.4159    5.2797   23.0538 C   0  0  0  0  0  0  0  0  0  0  0  0
    8.5079    6.3894   22.7090 C   0  0  0  0  0  0  0  0  0  0  0  0
    9.0023    4.2419   23.8452 N   0  0  0  0  0  0  0  0  0  0  0  0
   13.5940    1.1180   24.0571 N   0  0  0  0  0  0  0  0  0  0  0  0
   13.1512    0.3913   21.6219 O   0  0  0  0  0  0  0  0  0  0  0  0
   15.2318   -0.4329   22.7584 O   0  0  0  0  0  0  0  0  0  0  0  0
   13.8216   -0.0710   22.8313 S   0  0  0  0  0  0  0  0  0  0  0  0
    8.8437   -5.7299   24.9865 H   0  0  0  0  0  0  0  0  0  0  0  0
    7.7177   -4.0600   23.5433 H   0  0  0  0  0  0  0  0  0  0  0  0
   11.2239   -5.4744   25.5595 H   0  0  0  0  0  0  0  0  0  0  0  0
    8.9678   -2.1292   22.6675 H   0  0  0  0  0  0  0  0  0  0  0  0
   13.3576   -4.1879   25.3831 H   0  0  0  0  0  0  0  0  0  0  0  0
    9.1968    1.7812   25.2846 H   0  0  0  0  0  0  0  0  0  0  0  0
   11.3126    0.4865   25.2931 H   0  0  0  0  0  0  0  0  0  0  0  0
   14.6085   -2.2672   24.5133 H   0  0  0  0  0  0  0  0  0  0  0  0
   13.1959    3.4409   22.7794 H   0  0  0  0  0  0  0  0  0  0  0  0
   11.0914   -0.8484   22.4911 H   0  0  0  0  0  0  0  0  0  0  0  0
   11.3358    5.6949   22.0859 H   0  0  0  0  0  0  0  0  0  0  0  0
    7.9524    6.1761   21.7805 H   0  0  0  0  0  0  0  0  0  0  0  0
    7.7673    6.5823   23.5045 H   0  0  0  0  0  0  0  0  0  0  0  0
    9.0506    7.3396   22.5627 H   0  0  0  0  0  0  0  0  0  0  0  0
    8.0787    4.1480   24.2452 H   0  0  0  0  0  0  0  0  0  0  0  0
   13.9339    0.8695   24.9956 H   0  0  0  0  0  0  0  0  0  0  0  0
  1  2  2  0  0  0  0
  1  3  1  0  0  0  0
  2  4  1  0  0  0  0
  3 12  2  0  0  0  0
  4 13  2  0  0  0  0
  5  8  2  0  0  0  0
  5 12  1  0  0  0  0
  6  7  1  0  0  0  0
  6 15  2  0  0  0  0
  7 16  2  0  0  0  0
  8 17  1  0  0  0  0
  9 14  2  0  0  0  0
  9 16  1  0  0  0  0
 10 13  1  0  0  0  0
 10 17  2  0  0  0  0
 11 14  1  0  0  0  0
 11 18  2  0  0  0  0
 12 13  1  0  0  0  0
 14 15  1  0  0  0  0
 15 20  1  0  0  0  0
 16 21  1  0  0  0  0
 17 24  1  0  0  0  0
 18 19  1  0  0  0  0
 18 20  1  0  0  0  0
 21 24  1  0  0  0  0
 22 24  2  0  0  0  0
 23 24  2  0  0  0  0
  1 25  1  0  0  0  0
  2 26  1  0  0  0  0
  3 27  1  0  0  0  0
  4 28  1  0  0  0  0
  5 29  1  0  0  0  0
  6 30  1  0  0  0  0
  7 31  1  0  0  0  0
  8 32  1  0  0  0  0
  9 33  1  0  0  0  0
 10 34  1  0  0  0  0
 11 35  1  0  0  0  0
 19 36  1  0  0  0  0
 19 37  1  0  0  0  0
 19 38  1  0  0  0  0
 20 39  1  0  0  0  0
 21 40  1  0  0  0  0
M  END
> <Hybrid2>
-8.526791

> <fragments>
x0161

> <site>
active-noncovalent

$$$$
top_hits_only_mpro-251_1
  -OEChem-03302021283D

 33 35  0     0  0  0  0  0  0999 V2000
    3.7159    2.2258   22.7784 C   0  0  0  0  0  0  0  0  0  0  0  0
   12.2102   -1.8522   22.4933 C   0  0  0  0  0  0  0  0  0  0  0  0
   11.4345    0.2837   23.2810 C   0  0  0  0  0  0  0  0  0  0  0  0
    7.3906   -0.1789   21.6791 C   0  0  0  0  0  0  0  0  0  0  0  0
    4.4511    1.5796   23.7902 C   0  0  0  0  0  0  0  0  0  0  0  0
   13.5033   -1.3811   22.6534 C   0  0  0  0  0  0  0  0  0  0  0  0
   12.7624    0.6591   23.4061 C   0  0  0  0  0  0  0  0  0  0  0  0
    4.3838    1.9175   21.6185 C   0  0  0  0  0  0  0  0  0  0  0  0
   11.1617   -0.9977   22.8153 C   0  0  0  0  0  0  0  0  0  0  0  0
    6.3840    0.5936   21.1365 C   0  0  0  0  0  0  0  0  0  0  0  0
    8.3017   -0.6911   20.7781 C   0  0  0  0  0  0  0  0  0  0  0  0
    7.2162    0.2966   19.0422 C   0  0  0  0  0  0  0  0  0  0  0  0
    9.7504   -1.4533   22.6611 C   0  0  0  0  0  0  0  0  0  0  0  0
   13.8076   -0.1431   23.1031 N   0  0  0  0  0  0  0  0  0  0  0  0
    5.5052    0.9111   23.3148 N   0  0  0  0  0  0  0  0  0  0  0  0
    6.2661    0.8527   19.8177 N   0  0  0  0  0  0  0  0  0  0  0  0
    8.2444   -0.4728   19.4479 N   0  0  0  0  0  0  0  0  0  0  0  0
    5.4372    1.1356   21.9915 N   0  0  0  0  0  0  0  0  0  0  0  0
    7.1249    0.5480   17.6558 N   0  0  0  0  0  0  0  0  0  0  0  0
    9.3287   -1.4749   21.2833 N   0  0  0  0  0  0  0  0  0  0  0  0
    2.8260    2.8299   22.8758 H   0  0  0  0  0  0  0  0  0  0  0  0
   12.0308   -2.8573   22.1267 H   0  0  0  0  0  0  0  0  0  0  0  0
   10.6385    0.9731   23.5406 H   0  0  0  0  0  0  0  0  0  0  0  0
    7.4623   -0.3726   22.7435 H   0  0  0  0  0  0  0  0  0  0  0  0
    4.2629    1.5674   24.8543 H   0  0  0  0  0  0  0  0  0  0  0  0
   14.3563   -2.0082   22.4150 H   0  0  0  0  0  0  0  0  0  0  0  0
   13.0281    1.6480   23.7650 H   0  0  0  0  0  0  0  0  0  0  0  0
    4.1959    2.1846   20.5869 H   0  0  0  0  0  0  0  0  0  0  0  0
    9.6149   -2.4672   23.0633 H   0  0  0  0  0  0  0  0  0  0  0  0
    9.0541   -0.8008   23.2061 H   0  0  0  0  0  0  0  0  0  0  0  0
    6.3511    1.0753   17.3071 H   0  0  0  0  0  0  0  0  0  0  0  0
    7.7819    0.1161   17.0391 H   0  0  0  0  0  0  0  0  0  0  0  0
    9.8109   -2.0983   20.6434 H   0  0  0  0  0  0  0  0  0  0  0  0
  1  5  1  0  0  0  0
  1  8  2  0  0  0  0
  2  6  2  0  0  0  0
  2  9  1  0  0  0  0
  3  7  1  0  0  0  0
  3  9  2  0  0  0  0
  4 10  2  0  0  0  0
  4 11  1  0  0  0  0
  5 15  2  0  0  0  0
  6 14  1  0  0  0  0
  7 14  2  0  0  0  0
  8 18  1  0  0  0  0
  9 13  1  0  0  0  0
 10 16  1  0  0  0  0
 10 18  1  0  0  0  0
 11 17  2  0  0  0  0
 11 20  1  0  0  0  0
 12 16  2  0  0  0  0
 12 17  1  0  0  0  0
 12 19  1  0  0  0  0
 13 20  1  0  0  0  0
 15 18  1  0  0  0  0
  1 21  1  0  0  0  0
  2 22  1  0  0  0  0
  3 23  1  0  0  0  0
  4 24  1  0  0  0  0
  5 25  1  0  0  0  0
  6 26  1  0  0  0  0
  7 27  1  0  0  0  0
  8 28  1  0  0  0  0
 13 29  1  0  0  0  0
 13 30  1  0  0  0  0
 19 31  1  0  0  0  0
 19 32  1  0  0  0  0
 20 33  1  0  0  0  0
M  END
> <Hybrid2>
-8.486082

> <fragments>
x1093

> <site>
active-noncovalent

$$$$
-11.719925880432127_1
  -OEChem-03302021283D

 43 46  0     1  0  0  0  0  0999 V2000
    5.6971   -5.6797   24.5823 C   0  0  0  0  0  0  0  0  0  0  0  0
    4.3438   -3.9014   23.6639 C   0  0  0  0  0  0  0  0  0  0  0  0
    4.5749   -6.5065   24.6350 C   0  0  0  0  0  0  0  0  0  0  0  0
    3.2216   -4.7283   23.7165 C   0  0  0  0  0  0  0  0  0  0  0  0
    6.1169   -0.8104   20.7582 C   0  0  0  0  0  0  0  0  0  0  0  0
    7.1835   -1.5299   18.3425 C   0  0  0  0  0  0  0  0  0  0  0  0
    6.1354    0.1046   19.7090 C   0  0  0  0  0  0  0  0  0  0  0  0
    5.5815   -4.3771   24.0968 C   0  0  0  0  0  0  0  0  0  0  0  0
    6.6758   -0.2437   18.4668 C   0  0  0  0  0  0  0  0  0  0  0  0
    3.3372   -6.0308   24.2021 C   0  0  0  0  0  0  0  0  0  0  0  0
    6.6519   -2.0648   20.5167 C   0  0  0  0  0  0  0  0  0  0  0  0
    6.2268    1.8223   17.5688 C   0  0  0  0  0  0  0  0  0  0  0  0
    5.5844    1.4671   19.8814 C   0  0  0  0  0  0  0  0  0  0  0  0
    6.6646   -3.0681   21.5676 C   0  0  0  0  0  0  0  0  0  0  0  0
    8.3964   -1.9220   26.7249 C   0  0  0  0  0  0  0  0  0  0  0  0
    8.0561   -1.5524   25.2662 C   0  0  0  0  0  0  0  0  0  0  0  0
    7.8494   -3.3320   26.4206 C   0  0  0  0  0  0  0  0  0  0  0  0
    6.9896   -2.6776   25.3082 C   0  0  0  0  0  0  0  0  0  0  0  0
    6.7991   -3.4801   24.0380 C   0  0  2  0  0  0  0  0  0  0  0  0
    7.1855   -2.4495   19.3354 N   0  0  0  0  0  0  0  0  0  0  0  0
    6.7180    0.6434   17.3767 N   0  0  0  0  0  0  0  0  0  0  0  0
    5.6733    2.2623   18.7501 N   0  0  0  0  0  0  0  0  0  0  0  0
    6.7525   -2.6072   22.8870 N   0  0  0  0  0  0  0  0  0  0  0  0
    5.0976    1.8311   20.9452 O   0  0  0  0  0  0  0  0  0  0  0  0
    6.6198   -4.2796   21.2863 O   0  0  0  0  0  0  0  0  0  0  0  0
    1.9532   -7.0510   24.2669 Cl  0  0  0  0  0  0  0  0  0  0  0  0
    6.6579   -6.0576   24.9217 H   0  0  0  0  0  0  0  0  0  0  0  0
    4.2453   -2.8879   23.2840 H   0  0  0  0  0  0  0  0  0  0  0  0
    4.6803   -7.5192   25.0154 H   0  0  0  0  0  0  0  0  0  0  0  0
    2.2636   -4.3440   23.3758 H   0  0  0  0  0  0  0  0  0  0  0  0
    5.7021   -0.5584   21.7285 H   0  0  0  0  0  0  0  0  0  0  0  0
    7.6188   -1.8719   17.4081 H   0  0  0  0  0  0  0  0  0  0  0  0
    6.2172    2.5818   16.7725 H   0  0  0  0  0  0  0  0  0  0  0  0
    9.4538   -1.8695   26.9954 H   0  0  0  0  0  0  0  0  0  0  0  0
    7.8083   -1.3713   27.4680 H   0  0  0  0  0  0  0  0  0  0  0  0
    7.6730   -0.5403   25.1127 H   0  0  0  0  0  0  0  0  0  0  0  0
    8.8804   -1.7315   24.5658 H   0  0  0  0  0  0  0  0  0  0  0  0
    8.6137   -4.0283   26.0558 H   0  0  0  0  0  0  0  0  0  0  0  0
    7.2927   -3.8086   27.2315 H   0  0  0  0  0  0  0  0  0  0  0  0
    6.0259   -2.3137   25.6961 H   0  0  0  0  0  0  0  0  0  0  0  0
    7.6944   -4.0981   23.8970 H   0  0  0  0  0  0  0  0  0  0  0  0
    5.3132    3.2109   18.7985 H   0  0  0  0  0  0  0  0  0  0  0  0
    6.8502   -1.6118   23.0585 H   0  0  0  0  0  0  0  0  0  0  0  0
  1  3  2  0  0  0  0
  1  8  1  0  0  0  0
  2  4  1  0  0  0  0
  2  8  2  0  0  0  0
  3 10  1  0  0  0  0
  4 10  2  0  0  0  0
  5  7  1  0  0  0  0
  5 11  2  0  0  0  0
  6  9  1  0  0  0  0
  6 20  2  0  0  0  0
  7  9  2  0  0  0  0
  7 13  1  0  0  0  0
  8 19  1  0  0  0  0
  9 21  1  0  0  0  0
 10 26  1  0  0  0  0
 11 14  1  0  0  0  0
 11 20  1  0  0  0  0
 12 21  2  0  0  0  0
 12 22  1  0  0  0  0
 13 22  1  0  0  0  0
 13 24  2  0  0  0  0
 14 23  1  0  0  0  0
 14 25  2  0  0  0  0
 15 16  1  0  0  0  0
 15 17  1  0  0  0  0
 16 18  1  0  0  0  0
 17 18  1  0  0  0  0
 18 19  1  0  0  0  0
 19 23  1  0  0  0  0
  1 27  1  0  0  0  0
  2 28  1  0  0  0  0
  3 29  1  0  0  0  0
  4 30  1  0  0  0  0
  5 31  1  0  0  0  0
  6 32  1  0  0  0  0
 12 33  1  0  0  0  0
 15 34  1  0  0  0  0
 15 35  1  0  0  0  0
 16 36  1  0  0  0  0
 16 37  1  0  0  0  0
 17 38  1  0  0  0  0
 17 39  1  0  0  0  0
 18 40  1  0  0  0  0
 19 41  1  0  0  0  0
 22 42  1  0  0  0  0
 23 43  1  0  0  0  0
M  END
> <Hybrid2>
-8.484887

> <fragments>
x0397

> <site>
active-noncovalent

$$$$
top_hits_only_mpro-16_1
  -OEChem-03302021283D

 44 46  0     0  0  0  0  0  0999 V2000
    4.4794    1.3324   19.2358 C   0  0  0  0  0  0  0  0  0  0  0  0
    4.5648    1.1812   20.6153 C   0  0  0  0  0  0  0  0  0  0  0  0
    9.2610   -3.0408   25.0168 C   0  0  0  0  0  0  0  0  0  0  0  0
    8.0436   -3.5210   22.9859 C   0  0  0  0  0  0  0  0  0  0  0  0
    5.5606    0.9784   18.4235 C   0  0  0  0  0  0  0  0  0  0  0  0
    8.4127   -3.8908   25.7263 C   0  0  0  0  0  0  0  0  0  0  0  0
    7.1953   -4.3711   23.6955 C   0  0  0  0  0  0  0  0  0  0  0  0
    8.8736   -0.3483   18.7702 C   0  0  0  0  0  0  0  0  0  0  0  0
    6.8149    0.3221   20.3558 C   0  0  0  0  0  0  0  0  0  0  0  0
    9.0764   -2.8559   23.6465 C   0  0  0  0  0  0  0  0  0  0  0  0
    5.7320    0.6758   21.1794 C   0  0  0  0  0  0  0  0  0  0  0  0
    6.7407    0.4704   18.9612 C   0  0  0  0  0  0  0  0  0  0  0  0
    7.3799   -4.5560   25.0657 C   0  0  0  0  0  0  0  0  0  0  0  0
    8.0095   -0.1882   20.8560 C   0  0  0  0  0  0  0  0  0  0  0  0
    5.4499   -6.1528   25.2884 C   0  0  0  0  0  0  0  0  0  0  0  0
    5.7186    0.5528   22.6712 C   0  0  0  0  0  0  0  0  0  0  0  0
    4.7839   -6.9505   26.3813 C   0  0  0  0  0  0  0  0  0  0  0  0
    9.9942   -1.9362   22.8790 C   0  0  0  0  0  0  0  0  0  0  0  0
    9.4941   -0.4943   22.8379 C   0  0  0  0  0  0  0  0  0  0  0  0
    7.7704    0.1355   18.1642 N   0  0  0  0  0  0  0  0  0  0  0  0
    9.0593   -0.5337   20.0871 N   0  0  0  0  0  0  0  0  0  0  0  0
    6.5314   -5.4064   25.7751 N   0  0  0  0  0  0  0  0  0  0  0  0
    8.2001   -0.3796   22.2428 N   0  0  0  0  0  0  0  0  0  0  0  0
    5.0392   -6.2047   24.1335 O   0  0  0  0  0  0  0  0  0  0  0  0
    3.5714    1.7252   18.7869 H   0  0  0  0  0  0  0  0  0  0  0  0
    3.7179    1.4602   21.2364 H   0  0  0  0  0  0  0  0  0  0  0  0
   10.0618   -2.5248   25.5400 H   0  0  0  0  0  0  0  0  0  0  0  0
    7.8921   -3.3822   21.9187 H   0  0  0  0  0  0  0  0  0  0  0  0
    5.4679    1.1055   17.3466 H   0  0  0  0  0  0  0  0  0  0  0  0
    8.5661   -4.0278   26.7938 H   0  0  0  0  0  0  0  0  0  0  0  0
    6.3929   -4.8837   23.1709 H   0  0  0  0  0  0  0  0  0  0  0  0
    9.6993   -0.6166   18.1225 H   0  0  0  0  0  0  0  0  0  0  0  0
    5.3417   -0.4326   22.9643 H   0  0  0  0  0  0  0  0  0  0  0  0
    6.7248    0.6826   23.0852 H   0  0  0  0  0  0  0  0  0  0  0  0
    5.0826    1.3223   23.1232 H   0  0  0  0  0  0  0  0  0  0  0  0
    3.9892   -6.3565   26.8414 H   0  0  0  0  0  0  0  0  0  0  0  0
    5.5186   -7.2136   27.1477 H   0  0  0  0  0  0  0  0  0  0  0  0
    4.3608   -7.8704   25.9672 H   0  0  0  0  0  0  0  0  0  0  0  0
   10.0899   -2.3162   21.8540 H   0  0  0  0  0  0  0  0  0  0  0  0
   11.0027   -1.9740   23.3103 H   0  0  0  0  0  0  0  0  0  0  0  0
    9.4097   -0.0997   23.8554 H   0  0  0  0  0  0  0  0  0  0  0  0
   10.1748    0.1535   22.2758 H   0  0  0  0  0  0  0  0  0  0  0  0
    6.7182   -5.5023   26.7800 H   0  0  0  0  0  0  0  0  0  0  0  0
    7.3759   -0.4346   22.8089 H   0  0  0  0  0  0  0  0  0  0  0  0
  1  2  1  0  0  0  0
  1  5  2  0  0  0  0
  2 11  2  0  0  0  0
  3  6  2  0  0  0  0
  3 10  1  0  0  0  0
  4  7  1  0  0  0  0
  4 10  2  0  0  0  0
  5 12  1  0  0  0  0
  6 13  1  0  0  0  0
  7 13  2  0  0  0  0
  8 20  1  0  0  0  0
  8 21  2  0  0  0  0
  9 11  1  0  0  0  0
  9 12  1  0  0  0  0
  9 14  2  0  0  0  0
 10 18  1  0  0  0  0
 11 16  1  0  0  0  0
 12 20  2  0  0  0  0
 13 22  1  0  0  0  0
 14 21  1  0  0  0  0
 14 23  1  0  0  0  0
 15 17  1  0  0  0  0
 15 22  1  0  0  0  0
 15 24  2  0  0  0  0
 18 19  1  0  0  0  0
 19 23  1  0  0  0  0
  1 25  1  0  0  0  0
  2 26  1  0  0  0  0
  3 27  1  0  0  0  0
  4 28  1  0  0  0  0
  5 29  1  0  0  0  0
  6 30  1  0  0  0  0
  7 31  1  0  0  0  0
  8 32  1  0  0  0  0
 16 33  1  0  0  0  0
 16 34  1  0  0  0  0
 16 35  1  0  0  0  0
 17 36  1  0  0  0  0
 17 37  1  0  0  0  0
 17 38  1  0  0  0  0
 18 39  1  0  0  0  0
 18 40  1  0  0  0  0
 19 41  1  0  0  0  0
 19 42  1  0  0  0  0
 22 43  1  0  0  0  0
 23 44  1  0  0  0  0
M  END
> <Hybrid2>
-8.404476

> <fragments>
x0107

> <site>
active-noncovalent

$$$$
top_hits_only_mpro-389_1
  -OEChem-03302021283D

 25 26  0     0  0  0  0  0  0999 V2000
   13.9220   -1.9442   22.6522 C   0  0  0  0  0  0  0  0  0  0  0  0
   12.6207   -2.4098   22.5001 C   0  0  0  0  0  0  0  0  0  0  0  0
   14.1529   -0.5825   22.8130 C   0  0  0  0  0  0  0  0  0  0  0  0
   11.5933   -1.4802   22.5157 C   0  0  0  0  0  0  0  0  0  0  0  0
   13.0570    0.2653   22.8144 C   0  0  0  0  0  0  0  0  0  0  0  0
   10.7775    6.0422   23.3092 C   0  0  0  0  0  0  0  0  0  0  0  0
   11.9716    6.6242   23.4816 C   0  0  0  0  0  0  0  0  0  0  0  0
   13.1738    4.5728   23.3226 C   0  0  0  0  0  0  0  0  0  0  0  0
   12.0662    3.8397   23.1381 C   0  0  0  0  0  0  0  0  0  0  0  0
   10.7491    4.5584   23.1197 C   0  0  0  0  0  0  0  0  0  0  0  0
   13.2433    1.7295   22.9818 C   0  0  0  0  0  0  0  0  0  0  0  0
   11.7786   -0.1499   22.6695 N   0  0  0  0  0  0  0  0  0  0  0  0
   13.1501    5.9307   23.4921 N   0  0  0  0  0  0  0  0  0  0  0  0
   12.0795    2.4896   22.9686 N   0  0  0  0  0  0  0  0  0  0  0  0
    9.6860    3.9685   22.9575 O   0  0  0  0  0  0  0  0  0  0  0  0
   14.3766    2.1746   23.1444 O   0  0  0  0  0  0  0  0  0  0  0  0
   14.7546   -2.6412   22.6455 H   0  0  0  0  0  0  0  0  0  0  0  0
   12.4167   -3.4666   22.3729 H   0  0  0  0  0  0  0  0  0  0  0  0
   15.1638   -0.2076   22.9339 H   0  0  0  0  0  0  0  0  0  0  0  0
   10.5603   -1.7924   22.4026 H   0  0  0  0  0  0  0  0  0  0  0  0
    9.8478    6.5961   23.3021 H   0  0  0  0  0  0  0  0  0  0  0  0
   12.0833    7.6915   23.6258 H   0  0  0  0  0  0  0  0  0  0  0  0
   14.1701    4.1480   23.3512 H   0  0  0  0  0  0  0  0  0  0  0  0
   14.0193    6.4308   23.6265 H   0  0  0  0  0  0  0  0  0  0  0  0
   11.1812    2.0369   22.8369 H   0  0  0  0  0  0  0  0  0  0  0  0
  1  2  1  0  0  0  0
  1  3  2  0  0  0  0
  2  4  2  0  0  0  0
  3  5  1  0  0  0  0
  4 12  1  0  0  0  0
  5 11  1  0  0  0  0
  5 12  2  0  0  0  0
  6  7  2  0  0  0  0
  6 10  1  0  0  0  0
  7 13  1  0  0  0  0
  8  9  2  0  0  0  0
  8 13  1  0  0  0  0
  9 10  1  0  0  0  0
  9 14  1  0  0  0  0
 10 15  2  0  0  0  0
 11 14  1  0  0  0  0
 11 16  2  0  0  0  0
  1 17  1  0  0  0  0
  2 18  1  0  0  0  0
  3 19  1  0  0  0  0
  4 20  1  0  0  0  0
  6 21  1  0  0  0  0
  7 22  1  0  0  0  0
  8 23  1  0  0  0  0
 13 24  1  0  0  0  0
 14 25  1  0  0  0  0
M  END
> <Hybrid2>
-8.341784

> <fragments>
x0195

> <site>
active-noncovalent

$$$$
-11.713483810424805_1
  -OEChem-03302021283D

 29 32  0     0  0  0  0  0  0999 V2000
   13.8230   -0.8840   21.7093 C   0  0  0  0  0  0  0  0  0  0  0  0
   13.9737    0.4805   21.9695 C   0  0  0  0  0  0  0  0  0  0  0  0
    5.4399   -4.5282   23.3933 C   0  0  0  0  0  0  0  0  0  0  0  0
    5.9466   -5.7514   22.9686 C   0  0  0  0  0  0  0  0  0  0  0  0
   12.5975   -1.5137   21.9341 C   0  0  0  0  0  0  0  0  0  0  0  0
   12.9001    1.2272   22.4570 C   0  0  0  0  0  0  0  0  0  0  0  0
    6.2611   -3.4062   23.3996 C   0  0  0  0  0  0  0  0  0  0  0  0
    7.2707   -5.7993   22.5632 C   0  0  0  0  0  0  0  0  0  0  0  0
   11.5231   -0.7700   22.4211 C   0  0  0  0  0  0  0  0  0  0  0  0
   11.6745    0.6005   22.6825 C   0  0  0  0  0  0  0  0  0  0  0  0
    7.5711   -3.5592   22.9751 C   0  0  0  0  0  0  0  0  0  0  0  0
    8.4634   -2.4348   22.9609 C   0  0  0  0  0  0  0  0  0  0  0  0
   10.2199   -1.3348   22.6835 C   0  0  0  0  0  0  0  0  0  0  0  0
    9.3116    0.8419   23.4408 C   0  0  0  0  0  0  0  0  0  0  0  0
    8.0990   -4.7309   22.5554 N   0  0  0  0  0  0  0  0  0  0  0  0
    9.7596   -2.5582   22.5471 N   0  0  0  0  0  0  0  0  0  0  0  0
    8.0856   -1.2134   23.3463 N   0  0  0  0  0  0  0  0  0  0  0  0
    9.2242   -0.5184   23.1626 N   0  0  0  0  0  0  0  0  0  0  0  0
   10.5768    1.3485   23.1770 N   0  0  0  0  0  0  0  0  0  0  0  0
    8.3333    1.4378   23.8651 O   0  0  0  0  0  0  0  0  0  0  0  0
   14.6644   -1.4573   21.3303 H   0  0  0  0  0  0  0  0  0  0  0  0
   14.9308    0.9627   21.7921 H   0  0  0  0  0  0  0  0  0  0  0  0
    4.4069   -4.4497   23.7187 H   0  0  0  0  0  0  0  0  0  0  0  0
    5.3248   -6.6391   22.9553 H   0  0  0  0  0  0  0  0  0  0  0  0
   12.4976   -2.5755   21.7261 H   0  0  0  0  0  0  0  0  0  0  0  0
   13.0305    2.2873   22.6557 H   0  0  0  0  0  0  0  0  0  0  0  0
    5.8722   -2.4483   23.7298 H   0  0  0  0  0  0  0  0  0  0  0  0
    7.7139   -6.7294   22.2229 H   0  0  0  0  0  0  0  0  0  0  0  0
   10.7351    2.3374   23.3510 H   0  0  0  0  0  0  0  0  0  0  0  0
  1  2  1  0  0  0  0
  1  5  2  0  0  0  0
  2  6  2  0  0  0  0
  3  4  1  0  0  0  0
  3  7  2  0  0  0  0
  4  8  2  0  0  0  0
  5  9  1  0  0  0  0
  6 10  1  0  0  0  0
  7 11  1  0  0  0  0
  8 15  1  0  0  0  0
  9 10  2  0  0  0  0
  9 13  1  0  0  0  0
 10 19  1  0  0  0  0
 11 12  1  0  0  0  0
 11 15  2  0  0  0  0
 12 16  1  0  0  0  0
 12 17  2  0  0  0  0
 13 16  2  0  0  0  0
 13 18  1  0  0  0  0
 14 18  1  0  0  0  0
 14 19  1  0  0  0  0
 14 20  2  0  0  0  0
 17 18  1  0  0  0  0
  1 21  1  0  0  0  0
  2 22  1  0  0  0  0
  3 23  1  0  0  0  0
  4 24  1  0  0  0  0
  5 25  1  0  0  0  0
  6 26  1  0  0  0  0
  7 27  1  0  0  0  0
  8 28  1  0  0  0  0
 19 29  1  0  0  0  0
M  END
> <Hybrid2>
-8.338983

> <fragments>
x0874

> <site>
active-noncovalent

$$$$
top_hits_only_mpro-179_1
  -OEChem-03302021283D

 26 27  0     0  0  0  0  0  0999 V2000
   11.5234    0.0125   24.6580 C   0  0  0  0  0  0  0  0  0  0  0  0
   10.4337    0.2360   23.8165 C   0  0  0  0  0  0  0  0  0  0  0  0
   12.7236   -0.4664   24.1327 C   0  0  0  0  0  0  0  0  0  0  0  0
   11.7442   -0.4985   21.9244 C   0  0  0  0  0  0  0  0  0  0  0  0
   10.5441   -0.0195   22.4497 C   0  0  0  0  0  0  0  0  0  0  0  0
   12.8340   -0.7219   22.7659 C   0  0  0  0  0  0  0  0  0  0  0  0
    7.6691    0.1530   19.5385 C   0  0  0  0  0  0  0  0  0  0  0  0
    7.2257    0.4230   20.7696 C   0  0  0  0  0  0  0  0  0  0  0  0
    6.7949    0.4653   18.3814 C   0  0  0  0  0  0  0  0  0  0  0  0
    5.1057    1.3048   19.9985 C   0  0  0  0  0  0  0  0  0  0  0  0
    8.0859    0.1157   21.9120 C   0  0  0  0  0  0  0  0  0  0  0  0
    5.9973    0.9762   21.0101 N   0  0  0  0  0  0  0  0  0  0  0  0
    5.5666    1.0237   18.7089 N   0  0  0  0  0  0  0  0  0  0  0  0
    9.4366    0.2069   21.5965 N   0  0  0  0  0  0  0  0  0  0  0  0
    7.1652    0.2315   17.2345 O   0  0  0  0  0  0  0  0  0  0  0  0
    4.0005    1.8024   20.2162 O   0  0  0  0  0  0  0  0  0  0  0  0
    7.5841   -0.1805   22.9980 O   0  0  0  0  0  0  0  0  0  0  0  0
   14.3148   -1.3128   22.1176 Cl  0  0  0  0  0  0  0  0  0  0  0  0
   11.4373    0.2115   25.7224 H   0  0  0  0  0  0  0  0  0  0  0  0
    9.5033    0.6093   24.2374 H   0  0  0  0  0  0  0  0  0  0  0  0
   13.5641   -0.6354   24.8008 H   0  0  0  0  0  0  0  0  0  0  0  0
   11.8269   -0.6963   20.8579 H   0  0  0  0  0  0  0  0  0  0  0  0
    8.6399   -0.2848   19.3375 H   0  0  0  0  0  0  0  0  0  0  0  0
    5.7274    1.1533   21.9733 H   0  0  0  0  0  0  0  0  0  0  0  0
    4.9434    1.2505   17.9390 H   0  0  0  0  0  0  0  0  0  0  0  0
    9.6756    0.4667   20.6416 H   0  0  0  0  0  0  0  0  0  0  0  0
  1  2  1  0  0  0  0
  1  3  2  0  0  0  0
  2  5  2  0  0  0  0
  3  6  1  0  0  0  0
  4  5  1  0  0  0  0
  4  6  2  0  0  0  0
  5 14  1  0  0  0  0
  6 18  1  0  0  0  0
  7  8  2  0  0  0  0
  7  9  1  0  0  0  0
  8 11  1  0  0  0  0
  8 12  1  0  0  0  0
  9 13  1  0  0  0  0
  9 15  2  0  0  0  0
 10 12  1  0  0  0  0
 10 13  1  0  0  0  0
 10 16  2  0  0  0  0
 11 14  1  0  0  0  0
 11 17  2  0  0  0  0
  1 19  1  0  0  0  0
  2 20  1  0  0  0  0
  3 21  1  0  0  0  0
  4 22  1  0  0  0  0
  7 23  1  0  0  0  0
 12 24  1  0  0  0  0
 13 25  1  0  0  0  0
 14 26  1  0  0  0  0
M  END
> <Hybrid2>
-8.302268

> <fragments>
x0678

> <site>
active-noncovalent

$$$$
top_hits_only_mpro-31_1
  -OEChem-03302021283D

 46 48  0     1  0  0  0  0  0999 V2000
    4.9261    1.6107   18.8731 C   0  0  0  0  0  0  0  0  0  0  0  0
    5.6337    1.5226   17.6851 C   0  0  0  0  0  0  0  0  0  0  0  0
    7.0248   -0.0989   18.5300 C   0  0  0  0  0  0  0  0  0  0  0  0
    6.3824   -0.0866   19.7577 C   0  0  0  0  0  0  0  0  0  0  0  0
    5.3139    0.7874   19.9242 C   0  0  0  0  0  0  0  0  0  0  0  0
    8.5149   -1.8287   22.4771 C   0  0  0  0  0  0  0  0  0  0  0  0
    8.6525   -3.2682   23.9565 C   0  0  0  0  0  0  0  0  0  0  0  0
    6.8411   -0.9840   20.8328 C   0  0  0  0  0  0  0  0  0  0  0  0
    8.0811   -0.9791   21.4320 C   0  0  0  0  0  0  0  0  0  0  0  0
    9.4329   -5.2881   25.3024 C   0  0  0  0  0  0  0  0  0  0  0  0
    8.8549   -5.9977   26.5086 C   0  0  0  0  0  0  0  0  0  0  0  0
    8.2748   -4.3986   24.8813 C   0  0  1  0  0  0  0  0  0  0  0  0
    7.7152   -3.9749   26.2428 C   0  0  1  0  0  0  0  0  0  0  0  0
    4.5635    0.8669   21.2140 C   0  0  0  0  0  0  0  0  0  0  0  0
    6.0359   -2.1434   26.0227 C   0  0  0  0  0  0  0  0  0  0  0  0
    5.5874   -4.0888   27.5395 C   0  0  0  0  0  0  0  0  0  0  0  0
    5.5661   -4.4073   25.0527 C   0  0  0  0  0  0  0  0  0  0  0  0
    6.2300   -3.6544   26.2145 C   0  0  0  0  0  0  0  0  0  0  0  0
    6.6768    0.6860   17.4858 N   0  0  0  0  0  0  0  0  0  0  0  0
    7.7837   -2.7603   23.0350 N   0  0  0  0  0  0  0  0  0  0  0  0
    9.8619   -2.7007   23.9893 N   0  0  0  0  0  0  0  0  0  0  0  0
    9.7699   -1.7259   22.9878 O   0  0  0  0  0  0  0  0  0  0  0  0
    7.9447   -5.0829   27.1344 O   0  0  0  0  0  0  0  0  0  0  0  0
    4.0969    2.3033   18.9705 H   0  0  0  0  0  0  0  0  0  0  0  0
    5.3710    2.1435   16.8348 H   0  0  0  0  0  0  0  0  0  0  0  0
    7.8661   -0.7576   18.3345 H   0  0  0  0  0  0  0  0  0  0  0  0
    6.0969   -1.6912   21.1910 H   0  0  0  0  0  0  0  0  0  0  0  0
    8.7909   -0.2037   21.0652 H   0  0  0  0  0  0  0  0  0  0  0  0
   10.2994   -4.6855   25.6036 H   0  0  0  0  0  0  0  0  0  0  0  0
    9.7612   -5.9803   24.5213 H   0  0  0  0  0  0  0  0  0  0  0  0
    8.2845   -6.8840   26.2107 H   0  0  0  0  0  0  0  0  0  0  0  0
    9.6231   -6.3018   27.2249 H   0  0  0  0  0  0  0  0  0  0  0  0
    7.5263   -5.0329   24.3504 H   0  0  0  0  0  0  0  0  0  0  0  0
    8.2700   -3.1188   26.6499 H   0  0  0  0  0  0  0  0  0  0  0  0
    3.7266    0.1595   21.2098 H   0  0  0  0  0  0  0  0  0  0  0  0
    5.2144    0.6344   22.0654 H   0  0  0  0  0  0  0  0  0  0  0  0
    4.1681    1.8764   21.3799 H   0  0  0  0  0  0  0  0  0  0  0  0
    4.9724   -1.8808   25.9981 H   0  0  0  0  0  0  0  0  0  0  0  0
    6.4852   -1.8025   25.0831 H   0  0  0  0  0  0  0  0  0  0  0  0
    6.5001   -1.5780   26.8384 H   0  0  0  0  0  0  0  0  0  0  0  0
    4.5137   -3.8701   27.5494 H   0  0  0  0  0  0  0  0  0  0  0  0
    5.7098   -5.1651   27.7048 H   0  0  0  0  0  0  0  0  0  0  0  0
    6.0416   -3.5672   28.3894 H   0  0  0  0  0  0  0  0  0  0  0  0
    4.4918   -4.1959   25.0061 H   0  0  0  0  0  0  0  0  0  0  0  0
    5.6881   -5.4908   25.1619 H   0  0  0  0  0  0  0  0  0  0  0  0
    6.0047   -4.1176   24.0911 H   0  0  0  0  0  0  0  0  0  0  0  0
  1  2  2  0  0  0  0
  1  5  1  0  0  0  0
  2 19  1  0  0  0  0
  3  4  1  0  0  0  0
  3 19  2  0  0  0  0
  4  5  2  0  0  0  0
  4  8  1  0  0  0  0
  5 14  1  0  0  0  0
  6  9  1  0  0  0  0
  6 20  2  0  0  0  0
  6 22  1  0  0  0  0
  7 12  1  0  0  0  0
  7 20  1  0  0  0  0
  7 21  2  0  0  0  0
  8  9  2  0  0  0  0
 10 11  1  0  0  0  0
 10 12  1  0  0  0  0
 11 23  1  0  0  0  0
 12 13  1  0  0  0  0
 13 18  1  0  0  0  0
 13 23  1  0  0  0  0
 15 18  1  0  0  0  0
 16 18  1  0  0  0  0
 17 18  1  0  0  0  0
 21 22  1  0  0  0  0
  1 24  1  0  0  0  0
  2 25  1  0  0  0  0
  3 26  1  0  0  0  0
  8 27  1  0  0  0  0
  9 28  1  0  0  0  0
 10 29  1  0  0  0  0
 10 30  1  0  0  0  0
 11 31  1  0  0  0  0
 11 32  1  0  0  0  0
 12 33  1  0  0  0  0
 13 34  1  0  0  0  0
 14 35  1  0  0  0  0
 14 36  1  0  0  0  0
 14 37  1  0  0  0  0
 15 38  1  0  0  0  0
 15 39  1  0  0  0  0
 15 40  1  0  0  0  0
 16 41  1  0  0  0  0
 16 42  1  0  0  0  0
 16 43  1  0  0  0  0
 17 44  1  0  0  0  0
 17 45  1  0  0  0  0
 17 46  1  0  0  0  0
M  END
> <Hybrid2>
-8.087626

> <fragments>
x0107

> <site>
active-noncovalent

$$$$
top_hits_only_mpro-167_1
  -OEChem-03302021283D

 26 27  0     0  0  0  0  0  0999 V2000
   11.1063   -0.8649   24.1014 C   0  0  0  0  0  0  0  0  0  0  0  0
   12.3881   -2.6661   25.0758 C   0  0  0  0  0  0  0  0  0  0  0  0
   13.1628   -0.3864   25.2757 C   0  0  0  0  0  0  0  0  0  0  0  0
   11.2753   -2.2251   24.3595 C   0  0  0  0  0  0  0  0  0  0  0  0
   12.0500    0.0545   24.5594 C   0  0  0  0  0  0  0  0  0  0  0  0
   13.3318   -1.7467   25.5339 C   0  0  0  0  0  0  0  0  0  0  0  0
    9.0538   -5.4105   23.0611 C   0  0  0  0  0  0  0  0  0  0  0  0
    8.6419   -4.2257   22.6007 C   0  0  0  0  0  0  0  0  0  0  0  0
    8.1657   -6.5873   22.8963 C   0  0  0  0  0  0  0  0  0  0  0  0
    6.5316   -5.0852   21.7796 C   0  0  0  0  0  0  0  0  0  0  0  0
    9.5158   -3.0640   22.7624 C   0  0  0  0  0  0  0  0  0  0  0  0
    7.4338   -4.0502   21.9825 N   0  0  0  0  0  0  0  0  0  0  0  0
    6.9594   -6.3264   22.2601 N   0  0  0  0  0  0  0  0  0  0  0  0
   10.3167   -3.1582   23.8947 N   0  0  0  0  0  0  0  0  0  0  0  0
    8.5071   -7.6929   23.3063 O   0  0  0  0  0  0  0  0  0  0  0  0
    5.4445   -4.9261   21.2234 O   0  0  0  0  0  0  0  0  0  0  0  0
    9.4814   -2.1487   21.9379 O   0  0  0  0  0  0  0  0  0  0  0  0
   11.8412    1.7332   24.2416 Cl  0  0  0  0  0  0  0  0  0  0  0  0
   14.7052   -2.2908   26.4168 Cl  0  0  0  0  0  0  0  0  0  0  0  0
   10.2369   -0.5234   23.5432 H   0  0  0  0  0  0  0  0  0  0  0  0
   12.5176   -3.7276   25.2762 H   0  0  0  0  0  0  0  0  0  0  0  0
   13.8987    0.3307   25.6330 H   0  0  0  0  0  0  0  0  0  0  0  0
   10.0084   -5.5599   23.5520 H   0  0  0  0  0  0  0  0  0  0  0  0
    7.1876   -3.1195   21.6583 H   0  0  0  0  0  0  0  0  0  0  0  0
    6.3276   -7.1117   22.1304 H   0  0  0  0  0  0  0  0  0  0  0  0
   10.2144   -3.9921   24.4698 H   0  0  0  0  0  0  0  0  0  0  0  0
  1  4  2  0  0  0  0
  1  5  1  0  0  0  0
  2  4  1  0  0  0  0
  2  6  2  0  0  0  0
  3  5  2  0  0  0  0
  3  6  1  0  0  0  0
  4 14  1  0  0  0  0
  5 18  1  0  0  0  0
  6 19  1  0  0  0  0
  7  8  2  0  0  0  0
  7  9  1  0  0  0  0
  8 11  1  0  0  0  0
  8 12  1  0  0  0  0
  9 13  1  0  0  0  0
  9 15  2  0  0  0  0
 10 12  1  0  0  0  0
 10 13  1  0  0  0  0
 10 16  2  0  0  0  0
 11 14  1  0  0  0  0
 11 17  2  0  0  0  0
  1 20  1  0  0  0  0
  2 21  1  0  0  0  0
  3 22  1  0  0  0  0
  7 23  1  0  0  0  0
 12 24  1  0  0  0  0
 13 25  1  0  0  0  0
 14 26  1  0  0  0  0
M  END
> <Hybrid2>
-7.993063

> <fragments>
x0749

> <site>
active-covalent

$$$$
top_hits_only_mpro-51_1
  -OEChem-03302021283D

 38 39  0     1  0  0  0  0  0999 V2000
    6.4356    0.5911   20.5672 C   0  0  0  0  0  0  0  0  0  0  0  0
    5.8653    0.6442   18.2588 C   0  0  0  0  0  0  0  0  0  0  0  0
    8.0329    0.1716   18.8558 C   0  0  0  0  0  0  0  0  0  0  0  0
    5.4731    0.7770   19.5810 C   0  0  0  0  0  0  0  0  0  0  0  0
    7.7423    0.2825   20.2060 C   0  0  0  0  0  0  0  0  0  0  0  0
    7.5777   -3.7822   24.4290 C   0  0  0  0  0  0  0  0  0  0  0  0
    6.9340   -3.0884   22.1767 C   0  0  0  0  0  0  0  0  0  0  0  0
    8.7054   -2.9783   23.8018 C   0  0  1  0  0  0  0  0  0  0  0  0
    7.9596   -2.1338   22.7740 C   0  0  1  0  0  0  0  0  0  0  0  0
    9.4706   -2.1555   24.8272 C   0  0  0  0  0  0  0  0  0  0  0  0
    5.2003   -5.4969   24.6180 C   0  0  0  0  0  0  0  0  0  0  0  0
    5.2829   -4.3928   23.5867 C   0  0  0  0  0  0  0  0  0  0  0  0
    7.1249    0.3452   17.8694 N   0  0  0  0  0  0  0  0  0  0  0  0
    8.8706   -1.6330   21.7258 N   0  0  0  0  0  0  0  0  0  0  0  0
    6.7163   -4.1477   23.2418 N   0  3  2  0  0  0  0  0  0  0  0  0
   10.2776    0.3258   20.8228 O   0  0  0  0  0  0  0  0  0  0  0  0
    8.5694    0.7584   22.6170 O   0  0  0  0  0  0  0  0  0  0  0  0
    4.2085    1.0753   19.8997 F   0  0  0  0  0  0  0  0  0  0  0  0
    8.9928    0.0382   21.4314 S   0  0  0  0  0  0  0  0  0  0  0  0
    6.1575    0.6885   21.6130 H   0  0  0  0  0  0  0  0  0  0  0  0
    5.1526    0.7801   17.4521 H   0  0  0  0  0  0  0  0  0  0  0  0
    9.0345   -0.0674   18.5117 H   0  0  0  0  0  0  0  0  0  0  0  0
    7.9098   -4.7062   24.9107 H   0  0  0  0  0  0  0  0  0  0  0  0
    6.9702   -3.1838   25.1175 H   0  0  0  0  0  0  0  0  0  0  0  0
    5.9836   -2.5884   21.9633 H   0  0  0  0  0  0  0  0  0  0  0  0
    7.2849   -3.6116   21.2809 H   0  0  0  0  0  0  0  0  0  0  0  0
    9.4078   -3.6597   23.3023 H   0  0  0  0  0  0  0  0  0  0  0  0
    7.4548   -1.2827   23.2466 H   0  0  0  0  0  0  0  0  0  0  0  0
    8.7939   -1.4694   25.3383 H   0  0  0  0  0  0  0  0  0  0  0  0
   10.2532   -1.5764   24.3350 H   0  0  0  0  0  0  0  0  0  0  0  0
    9.9310   -2.8119   25.5669 H   0  0  0  0  0  0  0  0  0  0  0  0
    5.6104   -6.4260   24.2105 H   0  0  0  0  0  0  0  0  0  0  0  0
    5.7698   -5.2415   25.5177 H   0  0  0  0  0  0  0  0  0  0  0  0
    4.1630   -5.6857   24.9137 H   0  0  0  0  0  0  0  0  0  0  0  0
    4.8790   -3.4513   23.9689 H   0  0  0  0  0  0  0  0  0  0  0  0
    4.7716   -4.6663   22.6597 H   0  0  0  0  0  0  0  0  0  0  0  0
    9.6651   -2.2395   21.5009 H   0  0  0  0  0  0  0  0  0  0  0  0
    7.0903   -5.0293   22.8641 H   0  0  0  0  0  0  0  0  0  0  0  0
  1  4  1  0  0  0  0
  1  5  2  0  0  0  0
  2  4  2  0  0  0  0
  2 13  1  0  0  0  0
  3  5  1  0  0  0  0
  3 13  2  0  0  0  0
  4 18  1  0  0  0  0
  5 19  1  0  0  0  0
  6  8  1  0  0  0  0
  6 15  1  0  0  0  0
  7  9  1  0  0  0  0
  7 15  1  0  0  0  0
  8  9  1  0  0  0  0
  8 10  1  0  0  0  0
  9 14  1  0  0  0  0
 11 12  1  0  0  0  0
 12 15  1  0  0  0  0
 14 19  1  0  0  0  0
 16 19  2  0  0  0  0
 17 19  2  0  0  0  0
  1 20  1  0  0  0  0
  2 21  1  0  0  0  0
  3 22  1  0  0  0  0
  6 23  1  0  0  0  0
  6 24  1  0  0  0  0
  7 25  1  0  0  0  0
  7 26  1  0  0  0  0
  8 27  1  0  0  0  0
  9 28  1  0  0  0  0
 10 29  1  0  0  0  0
 10 30  1  0  0  0  0
 10 31  1  0  0  0  0
 11 32  1  0  0  0  0
 11 33  1  0  0  0  0
 11 34  1  0  0  0  0
 12 35  1  0  0  0  0
 12 36  1  0  0  0  0
 14 37  1  0  0  0  0
 15 38  1  0  0  0  0
M  CHG  1  15   1
M  END
> <Hybrid2>
-7.900436

> <fragments>
x0107

> <site>
active-noncovalent

$$$$
top_hits_only_mpro-226_1
  -OEChem-03302021283D

 43 47  0     0  0  0  0  0  0999 V2000
   10.5660    0.2624   25.0773 C   0  0  0  0  0  0  0  0  0  0  0  0
    6.8215   -4.7335   22.7318 C   0  0  0  0  0  0  0  0  0  0  0  0
    6.2627   -3.9886   21.6971 C   0  0  0  0  0  0  0  0  0  0  0  0
    6.6532    0.2636   18.2138 C   0  0  0  0  0  0  0  0  0  0  0  0
   10.7331    7.3078   24.7659 C   0  0  0  0  0  0  0  0  0  0  0  0
    7.5048    0.1720   19.3147 C   0  0  0  0  0  0  0  0  0  0  0  0
    7.7437   -4.1544   23.6064 C   0  0  0  0  0  0  0  0  0  0  0  0
    6.6060   -2.6456   21.5033 C   0  0  0  0  0  0  0  0  0  0  0  0
    5.3231    0.6446   18.3908 C   0  0  0  0  0  0  0  0  0  0  0  0
    9.7420    6.3184   24.5033 C   0  0  0  0  0  0  0  0  0  0  0  0
    5.6962    0.8422   20.7696 C   0  0  0  0  0  0  0  0  0  0  0  0
   12.0102    6.8044   24.6506 C   0  0  0  0  0  0  0  0  0  0  0  0
    7.0263    0.4613   20.5926 C   0  0  0  0  0  0  0  0  0  0  0  0
    8.0984   -2.8055   23.4250 C   0  0  0  0  0  0  0  0  0  0  0  0
    7.5322   -2.0684   22.3850 C   0  0  0  0  0  0  0  0  0  0  0  0
    4.8446    0.9339   19.6686 C   0  0  0  0  0  0  0  0  0  0  0  0
   10.2994    5.0963   24.1971 C   0  0  0  0  0  0  0  0  0  0  0  0
    8.9601   -0.8504   23.5944 C   0  0  0  0  0  0  0  0  0  0  0  0
    8.6039    1.4704   22.0878 C   0  0  0  0  0  0  0  0  0  0  0  0
    9.6868    0.3343   23.9521 C   0  0  0  0  0  0  0  0  0  0  0  0
    7.9145    0.3660   21.7397 C   0  0  0  0  0  0  0  0  0  0  0  0
    9.5272    1.4761   23.2311 C   0  0  0  0  0  0  0  0  0  0  0  0
    9.6179    3.8328   23.8662 C   0  0  0  0  0  0  0  0  0  0  0  0
   10.2449    2.6992   23.5609 C   0  0  0  0  0  0  0  0  0  0  0  0
   11.2791    0.2041   25.9904 N   0  0  0  0  0  0  0  0  0  0  0  0
    8.9691   -2.0432   24.1529 N   0  0  0  0  0  0  0  0  0  0  0  0
    8.0943   -0.8015   22.4989 N   0  0  0  0  0  0  0  0  0  0  0  0
    3.5673    1.2996   19.8384 F   0  0  0  0  0  0  0  0  0  0  0  0
   12.0108    5.1451   24.2272 S   0  0  0  0  0  0  0  0  0  0  0  0
    6.5387   -5.7748   22.8612 H   0  0  0  0  0  0  0  0  0  0  0  0
    5.5465   -4.4569   21.0264 H   0  0  0  0  0  0  0  0  0  0  0  0
    7.0253    0.0385   17.2186 H   0  0  0  0  0  0  0  0  0  0  0  0
   10.5200    8.3362   25.0272 H   0  0  0  0  0  0  0  0  0  0  0  0
    8.5390   -0.1269   19.1609 H   0  0  0  0  0  0  0  0  0  0  0  0
    8.1766   -4.7394   24.4118 H   0  0  0  0  0  0  0  0  0  0  0  0
    6.1573   -2.0868   20.6906 H   0  0  0  0  0  0  0  0  0  0  0  0
    4.6601    0.7169   17.5338 H   0  0  0  0  0  0  0  0  0  0  0  0
    8.6755    6.5031   24.5396 H   0  0  0  0  0  0  0  0  0  0  0  0
    5.3081    1.0711   21.7591 H   0  0  0  0  0  0  0  0  0  0  0  0
   12.9425    7.3313   24.7954 H   0  0  0  0  0  0  0  0  0  0  0  0
    8.4970    2.3973   21.5292 H   0  0  0  0  0  0  0  0  0  0  0  0
    8.5302    3.8743   23.8645 H   0  0  0  0  0  0  0  0  0  0  0  0
   11.3179    2.6088   23.5246 H   0  0  0  0  0  0  0  0  0  0  0  0
  1 20  1  0  0  0  0
  1 25  3  0  0  0  0
  2  3  2  0  0  0  0
  2  7  1  0  0  0  0
  3  8  1  0  0  0  0
  4  6  2  0  0  0  0
  4  9  1  0  0  0  0
  5 10  1  0  0  0  0
  5 12  2  0  0  0  0
  6 13  1  0  0  0  0
  7 14  2  0  0  0  0
  8 15  2  0  0  0  0
  9 16  2  0  0  0  0
 10 17  2  0  0  0  0
 11 13  2  0  0  0  0
 11 16  1  0  0  0  0
 12 29  1  0  0  0  0
 13 21  1  0  0  0  0
 14 15  1  0  0  0  0
 14 26  1  0  0  0  0
 15 27  1  0  0  0  0
 16 28  1  0  0  0  0
 17 23  1  0  0  0  0
 17 29  1  0  0  0  0
 18 20  1  0  0  0  0
 18 26  2  0  0  0  0
 18 27  1  0  0  0  0
 19 21  2  0  0  0  0
 19 22  1  0  0  0  0
 20 22  2  0  0  0  0
 21 27  1  0  0  0  0
 22 24  1  0  0  0  0
 23 24  2  0  0  0  0
  2 30  1  0  0  0  0
  3 31  1  0  0  0  0
  4 32  1  0  0  0  0
  5 33  1  0  0  0  0
  6 34  1  0  0  0  0
  7 35  1  0  0  0  0
  8 36  1  0  0  0  0
  9 37  1  0  0  0  0
 10 38  1  0  0  0  0
 11 39  1  0  0  0  0
 12 40  1  0  0  0  0
 19 41  1  0  0  0  0
 23 42  1  0  0  0  0
 24 43  1  0  0  0  0
M  END
> <Hybrid2>
-7.830936

> <fragments>
x0434

> <site>
active-noncovalent

$$$$
top_hits_only_mpro-165_1
  -OEChem-03302021283D

 43 46  0     0  0  0  0  0  0999 V2000
    5.3721   -6.1291   28.1754 C   0  0  0  0  0  0  0  0  0  0  0  0
    6.5195   -5.3594   28.3668 C   0  0  0  0  0  0  0  0  0  0  0  0
    5.0594   -6.6107   26.9041 C   0  0  0  0  0  0  0  0  0  0  0  0
   12.8499    3.3500   22.7744 C   0  0  0  0  0  0  0  0  0  0  0  0
   10.1080   -2.4272   24.3818 C   0  0  0  0  0  0  0  0  0  0  0  0
    7.8807   -1.6085   24.8359 C   0  0  0  0  0  0  0  0  0  0  0  0
    7.3541   -5.0712   27.2870 C   0  0  0  0  0  0  0  0  0  0  0  0
    5.8940   -6.3225   25.8244 C   0  0  0  0  0  0  0  0  0  0  0  0
    9.6533   -3.7389   24.5168 C   0  0  0  0  0  0  0  0  0  0  0  0
    7.4261   -2.9202   24.9709 C   0  0  0  0  0  0  0  0  0  0  0  0
   12.4543    2.0253   22.8918 C   0  0  0  0  0  0  0  0  0  0  0  0
   11.6859    6.7103   23.8569 C   0  0  0  0  0  0  0  0  0  0  0  0
   12.0878    4.3681   23.3632 C   0  0  0  0  0  0  0  0  0  0  0  0
    9.2217   -1.3619   24.5414 C   0  0  0  0  0  0  0  0  0  0  0  0
   10.9223    4.0018   24.0683 C   0  0  0  0  0  0  0  0  0  0  0  0
    7.0414   -5.5527   26.0158 C   0  0  0  0  0  0  0  0  0  0  0  0
    8.3124   -3.9855   24.8114 C   0  0  0  0  0  0  0  0  0  0  0  0
   10.1657    5.0136   24.6532 C   0  0  0  0  0  0  0  0  0  0  0  0
   12.4613    5.7190   23.2624 C   0  0  0  0  0  0  0  0  0  0  0  0
   10.5368    6.3568   24.5531 C   0  0  0  0  0  0  0  0  0  0  0  0
   11.2994    1.7648   23.6010 C   0  0  0  0  0  0  0  0  0  0  0  0
    9.7020    0.0239   24.3988 C   0  0  0  0  0  0  0  0  0  0  0  0
   10.8358    0.3957   23.7579 C   0  0  0  0  0  0  0  0  0  0  0  0
   10.5359    2.7172   24.1840 N   0  0  0  0  0  0  0  0  0  0  0  0
    9.0309    4.6755   25.3413 O   0  0  0  0  0  0  0  0  0  0  0  0
    7.8688   -5.2655   24.9431 O   0  0  0  0  0  0  0  0  0  0  0  0
   13.8783    6.2499   22.4145 Cl  0  0  0  0  0  0  0  0  0  0  0  0
    9.5874    7.6003   25.2826 Cl  0  0  0  0  0  0  0  0  0  0  0  0
    4.7223   -6.3542   29.0160 H   0  0  0  0  0  0  0  0  0  0  0  0
    6.7630   -4.9842   29.3566 H   0  0  0  0  0  0  0  0  0  0  0  0
    4.1658   -7.2102   26.7559 H   0  0  0  0  0  0  0  0  0  0  0  0
   13.7595    3.5537   22.2166 H   0  0  0  0  0  0  0  0  0  0  0  0
   11.1561   -2.2510   24.1520 H   0  0  0  0  0  0  0  0  0  0  0  0
    7.1778   -0.7886   24.9632 H   0  0  0  0  0  0  0  0  0  0  0  0
    8.2456   -4.4698   27.4425 H   0  0  0  0  0  0  0  0  0  0  0  0
    5.6444   -6.6988   24.8360 H   0  0  0  0  0  0  0  0  0  0  0  0
   10.3485   -4.5646   24.3914 H   0  0  0  0  0  0  0  0  0  0  0  0
    6.3804   -3.1061   25.2004 H   0  0  0  0  0  0  0  0  0  0  0  0
   13.0432    1.2351   22.4376 H   0  0  0  0  0  0  0  0  0  0  0  0
   11.9753    7.7561   23.7787 H   0  0  0  0  0  0  0  0  0  0  0  0
    9.0527    0.7827   24.8287 H   0  0  0  0  0  0  0  0  0  0  0  0
   11.4532   -0.3772   23.2867 H   0  0  0  0  0  0  0  0  0  0  0  0
    8.6095    5.4732   25.6909 H   0  0  0  0  0  0  0  0  0  0  0  0
  1  2  1  0  0  0  0
  1  3  2  0  0  0  0
  2  7  2  0  0  0  0
  3  8  1  0  0  0  0
  4 11  1  0  0  0  0
  4 13  2  0  0  0  0
  5  9  2  0  0  0  0
  5 14  1  0  0  0  0
  6 10  1  0  0  0  0
  6 14  2  0  0  0  0
  7 16  1  0  0  0  0
  8 16  2  0  0  0  0
  9 17  1  0  0  0  0
 10 17  2  0  0  0  0
 11 21  2  0  0  0  0
 12 19  2  0  0  0  0
 12 20  1  0  0  0  0
 13 15  1  0  0  0  0
 13 19  1  0  0  0  0
 14 22  1  0  0  0  0
 15 18  1  0  0  0  0
 15 24  2  0  0  0  0
 16 26  1  0  0  0  0
 17 26  1  0  0  0  0
 18 20  2  0  0  0  0
 18 25  1  0  0  0  0
 19 27  1  0  0  0  0
 20 28  1  0  0  0  0
 21 23  1  0  0  0  0
 21 24  1  0  0  0  0
 22 23  2  0  0  0  0
  1 29  1  0  0  0  0
  2 30  1  0  0  0  0
  3 31  1  0  0  0  0
  4 32  1  0  0  0  0
  5 33  1  0  0  0  0
  6 34  1  0  0  0  0
  7 35  1  0  0  0  0
  8 36  1  0  0  0  0
  9 37  1  0  0  0  0
 10 38  1  0  0  0  0
 11 39  1  0  0  0  0
 12 40  1  0  0  0  0
 22 41  1  0  0  0  0
 23 42  1  0  0  0  0
 25 43  1  0  0  0  0
M  END
> <Hybrid2>
-7.776695

> <fragments>
x0104

> <site>
active-noncovalent

$$$$
top_hits_only_mpro-243_1
  -OEChem-03302021283D

 44 47  0     1  0  0  0  0  0999 V2000
    8.4209   -5.5302   26.6696 C   0  0  0  0  0  0  0  0  0  0  0  0
    7.4239   -5.6916   27.6239 C   0  0  0  0  0  0  0  0  0  0  0  0
    8.2517   -4.6195   25.6236 C   0  0  0  0  0  0  0  0  0  0  0  0
   10.4184   -0.4756   24.6195 C   0  0  0  0  0  0  0  0  0  0  0  0
    9.2470   -1.1609   24.2865 C   0  0  0  0  0  0  0  0  0  0  0  0
   10.4764   -2.6620   22.8057 C   0  0  0  0  0  0  0  0  0  0  0  0
    6.2634   -4.9277   27.5436 C   0  0  0  0  0  0  0  0  0  0  0  0
    6.0873   -3.9986   26.5046 C   0  0  0  0  0  0  0  0  0  0  0  0
    7.0685   -3.8741   25.4985 C   0  0  0  0  0  0  0  0  0  0  0  0
   11.5875   -0.9097   24.0303 C   0  0  0  0  0  0  0  0  0  0  0  0
   11.6193   -1.9711   23.1491 C   0  0  0  0  0  0  0  0  0  0  0  0
    9.2756   -2.2450   23.3870 C   0  0  0  0  0  0  0  0  0  0  0  0
   13.6781   -1.2623   23.3256 C   0  0  0  0  0  0  0  0  0  0  0  0
    5.2533   -5.1393   28.5749 C   0  0  0  0  0  0  0  0  0  0  0  0
    4.8105   -3.1975   26.4711 C   0  0  0  0  0  0  0  0  0  0  0  0
    4.9604   -1.9330   25.6380 C   0  0  0  0  0  0  0  0  0  0  0  0
    5.5494   -2.2782   24.2812 C   0  0  0  0  0  0  0  0  0  0  0  0
   13.3442    0.6316   24.9527 C   0  0  0  0  0  0  0  0  0  0  0  0
   12.8876   -0.4661   24.1384 N   0  0  0  0  0  0  0  0  0  0  0  0
    6.9129   -2.8605   24.4565 N   0  0  2  0  0  0  0  0  0  0  0  0
    4.2823   -6.1043   28.3353 N   0  0  0  0  0  0  0  0  0  0  0  0
   14.8885   -1.1763   23.1571 O   0  0  0  0  0  0  0  0  0  0  0  0
    5.2509   -4.4705   29.6204 O   0  0  0  0  0  0  0  0  0  0  0  0
    7.1157   -2.3460   21.9386 O   0  0  0  0  0  0  0  0  0  0  0  0
    8.0786   -4.4927   22.8396 O   0  0  0  0  0  0  0  0  0  0  0  0
   12.8964   -2.2365   22.6775 O   0  0  0  0  0  0  0  0  0  0  0  0
    7.7756   -3.0866   22.9911 S   0  0  0  0  0  0  0  0  0  0  0  0
    9.3375   -6.1091   26.7393 H   0  0  0  0  0  0  0  0  0  0  0  0
    7.5672   -6.4076   28.4291 H   0  0  0  0  0  0  0  0  0  0  0  0
    9.0701   -4.5155   24.9183 H   0  0  0  0  0  0  0  0  0  0  0  0
   10.3957    0.3577   25.3117 H   0  0  0  0  0  0  0  0  0  0  0  0
    8.3061   -0.8468   24.7321 H   0  0  0  0  0  0  0  0  0  0  0  0
   10.5122   -3.4950   22.1125 H   0  0  0  0  0  0  0  0  0  0  0  0
    4.0136   -3.8263   26.0546 H   0  0  0  0  0  0  0  0  0  0  0  0
    4.5089   -2.8967   27.4811 H   0  0  0  0  0  0  0  0  0  0  0  0
    3.9836   -1.4520   25.5158 H   0  0  0  0  0  0  0  0  0  0  0  0
    5.6139   -1.2194   26.1565 H   0  0  0  0  0  0  0  0  0  0  0  0
    4.9091   -2.9889   23.7451 H   0  0  0  0  0  0  0  0  0  0  0  0
    5.6258   -1.3624   23.6846 H   0  0  0  0  0  0  0  0  0  0  0  0
   13.6172    0.2593   25.9512 H   0  0  0  0  0  0  0  0  0  0  0  0
   14.2230    1.0964   24.4819 H   0  0  0  0  0  0  0  0  0  0  0  0
   12.5410    1.3773   25.0465 H   0  0  0  0  0  0  0  0  0  0  0  0
    4.3030   -6.6251   27.4653 H   0  0  0  0  0  0  0  0  0  0  0  0
    3.5530   -6.2979   29.0140 H   0  0  0  0  0  0  0  0  0  0  0  0
  1  2  2  0  0  0  0
  1  3  1  0  0  0  0
  2  7  1  0  0  0  0
  3  9  2  0  0  0  0
  4  5  2  0  0  0  0
  4 10  1  0  0  0  0
  5 12  1  0  0  0  0
  6 11  1  0  0  0  0
  6 12  2  0  0  0  0
  7  8  2  0  0  0  0
  7 14  1  0  0  0  0
  8  9  1  0  0  0  0
  8 15  1  0  0  0  0
  9 20  1  0  0  0  0
 10 11  2  0  0  0  0
 10 19  1  0  0  0  0
 11 26  1  0  0  0  0
 12 27  1  0  0  0  0
 13 19  1  0  0  0  0
 13 22  2  0  0  0  0
 13 26  1  0  0  0  0
 14 21  1  0  0  0  0
 14 23  2  0  0  0  0
 15 16  1  0  0  0  0
 16 17  1  0  0  0  0
 17 20  1  0  0  0  0
 18 19  1  0  0  0  0
 20 27  1  0  0  0  0
 24 27  2  0  0  0  0
 25 27  2  0  0  0  0
  1 28  1  0  0  0  0
  2 29  1  0  0  0  0
  3 30  1  0  0  0  0
  4 31  1  0  0  0  0
  5 32  1  0  0  0  0
  6 33  1  0  0  0  0
 15 34  1  0  0  0  0
 15 35  1  0  0  0  0
 16 36  1  0  0  0  0
 16 37  1  0  0  0  0
 17 38  1  0  0  0  0
 17 39  1  0  0  0  0
 18 40  1  0  0  0  0
 18 41  1  0  0  0  0
 18 42  1  0  0  0  0
 21 43  1  0  0  0  0
 21 44  1  0  0  0  0
M  END
> <Hybrid2>
-7.756454

> <fragments>
x0072

> <site>
active-noncovalent

$$$$
top_hits_only_mpro-188_1
  -OEChem-03302021283D

 36 38  0     0  0  0  0  0  0999 V2000
   14.4667   -1.1611   23.7158 C   0  0  0  0  0  0  0  0  0  0  0  0
   13.4799   -2.0485   23.2963 C   0  0  0  0  0  0  0  0  0  0  0  0
   11.2231   -2.4413   22.4277 C   0  0  0  0  0  0  0  0  0  0  0  0
    5.8104    0.8495   20.8566 C   0  0  0  0  0  0  0  0  0  0  0  0
    6.4611    0.5417   18.5504 C   0  0  0  0  0  0  0  0  0  0  0  0
   14.2135    0.2049   23.6969 C   0  0  0  0  0  0  0  0  0  0  0  0
    4.5960    1.3956   20.4412 C   0  0  0  0  0  0  0  0  0  0  0  0
    5.2466    1.0877   18.1349 C   0  0  0  0  0  0  0  0  0  0  0  0
   10.0038   -1.9378   21.9982 C   0  0  0  0  0  0  0  0  0  0  0  0
   12.2342   -1.5703   22.8555 C   0  0  0  0  0  0  0  0  0  0  0  0
    6.7430    0.4226   19.9112 C   0  0  0  0  0  0  0  0  0  0  0  0
   11.9703   -0.1847   22.8334 C   0  0  0  0  0  0  0  0  0  0  0  0
    4.3141    1.5146   19.0803 C   0  0  0  0  0  0  0  0  0  0  0  0
   12.9750    0.6801   23.2587 C   0  0  0  0  0  0  0  0  0  0  0  0
    9.8386   -0.5676   22.0123 C   0  0  0  0  0  0  0  0  0  0  0  0
    8.0261   -0.1542   20.3502 C   0  0  0  0  0  0  0  0  0  0  0  0
    8.5820    0.0174   21.5732 C   0  0  0  0  0  0  0  0  0  0  0  0
    2.5249    3.0186   19.5210 C   0  0  0  0  0  0  0  0  0  0  0  0
   10.7879    0.3069   22.4171 N   0  0  0  0  0  0  0  0  0  0  0  0
   12.7642    2.0308   23.2548 O   0  0  0  0  0  0  0  0  0  0  0  0
    3.1291    2.0474   18.6749 O   0  0  0  0  0  0  0  0  0  0  0  0
    1.8139    3.8643   18.7313 F   0  0  0  0  0  0  0  0  0  0  0  0
    1.6295    2.4054   20.3334 F   0  0  0  0  0  0  0  0  0  0  0  0
   15.4278   -1.5343   24.0557 H   0  0  0  0  0  0  0  0  0  0  0  0
   13.6883   -3.1160   23.3151 H   0  0  0  0  0  0  0  0  0  0  0  0
   11.3807   -3.5175   22.4271 H   0  0  0  0  0  0  0  0  0  0  0  0
    6.0158    0.7632   21.9210 H   0  0  0  0  0  0  0  0  0  0  0  0
    7.1779    0.2134   17.8015 H   0  0  0  0  0  0  0  0  0  0  0  0
   14.9828    0.8991   24.0242 H   0  0  0  0  0  0  0  0  0  0  0  0
    3.8735    1.7264   21.1823 H   0  0  0  0  0  0  0  0  0  0  0  0
    5.0326    1.1779   17.0734 H   0  0  0  0  0  0  0  0  0  0  0  0
    9.2198   -2.6105   21.6666 H   0  0  0  0  0  0  0  0  0  0  0  0
    8.5214   -0.7863   19.6171 H   0  0  0  0  0  0  0  0  0  0  0  0
    8.0454    0.6164   22.3175 H   0  0  0  0  0  0  0  0  0  0  0  0
    3.2487    3.6044   20.0977 H   0  0  0  0  0  0  0  0  0  0  0  0
   13.5542    2.4894   23.5767 H   0  0  0  0  0  0  0  0  0  0  0  0
  1  2  1  0  0  0  0
  1  6  2  0  0  0  0
  2 10  2  0  0  0  0
  3  9  2  0  0  0  0
  3 10  1  0  0  0  0
  4  7  2  0  0  0  0
  4 11  1  0  0  0  0
  5  8  1  0  0  0  0
  5 11  2  0  0  0  0
  6 14  1  0  0  0  0
  7 13  1  0  0  0  0
  8 13  2  0  0  0  0
  9 15  1  0  0  0  0
 10 12  1  0  0  0  0
 11 16  1  0  0  0  0
 12 14  2  0  0  0  0
 12 19  1  0  0  0  0
 13 21  1  0  0  0  0
 14 20  1  0  0  0  0
 15 17  1  0  0  0  0
 15 19  2  0  0  0  0
 16 17  2  0  0  0  0
 18 21  1  0  0  0  0
 18 22  1  0  0  0  0
 18 23  1  0  0  0  0
  1 24  1  0  0  0  0
  2 25  1  0  0  0  0
  3 26  1  0  0  0  0
  4 27  1  0  0  0  0
  5 28  1  0  0  0  0
  6 29  1  0  0  0  0
  7 30  1  0  0  0  0
  8 31  1  0  0  0  0
  9 32  1  0  0  0  0
 16 33  1  0  0  0  0
 17 34  1  0  0  0  0
 18 35  1  0  0  0  0
 20 36  1  0  0  0  0
M  END
> <Hybrid2>
-7.743447

> <fragments>
x1093

> <site>
active-noncovalent

$$$$
top_hits_only_mpro-117_1
  -OEChem-03302021283D

 51 53  0     0  0  0  0  0  0999 V2000
    8.2747    5.4245   25.7026 C   0  0  0  0  0  0  0  0  0  0  0  0
    9.6145    5.3294   25.3264 C   0  0  0  0  0  0  0  0  0  0  0  0
    9.2490   -3.8356   24.9640 C   0  0  0  0  0  0  0  0  0  0  0  0
    7.3232    5.8730   24.7865 C   0  0  0  0  0  0  0  0  0  0  0  0
   10.2279   -2.9660   24.4962 C   0  0  0  0  0  0  0  0  0  0  0  0
    9.0514    6.1314   23.1181 C   0  0  0  0  0  0  0  0  0  0  0  0
    7.6096   -2.4775   23.9037 C   0  0  0  0  0  0  0  0  0  0  0  0
   10.0029    5.6829   24.0342 C   0  0  0  0  0  0  0  0  0  0  0  0
    7.9125   -3.5938   24.6665 C   0  0  0  0  0  0  0  0  0  0  0  0
   11.8649    0.7780   22.5866 C   0  0  0  0  0  0  0  0  0  0  0  0
    7.7116    6.2264   23.4942 C   0  0  0  0  0  0  0  0  0  0  0  0
   12.6798   -0.3699   22.5843 C   0  0  0  0  0  0  0  0  0  0  0  0
   10.6464    0.3330   23.0380 C   0  0  0  0  0  0  0  0  0  0  0  0
    9.8214   -1.8779   23.7409 C   0  0  0  0  0  0  0  0  0  0  0  0
   12.0392    3.1961   23.2935 C   0  0  0  0  0  0  0  0  0  0  0  0
   14.0955   -0.4716   22.1889 C   0  0  0  0  0  0  0  0  0  0  0  0
    9.3777    1.0557   23.2622 C   0  0  0  0  0  0  0  0  0  0  0  0
    5.4312    6.7357   23.0510 C   0  0  0  0  0  0  0  0  0  0  0  0
   12.2406    2.1799   22.1858 C   0  0  0  0  0  0  0  0  0  0  0  0
   11.4355    5.5816   23.6323 C   0  0  0  0  0  0  0  0  0  0  0  0
    6.8419   -4.5048   25.1526 C   0  0  0  0  0  0  0  0  0  0  0  0
    8.5328   -1.6102   23.4316 N   0  0  0  0  0  0  0  0  0  0  0  0
   12.0336   -1.4620   23.0012 N   0  0  0  0  0  0  0  0  0  0  0  0
   10.7996   -1.0022   23.2698 N   0  0  0  0  0  0  0  0  0  0  0  0
   11.6883    4.4418   22.7879 N   0  0  0  0  0  0  0  0  0  0  0  0
   12.1698    2.9336   24.4864 O   0  0  0  0  0  0  0  0  0  0  0  0
    6.7829    6.6635   22.6001 O   0  0  0  0  0  0  0  0  0  0  0  0
    7.3070   -5.5576   25.8914 F   0  0  0  0  0  0  0  0  0  0  0  0
    5.9194   -3.8919   25.9547 F   0  0  0  0  0  0  0  0  0  0  0  0
    6.1223   -5.0658   24.1355 F   0  0  0  0  0  0  0  0  0  0  0  0
    7.9724    5.1489   26.7085 H   0  0  0  0  0  0  0  0  0  0  0  0
   10.3487    4.9794   26.0472 H   0  0  0  0  0  0  0  0  0  0  0  0
    9.5356   -4.6989   25.5586 H   0  0  0  0  0  0  0  0  0  0  0  0
    6.2813    5.9448   25.0856 H   0  0  0  0  0  0  0  0  0  0  0  0
   11.2732   -3.1498   24.7243 H   0  0  0  0  0  0  0  0  0  0  0  0
    9.3513    6.4079   22.1100 H   0  0  0  0  0  0  0  0  0  0  0  0
    6.5843   -2.2375   23.6397 H   0  0  0  0  0  0  0  0  0  0  0  0
   14.7645   -0.2990   23.0491 H   0  0  0  0  0  0  0  0  0  0  0  0
   14.3408   -1.4636   21.7702 H   0  0  0  0  0  0  0  0  0  0  0  0
   14.3630    0.2611   21.4068 H   0  0  0  0  0  0  0  0  0  0  0  0
    8.7523    1.0491   22.3549 H   0  0  0  0  0  0  0  0  0  0  0  0
    8.7876    0.6095   24.0803 H   0  0  0  0  0  0  0  0  0  0  0  0
    9.5469    2.1081   23.5462 H   0  0  0  0  0  0  0  0  0  0  0  0
    4.7948    7.0989   22.2403 H   0  0  0  0  0  0  0  0  0  0  0  0
    5.3677    7.4103   23.9085 H   0  0  0  0  0  0  0  0  0  0  0  0
    5.1024    5.7375   23.3499 H   0  0  0  0  0  0  0  0  0  0  0  0
   13.2919    2.2031   21.8715 H   0  0  0  0  0  0  0  0  0  0  0  0
   11.6476    2.4881   21.3155 H   0  0  0  0  0  0  0  0  0  0  0  0
   11.7569    6.4773   23.0825 H   0  0  0  0  0  0  0  0  0  0  0  0
   12.0942    5.4934   24.5073 H   0  0  0  0  0  0  0  0  0  0  0  0
   11.6066    4.5537   21.7801 H   0  0  0  0  0  0  0  0  0  0  0  0
  1  2  1  0  0  0  0
  1  4  2  0  0  0  0
  2  8  2  0  0  0  0
  3  5  2  0  0  0  0
  3  9  1  0  0  0  0
  4 11  1  0  0  0  0
  5 14  1  0  0  0  0
  6  8  1  0  0  0  0
  6 11  2  0  0  0  0
  7  9  2  0  0  0  0
  7 22  1  0  0  0  0
  8 20  1  0  0  0  0
  9 21  1  0  0  0  0
 10 12  1  0  0  0  0
 10 13  2  0  0  0  0
 10 19  1  0  0  0  0
 11 27  1  0  0  0  0
 12 16  1  0  0  0  0
 12 23  2  0  0  0  0
 13 17  1  0  0  0  0
 13 24  1  0  0  0  0
 14 22  2  0  0  0  0
 14 24  1  0  0  0  0
 15 19  1  0  0  0  0
 15 25  1  0  0  0  0
 15 26  2  0  0  0  0
 18 27  1  0  0  0  0
 20 25  1  0  0  0  0
 21 28  1  0  0  0  0
 21 29  1  0  0  0  0
 21 30  1  0  0  0  0
 23 24  1  0  0  0  0
  1 31  1  0  0  0  0
  2 32  1  0  0  0  0
  3 33  1  0  0  0  0
  4 34  1  0  0  0  0
  5 35  1  0  0  0  0
  6 36  1  0  0  0  0
  7 37  1  0  0  0  0
 16 38  1  0  0  0  0
 16 39  1  0  0  0  0
 16 40  1  0  0  0  0
 17 41  1  0  0  0  0
 17 42  1  0  0  0  0
 17 43  1  0  0  0  0
 18 44  1  0  0  0  0
 18 45  1  0  0  0  0
 18 46  1  0  0  0  0
 19 47  1  0  0  0  0
 19 48  1  0  0  0  0
 20 49  1  0  0  0  0
 20 50  1  0  0  0  0
 25 51  1  0  0  0  0
M  END
> <Hybrid2>
-6.418378

> <fragments>
x0104

> <site>
active-noncovalent

$$$$
