CHR-SOS-709-6
 OpenBabel03242009303D

 28 29  0  0  0  0  0  0  0  0999 V2000
   13.2196   -0.4090   22.2268 C   0  0  0  0  0  0  0  0  0  0  0  0
   12.6119    0.2305   23.3073 C   0  0  0  0  0  0  0  0  0  0  0  0
   12.8344   -1.7027   21.8755 C   0  0  0  0  0  0  0  0  0  0  0  0
   11.6191   -0.4238   24.0365 C   0  0  0  0  0  0  0  0  0  0  0  0
   11.8416   -2.3571   22.6047 C   0  0  0  0  0  0  0  0  0  0  0  0
    8.3057   -4.5331   25.5222 C   0  0  0  0  0  0  0  0  0  0  0  0
    7.4220   -4.5936   23.2745 C   0  0  0  0  0  0  0  0  0  0  0  0
    7.2414   -5.3203   25.9618 C   0  0  0  0  0  0  0  0  0  0  0  0
    6.3577   -5.3808   23.7140 C   0  0  0  0  0  0  0  0  0  0  0  0
   11.2339   -1.7177   23.6852 C   0  0  0  0  0  0  0  0  0  0  0  0
    8.3960   -4.1697   24.1785 C   0  0  0  0  0  0  0  0  0  0  0  0
    6.2674   -5.7442   25.0577 C   0  0  0  0  0  0  0  0  0  0  0  0
   10.1988   -2.3998   24.4455 C   0  0  0  0  0  0  0  0  0  0  0  0
    9.4777   -3.3696   23.7318 N   0  0  0  0  0  0  0  0  0  0  0  0
    5.1840   -6.5456   25.5052 N   0  3  0  0  0  0  0  0  0  0  0  0
    5.1215   -6.8614   26.7181 O   0  5  0  0  0  0  0  0  0  0  0  0
    9.9598   -2.1098   25.6261 O   0  0  0  0  0  0  0  0  0  0  0  0
    4.3188   -6.9166   24.6755 O   0  0  0  0  0  0  0  0  0  0  0  0
   13.9927    0.1005   21.6591 H   0  0  0  0  0  0  0  0  0  0  0  0
   12.9122    1.2378   23.5808 H   0  0  0  0  0  0  0  0  0  0  0  0
   13.3074   -2.2005   21.0340 H   0  0  0  0  0  0  0  0  0  0  0  0
   11.1521    0.0838   24.8766 H   0  0  0  0  0  0  0  0  0  0  0  0
   11.5495   -3.3652   22.3220 H   0  0  0  0  0  0  0  0  0  0  0  0
    9.0590   -4.2085   26.2356 H   0  0  0  0  0  0  0  0  0  0  0  0
    7.4824   -4.3164   22.2250 H   0  0  0  0  0  0  0  0  0  0  0  0
    7.1830   -5.5963   27.0119 H   0  0  0  0  0  0  0  0  0  0  0  0
    5.6054   -5.7044   22.9989 H   0  0  0  0  0  0  0  0  0  0  0  0
    9.7692   -3.5177   22.7687 H   0  0  0  0  0  0  0  0  0  0  0  0
  1  2  1  0  0  0  0
  1  3  2  0  0  0  0
  1 19  1  0  0  0  0
  2  4  2  0  0  0  0
  2 20  1  0  0  0  0
  3  5  1  0  0  0  0
  3 21  1  0  0  0  0
  4 10  1  0  0  0  0
  4 22  1  0  0  0  0
  5 10  2  0  0  0  0
  5 23  1  0  0  0  0
  6  8  2  0  0  0  0
  6 11  1  0  0  0  0
  6 24  1  0  0  0  0
  7  9  1  0  0  0  0
  7 11  2  0  0  0  0
  7 25  1  0  0  0  0
  8 12  1  0  0  0  0
  8 26  1  0  0  0  0
  9 12  2  0  0  0  0
  9 27  1  0  0  0  0
 10 13  1  0  0  0  0
 11 14  1  0  0  0  0
 12 15  1  0  0  0  0
 13 14  1  0  0  0  0
 13 17  2  0  0  0  0
 14 28  1  0  0  0  0
 15 16  1  0  0  0  0
 15 18  2  0  0  0  0
M  CHG  2  15   1  16  -1
M  END
>  <Chemgauss4 Score>
-4.60802936553955

>  <Number of Confs>
2

$$$$
