ANT-DIA-b7f-6
 OpenBabel03242009303D

 30 31  0  0  0  0  0  0  0  0999 V2000
    8.1811   -1.3524   24.6634 C   0  0  0  0  0  0  0  0  0  0  0  0
    8.2871   -2.1162   25.8293 C   0  0  0  0  0  0  0  0  0  0  0  0
    8.8481   -3.2521   23.3125 C   0  0  0  0  0  0  0  0  0  0  0  0
    8.4584   -1.9149   23.4224 C   0  0  0  0  0  0  0  0  0  0  0  0
    8.6789   -3.4700   25.7466 C   0  0  0  0  0  0  0  0  0  0  0  0
    8.9525   -4.0135   24.4877 C   0  0  0  0  0  0  0  0  0  0  0  0
    9.2020   -5.5217   26.3661 C   0  0  0  0  0  0  0  0  0  0  0  0
   13.3263   -1.3554   22.1597 C   0  0  0  0  0  0  0  0  0  0  0  0
    8.3379   -1.0821   22.1893 C   0  0  0  0  0  0  0  0  0  0  0  0
    9.6355   -0.3587   21.8106 C   0  0  0  0  0  0  0  0  0  0  0  0
    8.8260   -4.3459   26.8122 N   0  0  0  0  0  0  0  0  0  0  0  0
    9.4337   -6.6015   27.1593 N   0  0  0  0  0  0  0  0  0  0  0  0
   10.7130   -1.2728   21.5419 N   0  0  0  0  0  0  0  0  0  0  0  0
   11.6837   -3.2529   22.9025 O   0  0  0  0  0  0  0  0  0  0  0  0
   11.5119   -0.9887   23.9979 O   0  0  0  0  0  0  0  0  0  0  0  0
    9.4035   -5.6673   24.6738 S   0  0  0  0  0  0  0  0  0  0  0  0
   11.7388   -1.8064   22.8218 S   0  0  0  0  0  0  0  0  0  0  0  0
    7.8773   -0.3108   24.7389 H   0  0  0  0  0  0  0  0  0  0  0  0
    8.0675   -1.6674   26.7939 H   0  0  0  0  0  0  0  0  0  0  0  0
    9.0631   -3.6925   22.3431 H   0  0  0  0  0  0  0  0  0  0  0  0
   14.0938   -1.6404   22.8810 H   0  0  0  0  0  0  0  0  0  0  0  0
   13.4702   -1.8870   21.2179 H   0  0  0  0  0  0  0  0  0  0  0  0
   13.3371   -0.2768   21.9959 H   0  0  0  0  0  0  0  0  0  0  0  0
    7.5458   -0.3290   22.3345 H   0  0  0  0  0  0  0  0  0  0  0  0
    8.0003   -1.6971   21.3381 H   0  0  0  0  0  0  0  0  0  0  0  0
    9.4916    0.2354   20.9026 H   0  0  0  0  0  0  0  0  0  0  0  0
    9.9643    0.3137   22.6099 H   0  0  0  0  0  0  0  0  0  0  0  0
    9.3703   -6.5426   28.1813 H   0  0  0  0  0  0  0  0  0  0  0  0
    9.7720   -7.4898   26.7740 H   0  0  0  0  0  0  0  0  0  0  0  0
   10.5255   -1.9907   20.8085 H   0  0  0  0  0  0  0  0  0  0  0  0
  1  2  2  0  0  0  0
  1  4  1  0  0  0  0
  1 18  1  0  0  0  0
  2  5  1  0  0  0  0
  2 19  1  0  0  0  0
  3  4  2  0  0  0  0
  3  6  1  0  0  0  0
  3 20  1  0  0  0  0
  4  9  1  0  0  0  0
  5  6  2  0  0  0  0
  5 11  1  0  0  0  0
  6 16  1  0  0  0  0
  7 11  2  0  0  0  0
  7 12  1  0  0  0  0
  7 16  1  0  0  0  0
  8 17  1  0  0  0  0
  8 21  1  0  0  0  0
  8 22  1  0  0  0  0
  8 23  1  0  0  0  0
  9 10  1  0  0  0  0
  9 24  1  0  0  0  0
  9 25  1  0  0  0  0
 10 13  1  0  0  0  0
 10 26  1  0  0  0  0
 10 27  1  0  0  0  0
 12 28  1  0  0  0  0
 12 29  1  0  0  0  0
 13 17  1  0  0  0  0
 13 30  1  0  0  0  0
 14 17  2  0  0  0  0
 15 17  2  0  0  0  0
M  END
>  <Chemgauss4 Score>
-4.98181438446045

>  <Number of Confs>
161

$$$$
