DAR-DIA-fc9-5
 OpenBabel03242009303D

 34 36  0  0  1  0  0  0  0  0999 V2000
   13.3333    0.7434   21.9408 C   0  0  0  0  0  0  0  0  0  0  0  0
   12.2359    1.4229   22.4696 C   0  0  0  0  0  0  0  0  0  0  0  0
   13.3933   -0.6483   22.0139 C   0  0  0  0  0  0  0  0  0  0  0  0
    9.1057   -4.2685   28.4197 C   0  0  0  0  0  0  0  0  0  0  0  0
   11.1986    0.7108   23.0716 C   0  0  0  0  0  0  0  0  0  0  0  0
   12.3560   -1.3604   22.6160 C   0  0  0  0  0  0  0  0  0  0  0  0
    8.9976   -3.4061   27.3343 C   0  0  0  0  0  0  0  0  0  0  0  0
    8.6222   -5.5587   28.2736 C   0  0  0  0  0  0  0  0  0  0  0  0
    7.9648   -5.1628   26.1081 C   0  0  0  0  0  0  0  0  0  0  0  0
   11.2586   -0.6809   23.1448 C   0  0  0  0  0  0  0  0  0  0  0  0
    8.4173   -3.8540   26.1528 C   0  0  0  0  0  0  0  0  0  0  0  0
    9.4220   -0.8553   24.8122 C   0  0  0  0  0  0  0  0  0  0  0  0
    8.1397   -1.5779   25.1970 C   0  0  0  0  0  0  0  0  0  0  0  0
   10.0370   -2.8416   23.4003 C   0  0  0  0  0  0  0  0  0  0  0  0
    8.6670   -3.4211   23.7085 C   0  0  0  0  0  0  0  0  0  0  0  0
    8.0525   -6.0298   27.1418 N   0  0  0  0  0  0  0  0  0  0  0  0
   10.1819   -1.4197   23.7695 N   0  0  0  0  0  0  0  0  0  0  0  0
    8.2959   -3.0157   25.0526 N   0  0  0  0  0  0  0  0  0  0  0  0
    9.6856    0.1994   25.3971 O   0  0  0  0  0  0  0  0  0  0  0  0
   14.1408    1.2976   21.4712 H   0  0  0  0  0  0  0  0  0  0  0  0
   12.1884    2.5064   22.4121 H   0  0  0  0  0  0  0  0  0  0  0  0
   14.2475   -1.1772   21.6011 H   0  0  0  0  0  0  0  0  0  0  0  0
    9.5544   -3.9411   29.3506 H   0  0  0  0  0  0  0  0  0  0  0  0
   10.3483    1.2511   23.4802 H   0  0  0  0  0  0  0  0  0  0  0  0
   12.4136   -2.4449   22.6672 H   0  0  0  0  0  0  0  0  0  0  0  0
    9.3682   -2.3881   27.4196 H   0  0  0  0  0  0  0  0  0  0  0  0
    8.6829   -6.2702   29.0905 H   0  0  0  0  0  0  0  0  0  0  0  0
    7.5029   -5.5698   25.2136 H   0  0  0  0  0  0  0  0  0  0  0  0
    7.8920   -1.3156   26.2269 H   0  0  0  0  0  0  0  0  0  0  0  0
    7.3468   -1.2172   24.5386 H   0  0  0  0  0  0  0  0  0  0  0  0
   10.8290   -3.4003   23.9407 H   0  0  0  0  0  0  0  0  0  0  0  0
   10.2596   -2.9543   22.3197 H   0  0  0  0  0  0  0  0  0  0  0  0
    7.9316   -3.0467   23.0035 H   0  0  0  0  0  0  0  0  0  0  0  0
    8.7172   -4.5025   23.6231 H   0  0  0  0  0  0  0  0  0  0  0  0
  1  2  1  0  0  0  0
  1  3  2  0  0  0  0
  1 20  1  0  0  0  0
  2  5  2  0  0  0  0
  2 21  1  0  0  0  0
  3  6  1  0  0  0  0
  3 22  1  0  0  0  0
  4  7  2  0  0  0  0
  4  8  1  0  0  0  0
  4 23  1  0  0  0  0
  5 10  1  0  0  0  0
  5 24  1  0  0  0  0
  6 10  2  0  0  0  0
  6 25  1  0  0  0  0
  7 11  1  0  0  0  0
  7 26  1  0  0  0  0
  8 16  2  0  0  0  0
  8 27  1  0  0  0  0
  9 11  2  0  0  0  0
  9 16  1  0  0  0  0
  9 28  1  0  0  0  0
 10 17  1  0  0  0  0
 11 18  1  0  0  0  0
 12 13  1  0  0  0  0
 12 17  1  0  0  0  0
 12 19  2  0  0  0  0
 13 18  1  0  0  0  0
 13 29  1  0  0  0  0
 13 30  1  0  0  0  0
 14 15  1  0  0  0  0
 14 17  1  0  0  0  0
 14 31  1  0  0  0  0
 14 32  1  0  0  0  0
 15 18  1  0  0  0  0
 15 33  1  0  0  0  0
 15 34  1  0  0  0  0
M  END
>  <Chemgauss4 Score>
-5.41031360626221

>  <Number of Confs>
39

$$$$
