DAV-AUT-fa2-4
 OpenBabel03242009303D

 45 47  0  0  1  0  0  0  0  0999 V2000
    6.7190   -3.6100   23.2496 C   0  0  0  0  0  0  0  0  0  0  0  0
    6.2292   -2.7816   22.2444 C   0  0  0  0  0  0  0  0  0  0  0  0
    8.3749   -1.6954   22.1282 C   0  0  0  0  0  0  0  0  0  0  0  0
    8.0395   -3.4810   23.7261 C   0  0  0  0  0  0  0  0  0  0  0  0
    8.9109   -2.5262   23.1361 C   0  0  0  0  0  0  0  0  0  0  0  0
    7.0550   -1.8180   21.6894 C   0  0  0  0  0  0  0  0  0  0  0  0
   12.3174   -2.2082   22.2697 C   0  0  0  0  0  0  0  0  0  0  0  0
   11.6533   -0.4400   23.9227 C   0  0  0  0  0  0  0  0  0  0  0  0
   10.8189   -3.4603   24.3744 C   0  0  0  0  0  0  0  0  0  0  0  0
   13.3333   -1.2143   21.7215 C   0  0  0  0  0  0  0  0  0  0  0  0
   12.7051    0.4556   23.2807 C   0  0  0  0  0  0  0  0  0  0  0  0
    8.5329   -4.4131   24.8264 C   0  0  1  0  0  0  0  0  0  0  0  0
   11.1430   -1.4764   22.9203 C   0  0  0  0  0  0  0  0  0  0  0  0
    9.8357   -3.8986   25.4355 C   0  0  0  0  0  0  0  0  0  0  0  0
    7.5180   -4.6612   25.9510 C   0  0  0  0  0  0  0  0  0  0  0  0
    7.8013    0.3126   20.0084 C   0  0  0  0  0  0  0  0  0  0  0  0
    6.1727   -1.6524   19.2047 N   0  0  0  0  0  0  0  0  0  0  0  0
   10.2401   -2.4080   23.5488 N   0  0  0  0  0  0  0  0  0  0  0  0
    5.4597    0.1257   21.0559 O   0  0  0  0  0  0  0  0  0  0  0  0
   13.7748   -0.3239   22.7462 O   0  0  0  0  0  0  0  0  0  0  0  0
    9.5914   -2.8597   26.2752 F   0  0  0  0  0  0  0  0  0  0  0  0
   10.4044   -4.8763   26.1870 F   0  0  0  0  0  0  0  0  0  0  0  0
    6.4465   -0.7590   20.4421 S   0  0  1  0  0  0  0  0  0  0  0  0
    6.0605   -4.3703   23.6707 H   0  0  0  0  0  0  0  0  0  0  0  0
    5.2030   -2.9006   21.9059 H   0  0  0  0  0  0  0  0  0  0  0  0
    8.9912   -0.9277   21.6641 H   0  0  0  0  0  0  0  0  0  0  0  0
   11.9261   -2.7997   21.4363 H   0  0  0  0  0  0  0  0  0  0  0  0
   12.7917   -2.9005   22.9684 H   0  0  0  0  0  0  0  0  0  0  0  0
   12.0458   -0.9150   24.8227 H   0  0  0  0  0  0  0  0  0  0  0  0
   10.8057    0.1826   24.2220 H   0  0  0  0  0  0  0  0  0  0  0  0
   11.7522   -3.1122   24.8243 H   0  0  0  0  0  0  0  0  0  0  0  0
   11.0671   -4.3274   23.7556 H   0  0  0  0  0  0  0  0  0  0  0  0
   14.1993   -1.7206   21.2784 H   0  0  0  0  0  0  0  0  0  0  0  0
   12.8712   -0.6093   20.9342 H   0  0  0  0  0  0  0  0  0  0  0  0
   12.2591    1.0175   22.4541 H   0  0  0  0  0  0  0  0  0  0  0  0
   13.1060    1.1843   23.9943 H   0  0  0  0  0  0  0  0  0  0  0  0
    8.7815   -5.4023   24.3764 H   0  0  0  0  0  0  0  0  0  0  0  0
   10.5758   -0.9462   22.1243 H   0  0  0  0  0  0  0  0  0  0  0  0
    7.2505   -3.7154   26.4154 H   0  0  0  0  0  0  0  0  0  0  0  0
    7.9557   -5.3186   26.6980 H   0  0  0  0  0  0  0  0  0  0  0  0
    6.6254   -5.1262   25.5399 H   0  0  0  0  0  0  0  0  0  0  0  0
    7.4638    0.9955   19.2271 H   0  0  0  0  0  0  0  0  0  0  0  0
    8.0999    0.8678   20.8988 H   0  0  0  0  0  0  0  0  0  0  0  0
    8.6259   -0.3039   19.6474 H   0  0  0  0  0  0  0  0  0  0  0  0
    5.8079   -1.1364   18.3985 H   0  0  0  0  0  0  0  0  0  0  0  0
  1  2  2  0  0  0  0
  1  4  1  0  0  0  0
  1 24  1  0  0  0  0
  2  6  1  0  0  0  0
  2 25  1  0  0  0  0
  3  5  1  0  0  0  0
  3  6  2  0  0  0  0
  3 26  1  0  0  0  0
  4  5  2  0  0  0  0
  4 12  1  0  0  0  0
  5 18  1  0  0  0  0
  6 23  1  0  0  0  0
  7 10  1  0  0  0  0
  7 13  1  0  0  0  0
  7 27  1  0  0  0  0
  7 28  1  0  0  0  0
  8 11  1  0  0  0  0
  8 13  1  0  0  0  0
  8 29  1  0  0  0  0
  8 30  1  0  0  0  0
  9 14  1  0  0  0  0
  9 18  1  0  0  0  0
  9 31  1  0  0  0  0
  9 32  1  0  0  0  0
 10 20  1  0  0  0  0
 10 33  1  0  0  0  0
 10 34  1  0  0  0  0
 11 20  1  0  0  0  0
 11 35  1  0  0  0  0
 11 36  1  0  0  0  0
 12 14  1  0  0  0  0
 12 15  1  0  0  0  0
 12 37  1  6  0  0  0
 13 18  1  0  0  0  0
 13 38  1  0  0  0  0
 14 21  1  0  0  0  0
 14 22  1  0  0  0  0
 15 39  1  0  0  0  0
 15 40  1  0  0  0  0
 15 41  1  0  0  0  0
 16 23  1  0  0  0  0
 16 42  1  0  0  0  0
 16 43  1  0  0  0  0
 16 44  1  0  0  0  0
 17 23  2  0  0  0  0
 17 45  1  0  0  0  0
 23 19  2  1  0  0  0
M  END
>  <Chemgauss4 Score>
-5.01771545410156

>  <Number of Confs>
13

$$$$
