BAR-COM-21d-6
 OpenBabel03242009303D

 49 50  0  0  1  0  0  0  0  0999 V2000
   12.5047   -2.3611   24.6040 C   0  0  0  0  0  0  0  0  0  0  0  0
    5.4367    0.4510   19.3287 C   0  0  0  0  0  0  0  0  0  0  0  0
   11.6709   -3.1893   25.3552 C   0  0  0  0  0  0  0  0  0  0  0  0
   12.0350   -1.7837   23.4243 C   0  0  0  0  0  0  0  0  0  0  0  0
    6.5179   -0.0446   20.0490 C   0  0  0  0  0  0  0  0  0  0  0  0
    9.8977   -2.8629   23.7470 C   0  0  0  0  0  0  0  0  0  0  0  0
    5.6758    0.9410   18.0549 C   0  0  0  0  0  0  0  0  0  0  0  0
    7.9210    0.4764   18.2008 C   0  0  0  0  0  0  0  0  0  0  0  0
   10.3674   -3.4402   24.9267 C   0  0  0  0  0  0  0  0  0  0  0  0
   10.7315   -2.0346   22.9958 C   0  0  0  0  0  0  0  0  0  0  0  0
    7.7872   -0.0352   19.4815 C   0  0  0  0  0  0  0  0  0  0  0  0
    8.9380   -1.0795   21.4825 C   0  0  0  0  0  0  0  0  0  0  0  0
    5.2514   -6.0039   25.1665 C   0  0  0  0  0  0  0  0  0  0  0  0
    8.6090   -5.1030   28.7932 C   0  0  0  0  0  0  0  0  0  0  0  0
    9.4657   -4.3364   25.7398 C   0  0  0  0  0  0  0  0  0  0  0  0
    6.0506   -4.8973   25.8398 C   0  0  0  0  0  0  0  0  0  0  0  0
    8.6682   -3.5371   26.7818 C   0  0  0  0  0  0  0  0  0  0  0  0
    6.9891   -5.4630   26.9126 C   0  0  0  0  0  0  0  0  0  0  0  0
    7.7820   -4.3980   27.7095 C   0  0  1  0  0  0  0  0  0  0  0  0
    6.8945    0.9665   17.4703 N   0  0  0  0  0  0  0  0  0  0  0  0
   10.2619   -1.4563   21.8161 N   0  0  0  0  0  0  0  0  0  0  0  0
    8.9066   -0.5323   20.1897 N   0  0  0  0  0  0  0  0  0  0  0  0
    7.9666   -1.2143   22.2197 O   0  0  0  0  0  0  0  0  0  0  0  0
    6.8534   -3.5294   28.3649 O   0  0  0  0  0  0  0  0  0  0  0  0
   13.5196   -2.1654   24.9378 H   0  0  0  0  0  0  0  0  0  0  0  0
    4.4384    0.4536   19.7512 H   0  0  0  0  0  0  0  0  0  0  0  0
   12.0459   -3.6351   26.2723 H   0  0  0  0  0  0  0  0  0  0  0  0
   12.6937   -1.1400   22.8467 H   0  0  0  0  0  0  0  0  0  0  0  0
    6.3602   -0.4354   21.0508 H   0  0  0  0  0  0  0  0  0  0  0  0
    8.8810   -3.0606   23.4144 H   0  0  0  0  0  0  0  0  0  0  0  0
    4.8660    1.3394   17.4526 H   0  0  0  0  0  0  0  0  0  0  0  0
    8.8864    0.5103   17.7045 H   0  0  0  0  0  0  0  0  0  0  0  0
    5.9153   -6.7450   24.7099 H   0  0  0  0  0  0  0  0  0  0  0  0
    4.6156   -5.5866   24.3793 H   0  0  0  0  0  0  0  0  0  0  0  0
    4.6065   -6.5168   25.8871 H   0  0  0  0  0  0  0  0  0  0  0  0
    7.9772   -5.7117   29.4481 H   0  0  0  0  0  0  0  0  0  0  0  0
    9.1416   -4.3723   29.4134 H   0  0  0  0  0  0  0  0  0  0  0  0
    9.3860   -5.7392   28.3565 H   0  0  0  0  0  0  0  0  0  0  0  0
    8.7897   -4.8629   25.0558 H   0  0  0  0  0  0  0  0  0  0  0  0
   10.0699   -5.1104   26.2284 H   0  0  0  0  0  0  0  0  0  0  0  0
    5.3550   -4.1768   26.2839 H   0  0  0  0  0  0  0  0  0  0  0  0
    6.6246   -4.3698   25.0710 H   0  0  0  0  0  0  0  0  0  0  0  0
    8.0476   -2.7902   26.2698 H   0  0  0  0  0  0  0  0  0  0  0  0
    9.3929   -2.9839   27.3926 H   0  0  0  0  0  0  0  0  0  0  0  0
    7.6887   -6.1679   26.4450 H   0  0  0  0  0  0  0  0  0  0  0  0
    6.3762   -6.0429   27.6159 H   0  0  0  0  0  0  0  0  0  0  0  0
   10.9692   -1.2808   21.0947 H   0  0  0  0  0  0  0  0  0  0  0  0
    9.7943   -0.4852   19.6959 H   0  0  0  0  0  0  0  0  0  0  0  0
    6.3035   -4.0948   28.9265 H   0  0  0  0  0  0  0  0  0  0  0  0
  1  3  2  0  0  0  0
  1  4  1  0  0  0  0
  1 25  1  0  0  0  0
  2  5  2  0  0  0  0
  2  7  1  0  0  0  0
  2 26  1  0  0  0  0
  3  9  1  0  0  0  0
  3 27  1  0  0  0  0
  4 10  2  0  0  0  0
  4 28  1  0  0  0  0
  5 11  1  0  0  0  0
  5 29  1  0  0  0  0
  6  9  2  0  0  0  0
  6 10  1  0  0  0  0
  6 30  1  0  0  0  0
  7 20  2  0  0  0  0
  7 31  1  0  0  0  0
  8 11  2  0  0  0  0
  8 20  1  0  0  0  0
  8 32  1  0  0  0  0
  9 15  1  0  0  0  0
 10 21  1  0  0  0  0
 11 22  1  0  0  0  0
 12 21  1  0  0  0  0
 12 22  1  0  0  0  0
 12 23  2  0  0  0  0
 13 16  1  0  0  0  0
 13 33  1  0  0  0  0
 13 34  1  0  0  0  0
 13 35  1  0  0  0  0
 14 19  1  0  0  0  0
 14 36  1  0  0  0  0
 14 37  1  0  0  0  0
 14 38  1  0  0  0  0
 15 17  1  0  0  0  0
 15 39  1  0  0  0  0
 15 40  1  0  0  0  0
 16 18  1  0  0  0  0
 16 41  1  0  0  0  0
 16 42  1  0  0  0  0
 17 19  1  0  0  0  0
 17 43  1  0  0  0  0
 17 44  1  0  0  0  0
 18 19  1  0  0  0  0
 18 45  1  0  0  0  0
 18 46  1  0  0  0  0
 19 24  1  1  0  0  0
 21 47  1  0  0  0  0
 22 48  1  0  0  0  0
 24 49  1  0  0  0  0
M  END
>  <Chemgauss4 Score>
-5.26578187942505

>  <Number of Confs>
200

$$$$
