CHR-SOS-709-9
 OpenBabel03242009303D

 26 27  0  0  0  0  0  0  0  0999 V2000
    6.8455   -5.2187   28.3277 C   0  0  0  0  0  0  0  0  0  0  0  0
   12.5564   -0.4953   22.8610 C   0  0  0  0  0  0  0  0  0  0  0  0
    8.0622   -4.7870   28.8557 C   0  0  0  0  0  0  0  0  0  0  0  0
    6.6522   -5.2380   26.9464 C   0  0  0  0  0  0  0  0  0  0  0  0
   12.2759   -1.8397   22.6177 C   0  0  0  0  0  0  0  0  0  0  0  0
   11.9742    0.1526   23.9505 C   0  0  0  0  0  0  0  0  0  0  0  0
    9.0857   -4.3745   28.0025 C   0  0  0  0  0  0  0  0  0  0  0  0
    7.6757   -4.8255   26.0931 C   0  0  0  0  0  0  0  0  0  0  0  0
   11.4130   -2.5363   23.4637 C   0  0  0  0  0  0  0  0  0  0  0  0
   11.1113   -0.5440   24.7965 C   0  0  0  0  0  0  0  0  0  0  0  0
    8.8924   -4.3937   26.6211 C   0  0  0  0  0  0  0  0  0  0  0  0
   10.8307   -1.8885   24.5532 C   0  0  0  0  0  0  0  0  0  0  0  0
    9.9595   -3.9636   25.7316 C   0  0  0  0  0  0  0  0  0  0  0  0
    9.9538   -2.5967   25.4130 N   0  0  0  0  0  0  0  0  0  0  0  0
   10.7845   -4.7640   25.2694 O   0  0  0  0  0  0  0  0  0  0  0  0
    6.0486   -5.5398   28.9921 H   0  0  0  0  0  0  0  0  0  0  0  0
   13.2289    0.0473   22.2029 H   0  0  0  0  0  0  0  0  0  0  0  0
    8.2124   -4.7718   29.9313 H   0  0  0  0  0  0  0  0  0  0  0  0
    5.7050   -5.5744   26.5352 H   0  0  0  0  0  0  0  0  0  0  0  0
   12.7297   -2.3447   21.7701 H   0  0  0  0  0  0  0  0  0  0  0  0
   12.1937    1.1993   24.1403 H   0  0  0  0  0  0  0  0  0  0  0  0
   10.0298   -4.0399   28.4246 H   0  0  0  0  0  0  0  0  0  0  0  0
    7.5139   -4.8447   25.0184 H   0  0  0  0  0  0  0  0  0  0  0  0
   11.2018   -3.5840   23.2642 H   0  0  0  0  0  0  0  0  0  0  0  0
   10.6633   -0.0287   25.6426 H   0  0  0  0  0  0  0  0  0  0  0  0
    9.2258   -2.0422   25.8567 H   0  0  0  0  0  0  0  0  0  0  0  0
  1  3  1  0  0  0  0
  1  4  2  0  0  0  0
  1 16  1  0  0  0  0
  2  5  1  0  0  0  0
  2  6  2  0  0  0  0
  2 17  1  0  0  0  0
  3  7  2  0  0  0  0
  3 18  1  0  0  0  0
  4  8  1  0  0  0  0
  4 19  1  0  0  0  0
  5  9  2  0  0  0  0
  5 20  1  0  0  0  0
  6 10  1  0  0  0  0
  6 21  1  0  0  0  0
  7 11  1  0  0  0  0
  7 22  1  0  0  0  0
  8 11  2  0  0  0  0
  8 23  1  0  0  0  0
  9 12  1  0  0  0  0
  9 24  1  0  0  0  0
 10 12  2  0  0  0  0
 10 25  1  0  0  0  0
 11 13  1  0  0  0  0
 12 14  1  0  0  0  0
 13 14  1  0  0  0  0
 13 15  2  0  0  0  0
 14 26  1  0  0  0  0
M  END
>  <Chemgauss4 Score>
-4.94854879379272

>  <Number of Confs>
3

$$$$
