DAR-DIA-43a-10
 OpenBabel03242009303D

 37 39  0  0  1  0  0  0  0  0999 V2000
    9.9141   -4.4927   28.1138 C   0  0  0  0  0  0  0  0  0  0  0  0
   10.1201   -4.6109   26.7393 C   0  0  0  0  0  0  0  0  0  0  0  0
    9.3855   -3.3144   28.6409 C   0  0  0  0  0  0  0  0  0  0  0  0
    9.2690   -2.3726   26.4191 C   0  0  0  0  0  0  0  0  0  0  0  0
    9.7976   -3.5509   25.8920 C   0  0  0  0  0  0  0  0  0  0  0  0
    9.0629   -2.2543   27.7936 C   0  0  0  0  0  0  0  0  0  0  0  0
   11.0034   -2.6697   23.8663 C   0  0  0  0  0  0  0  0  0  0  0  0
   10.4223   -1.7736   23.0586 C   0  0  0  0  0  0  0  0  0  0  0  0
    7.4673   -3.6580   24.1299 C   0  0  0  0  0  0  0  0  0  0  0  0
    8.9554   -2.0302   22.9069 C   0  0  0  0  0  0  0  0  0  0  0  0
   13.5736   -1.2739   21.9362 C   0  0  0  0  0  0  0  0  0  0  0  0
   13.5048    0.2273   21.8958 C   0  0  0  0  0  0  0  0  0  0  0  0
   10.0229   -3.6797   24.3985 C   0  0  2  0  0  0  0  0  0  0  0  0
    8.8001   -3.4441   23.4800 C   0  0  1  0  0  0  0  0  0  0  0  0
   12.5454   -0.5461   22.7572 C   0  0  0  0  0  0  0  0  0  0  0  0
   11.0765   -0.6225   22.3854 C   0  0  0  0  0  0  0  0  0  0  0  0
    6.4010   -3.4777   23.2808 N   0  0  0  0  0  0  0  0  0  0  0  0
    7.3610   -3.9812   25.3104 O   0  0  0  0  0  0  0  0  0  0  0  0
    8.4118   -0.8004   28.4447 Cl  0  0  0  0  0  0  0  0  0  0  0  0
   10.1655   -5.3183   28.7733 H   0  0  0  0  0  0  0  0  0  0  0  0
   10.5326   -5.5327   26.3373 H   0  0  0  0  0  0  0  0  0  0  0  0
    9.2305   -3.2362   29.7142 H   0  0  0  0  0  0  0  0  0  0  0  0
    9.0187   -1.5491   25.7542 H   0  0  0  0  0  0  0  0  0  0  0  0
   12.0670   -2.6959   24.0783 H   0  0  0  0  0  0  0  0  0  0  0  0
    8.3579   -1.2900   23.4481 H   0  0  0  0  0  0  0  0  0  0  0  0
    8.6814   -2.0020   21.8470 H   0  0  0  0  0  0  0  0  0  0  0  0
   13.2469   -1.8167   21.0579 H   0  0  0  0  0  0  0  0  0  0  0  0
   14.4074   -1.7263   22.4589 H   0  0  0  0  0  0  0  0  0  0  0  0
   14.2922    0.7816   22.3915 H   0  0  0  0  0  0  0  0  0  0  0  0
   13.1322    0.6899   20.9902 H   0  0  0  0  0  0  0  0  0  0  0  0
   10.4422   -4.6817   24.2180 H   0  0  0  0  0  0  0  0  0  0  0  0
    8.8368   -4.1976   22.6312 H   0  0  0  0  0  0  0  0  0  0  0  0
   12.6921   -0.5110   23.8300 H   0  0  0  0  0  0  0  0  0  0  0  0
   10.9635   -0.7358   21.3011 H   0  0  0  0  0  0  0  0  0  0  0  0
   10.5610    0.2959   22.6887 H   0  0  0  0  0  0  0  0  0  0  0  0
    6.5845   -3.2235   22.3158 H   0  0  0  0  0  0  0  0  0  0  0  0
    5.4378   -3.5887   23.5806 H   0  0  0  0  0  0  0  0  0  0  0  0
  1  2  2  0  0  0  0
  1  3  1  0  0  0  0
  1 20  1  0  0  0  0
  2  5  1  0  0  0  0
  2 21  1  0  0  0  0
  3  6  2  0  0  0  0
  3 22  1  0  0  0  0
  4  5  2  0  0  0  0
  4  6  1  0  0  0  0
  4 23  1  0  0  0  0
  5 13  1  0  0  0  0
  6 19  1  0  0  0  0
  7  8  2  0  0  0  0
  7 13  1  0  0  0  0
  7 24  1  0  0  0  0
  8 10  1  0  0  0  0
  8 16  1  0  0  0  0
  9 14  1  0  0  0  0
  9 17  1  0  0  0  0
  9 18  2  0  0  0  0
 10 14  1  0  0  0  0
 10 25  1  0  0  0  0
 10 26  1  0  0  0  0
 11 12  1  0  0  0  0
 11 15  1  0  0  0  0
 11 27  1  0  0  0  0
 11 28  1  0  0  0  0
 12 15  1  0  0  0  0
 12 29  1  0  0  0  0
 12 30  1  0  0  0  0
 13 14  1  0  0  0  0
 13 31  1  6  0  0  0
 14 32  1  6  0  0  0
 15 16  1  0  0  0  0
 15 33  1  0  0  0  0
 16 34  1  0  0  0  0
 16 35  1  0  0  0  0
 17 36  1  0  0  0  0
 17 37  1  0  0  0  0
M  END
>  <Chemgauss4 Score>
-5.60416555404663

>  <Number of Confs>
112

$$$$
