AGN-NEW-891-10
 OpenBabel03242009303D

 36 38  0  0  0  0  0  0  0  0999 V2000
    8.6015    0.0866   26.4005 C   0  0  0  0  0  0  0  0  0  0  0  0
    6.4162   -5.1799   21.3627 C   0  0  0  0  0  0  0  0  0  0  0  0
    9.6589    0.2085   25.4991 C   0  0  0  0  0  0  0  0  0  0  0  0
    7.2237   -4.6892   22.3828 C   0  0  0  0  0  0  0  0  0  0  0  0
    8.2724   -1.1635   26.9247 C   0  0  0  0  0  0  0  0  0  0  0  0
   13.5208   -0.5549   22.4535 C   0  0  0  0  0  0  0  0  0  0  0  0
   10.0580   -2.1699   25.6457 C   0  0  0  0  0  0  0  0  0  0  0  0
    5.4092   -6.0685   21.7034 C   0  0  0  0  0  0  0  0  0  0  0  0
   13.1638    0.4649   23.3120 C   0  0  0  0  0  0  0  0  0  0  0  0
   12.7629   -1.7045   22.5443 C   0  0  0  0  0  0  0  0  0  0  0  0
    5.9692   -5.9886   23.9301 C   0  0  0  0  0  0  0  0  0  0  0  0
   10.3871   -0.9197   25.1216 C   0  0  0  0  0  0  0  0  0  0  0  0
    7.0026   -5.0964   23.6937 C   0  0  0  0  0  0  0  0  0  0  0  0
    9.0006   -2.2917   26.5472 C   0  0  0  0  0  0  0  0  0  0  0  0
   11.4842   -0.7920   24.1872 C   0  0  0  0  0  0  0  0  0  0  0  0
    7.8411   -4.5952   24.7966 C   0  0  0  0  0  0  0  0  0  0  0  0
    7.4318   -4.4547   26.0635 C   0  0  0  0  0  0  0  0  0  0  0  0
    5.1640   -6.4870   22.9652 N   0  0  0  0  0  0  0  0  0  0  0  0
   12.1472    0.3801   24.1949 N   0  0  0  0  0  0  0  0  0  0  0  0
   11.7337   -1.8580   23.4031 N   0  0  0  0  0  0  0  0  0  0  0  0
    9.7727   -4.7059   27.1527 O   0  0  0  0  0  0  0  0  0  0  0  0
    7.9280   -3.6393   28.4864 O   0  0  0  0  0  0  0  0  0  0  0  0
    8.5894   -3.8558   27.2056 S   0  0  0  0  0  0  0  0  0  0  0  0
    8.0346    0.9650   26.6948 H   0  0  0  0  0  0  0  0  0  0  0  0
    6.5700   -4.8762   20.3337 H   0  0  0  0  0  0  0  0  0  0  0  0
    9.9028    1.1898   25.0991 H   0  0  0  0  0  0  0  0  0  0  0  0
    8.0209   -3.9907   22.1411 H   0  0  0  0  0  0  0  0  0  0  0  0
    7.4468   -1.2476   27.6261 H   0  0  0  0  0  0  0  0  0  0  0  0
   14.3416   -0.4595   21.7555 H   0  0  0  0  0  0  0  0  0  0  0  0
   10.6224   -3.0532   25.3542 H   0  0  0  0  0  0  0  0  0  0  0  0
    4.7528   -6.4804   20.9440 H   0  0  0  0  0  0  0  0  0  0  0  0
   13.7022    1.4067   23.3135 H   0  0  0  0  0  0  0  0  0  0  0  0
   12.9689   -2.5601   21.9100 H   0  0  0  0  0  0  0  0  0  0  0  0
    5.7446   -6.3453   24.9313 H   0  0  0  0  0  0  0  0  0  0  0  0
    8.8661   -4.3471   24.5284 H   0  0  0  0  0  0  0  0  0  0  0  0
    6.4359   -4.7000   26.4090 H   0  0  0  0  0  0  0  0  0  0  0  0
  1  3  1  0  0  0  0
  1  5  2  0  0  0  0
  1 24  1  0  0  0  0
  2  4  2  0  0  0  0
  2  8  1  0  0  0  0
  2 25  1  0  0  0  0
  3 12  2  0  0  0  0
  3 26  1  0  0  0  0
  4 13  1  0  0  0  0
  4 27  1  0  0  0  0
  5 14  1  0  0  0  0
  5 28  1  0  0  0  0
  6  9  1  0  0  0  0
  6 10  2  0  0  0  0
  6 29  1  0  0  0  0
  7 12  1  0  0  0  0
  7 14  2  0  0  0  0
  7 30  1  0  0  0  0
  8 18  2  0  0  0  0
  8 31  1  0  0  0  0
  9 19  2  0  0  0  0
  9 32  1  0  0  0  0
 10 20  1  0  0  0  0
 10 33  1  0  0  0  0
 11 13  2  0  0  0  0
 11 18  1  0  0  0  0
 11 34  1  0  0  0  0
 12 15  1  0  0  0  0
 13 16  1  0  0  0  0
 14 23  1  0  0  0  0
 15 19  1  0  0  0  0
 15 20  2  0  0  0  0
 16 17  2  0  0  0  0
 16 35  1  0  0  0  0
 17 23  1  0  0  0  0
 17 36  1  0  0  0  0
 21 23  2  0  0  0  0
 22 23  2  0  0  0  0
M  END
>  <Chemgauss4 Score>
-4.76411437988281

>  <Number of Confs>
103

$$$$
