AGN-NEW-c19-2
 OpenBabel03242009303D

 67 70  0  0  0  0  0  0  0  0999 V2000
   12.3222    2.0050   25.7857 C   0  0  0  0  0  0  0  0  0  0  0  0
   12.5366    1.2191   24.9036 C   0  0  0  0  0  0  0  0  0  0  0  0
   13.9508   -0.4253   21.9050 C   0  0  0  0  0  0  0  0  0  0  0  0
   13.7612    0.5302   22.8971 C   0  0  0  0  0  0  0  0  0  0  0  0
   13.1754   -1.5794   21.9018 C   0  0  0  0  0  0  0  0  0  0  0  0
    7.4327   -6.0696   27.4854 C   0  0  0  0  0  0  0  0  0  0  0  0
    6.8827   -0.8020   22.3095 C   0  0  0  0  0  0  0  0  0  0  0  0
    9.1464   -1.5692   22.0416 C   0  0  0  0  0  0  0  0  0  0  0  0
    7.2762   -5.5260   28.7502 C   0  0  0  0  0  0  0  0  0  0  0  0
    6.8924   -1.3814   23.5680 C   0  0  0  0  0  0  0  0  0  0  0  0
   12.7910    0.2861   23.8557 C   0  0  0  0  0  0  0  0  0  0  0  0
    8.0234   -5.2791   26.5058 C   0  0  0  0  0  0  0  0  0  0  0  0
    8.0351   -0.9021   21.5380 C   0  0  0  0  0  0  0  0  0  0  0  0
    8.4336   -3.9875   26.8166 C   0  0  0  0  0  0  0  0  0  0  0  0
   12.2316   -1.7292   22.9051 C   0  0  0  0  0  0  0  0  0  0  0  0
    8.2321   -3.5370   28.1113 C   0  0  0  0  0  0  0  0  0  0  0  0
    9.0548   -2.1141   23.3122 C   0  0  0  0  0  0  0  0  0  0  0  0
   10.2183   -3.4034   25.1252 C   0  0  0  0  0  0  0  0  0  0  0  0
    5.8602   -5.6092   24.6079 C   0  0  0  0  0  0  0  0  0  0  0  0
    7.4688   -5.8282   22.8295 C   0  0  0  0  0  0  0  0  0  0  0  0
    4.8644   -5.0435   23.5993 C   0  0  0  0  0  0  0  0  0  0  0  0
    6.4356   -5.2563   21.8630 C   0  0  0  0  0  0  0  0  0  0  0  0
    8.6514   -2.1586   28.5087 C   0  0  0  0  0  0  0  0  0  0  0  0
    6.9225    0.3691   19.7198 C   0  0  0  0  0  0  0  0  0  0  0  0
    9.2795   -0.4169   19.4460 C   0  0  0  0  0  0  0  0  0  0  0  0
    8.2044   -5.8451   25.1270 C   0  0  0  0  0  0  0  0  0  0  0  0
   11.3740   -2.9613   22.9296 C   0  0  0  0  0  0  0  0  0  0  0  0
    7.6620   -4.2756   29.0896 N   0  0  0  0  0  0  0  0  0  0  0  0
    7.9525   -2.0372   24.0911 N   0  0  0  0  0  0  0  0  0  0  0  0
   12.0186   -0.8230   23.8854 N   0  0  0  0  0  0  0  0  0  0  0  0
    7.2322   -5.3016   24.1808 N   0  0  0  0  0  0  0  0  0  0  0  0
    9.0296   -3.1718   25.8518 N   0  0  0  0  0  0  0  0  0  0  0  0
    8.0768   -0.3287   20.2510 N   0  0  0  0  0  0  0  0  0  0  0  0
   10.2185   -2.8100   23.8276 N   0  0  0  0  0  0  0  0  0  0  0  0
   11.1605   -4.0634   25.5662 O   0  0  0  0  0  0  0  0  0  0  0  0
    5.1146   -5.5791   22.2992 O   0  0  0  0  0  0  0  0  0  0  0  0
   12.1322    2.7024   26.5678 H   0  0  0  0  0  0  0  0  0  0  0  0
   14.7013   -0.2708   21.1355 H   0  0  0  0  0  0  0  0  0  0  0  0
   14.3605    1.4349   22.9058 H   0  0  0  0  0  0  0  0  0  0  0  0
   13.3128   -2.3320   21.1328 H   0  0  0  0  0  0  0  0  0  0  0  0
    7.1014   -7.0810   27.2756 H   0  0  0  0  0  0  0  0  0  0  0  0
    5.9986   -0.2888   21.9464 H   0  0  0  0  0  0  0  0  0  0  0  0
   10.0558   -1.6579   21.4544 H   0  0  0  0  0  0  0  0  0  0  0  0
    6.8206   -6.1012   29.5496 H   0  0  0  0  0  0  0  0  0  0  0  0
    6.0178   -1.3335   24.2084 H   0  0  0  0  0  0  0  0  0  0  0  0
    5.6604   -5.1684   25.5913 H   0  0  0  0  0  0  0  0  0  0  0  0
    5.7213   -6.6953   24.6871 H   0  0  0  0  0  0  0  0  0  0  0  0
    7.4002   -6.9239   22.8307 H   0  0  0  0  0  0  0  0  0  0  0  0
    8.4708   -5.5505   22.4831 H   0  0  0  0  0  0  0  0  0  0  0  0
    3.8456   -5.3243   23.8850 H   0  0  0  0  0  0  0  0  0  0  0  0
    4.9082   -3.9484   23.5589 H   0  0  0  0  0  0  0  0  0  0  0  0
    6.5322   -4.1682   21.7630 H   0  0  0  0  0  0  0  0  0  0  0  0
    6.5731   -5.6930   20.8687 H   0  0  0  0  0  0  0  0  0  0  0  0
    7.8324   -1.4503   28.3405 H   0  0  0  0  0  0  0  0  0  0  0  0
    8.9351   -2.1214   29.5673 H   0  0  0  0  0  0  0  0  0  0  0  0
    9.5239   -1.8291   27.9316 H   0  0  0  0  0  0  0  0  0  0  0  0
    7.1511    0.7417   18.7104 H   0  0  0  0  0  0  0  0  0  0  0  0
    6.0674   -0.3211   19.6708 H   0  0  0  0  0  0  0  0  0  0  0  0
    6.6726    1.2164   20.3754 H   0  0  0  0  0  0  0  0  0  0  0  0
    9.1141    0.0871   18.4824 H   0  0  0  0  0  0  0  0  0  0  0  0
   10.1117    0.0696   19.9760 H   0  0  0  0  0  0  0  0  0  0  0  0
    9.5255   -1.4743   19.2692 H   0  0  0  0  0  0  0  0  0  0  0  0
    9.2069   -5.6214   24.7464 H   0  0  0  0  0  0  0  0  0  0  0  0
    8.0939   -6.9346   25.1318 H   0  0  0  0  0  0  0  0  0  0  0  0
   10.9946   -3.1877   21.9272 H   0  0  0  0  0  0  0  0  0  0  0  0
   11.9468   -3.8323   23.2649 H   0  0  0  0  0  0  0  0  0  0  0  0
    8.5428   -2.2945   25.6452 H   0  0  0  0  0  0  0  0  0  0  0  0
  1  2  3  0  0  0  0
  1 37  1  0  0  0  0
  2 11  1  0  0  0  0
  3  4  2  0  0  0  0
  3  5  1  0  0  0  0
  3 38  1  0  0  0  0
  4 11  1  0  0  0  0
  4 39  1  0  0  0  0
  5 15  2  0  0  0  0
  5 40  1  0  0  0  0
  6  9  1  0  0  0  0
  6 12  2  0  0  0  0
  6 41  1  0  0  0  0
  7 10  2  0  0  0  0
  7 13  1  0  0  0  0
  7 42  1  0  0  0  0
  8 13  2  0  0  0  0
  8 17  1  0  0  0  0
  8 43  1  0  0  0  0
  9 28  2  0  0  0  0
  9 44  1  0  0  0  0
 10 29  1  0  0  0  0
 10 45  1  0  0  0  0
 11 30  2  0  0  0  0
 12 14  1  0  0  0  0
 12 26  1  0  0  0  0
 13 33  1  0  0  0  0
 14 16  2  0  0  0  0
 14 32  1  0  0  0  0
 15 27  1  0  0  0  0
 15 30  1  0  0  0  0
 16 23  1  0  0  0  0
 16 28  1  0  0  0  0
 17 29  2  0  0  0  0
 17 34  1  0  0  0  0
 18 32  1  0  0  0  0
 18 34  1  0  0  0  0
 18 35  2  0  0  0  0
 19 21  1  0  0  0  0
 19 31  1  0  0  0  0
 19 46  1  0  0  0  0
 19 47  1  0  0  0  0
 20 22  1  0  0  0  0
 20 31  1  0  0  0  0
 20 48  1  0  0  0  0
 20 49  1  0  0  0  0
 21 36  1  0  0  0  0
 21 50  1  0  0  0  0
 21 51  1  0  0  0  0
 22 36  1  0  0  0  0
 22 52  1  0  0  0  0
 22 53  1  0  0  0  0
 23 54  1  0  0  0  0
 23 55  1  0  0  0  0
 23 56  1  0  0  0  0
 24 33  1  0  0  0  0
 24 57  1  0  0  0  0
 24 58  1  0  0  0  0
 24 59  1  0  0  0  0
 25 33  1  0  0  0  0
 25 60  1  0  0  0  0
 25 61  1  0  0  0  0
 25 62  1  0  0  0  0
 26 31  1  0  0  0  0
 26 63  1  0  0  0  0
 26 64  1  0  0  0  0
 27 34  1  0  0  0  0
 27 65  1  0  0  0  0
 27 66  1  0  0  0  0
 32 67  1  0  0  0  0
M  END
>  <Chemgauss4 Score>
-5.21840286254883

>  <Number of Confs>
200

$$$$
