5
  -OEChem-04162001263D

 28 30  0     0  0  0  0  0  0999 V2000
   11.9588    1.0743   23.0897 C   0  0  0  0  0  0  0  0  0  0  0  0
   12.9443    0.7241   24.0171 C   0  0  0  0  0  0  0  0  0  0  0  0
   13.8759   -2.6554   23.1474 C   0  0  0  0  0  0  0  0  0  0  0  0
   12.1117   -1.1001   22.0193 C   0  0  0  0  0  0  0  0  0  0  0  0
    7.4845    0.1176   20.2501 C   0  0  0  0  0  0  0  0  0  0  0  0
    9.0078   -0.2381   18.4585 C   0  0  0  0  0  0  0  0  0  0  0  0
    6.8468    0.3722   17.9731 C   0  0  0  0  0  0  0  0  0  0  0  0
   14.7051   -2.4340   24.2227 C   0  0  0  0  0  0  0  0  0  0  0  0
   13.1070   -1.4756   22.9433 C   0  0  0  0  0  0  0  0  0  0  0  0
   11.5474    0.1779   22.1054 C   0  0  0  0  0  0  0  0  0  0  0  0
   13.4995   -0.5567   23.9189 C   0  0  0  0  0  0  0  0  0  0  0  0
    8.7641   -0.2187   19.8223 C   0  0  0  0  0  0  0  0  0  0  0  0
    6.5017    0.4200   19.3142 C   0  0  0  0  0  0  0  0  0  0  0  0
   10.5198    0.5738   21.1547 C   0  0  0  0  0  0  0  0  0  0  0  0
    8.0788    0.0497   17.5195 N   0  0  0  0  0  0  0  0  0  0  0  0
   14.4707   -1.1656   24.6814 N   0  0  0  0  0  0  0  0  0  0  0  0
   10.3310    1.7372   20.7733 O   0  0  0  0  0  0  0  0  0  0  0  0
    9.7727   -0.5262   20.7394 O   0  0  0  0  0  0  0  0  0  0  0  0
    4.9124    0.8387   19.8044 Cl  0  0  0  0  0  0  0  0  0  0  0  0
   11.5151    2.0659   23.1482 H   0  0  0  0  0  0  0  0  0  0  0  0
   13.2636    1.4225   24.7834 H   0  0  0  0  0  0  0  0  0  0  0  0
   13.8286   -3.5683   22.5698 H   0  0  0  0  0  0  0  0  0  0  0  0
   11.7899   -1.7975   21.2501 H   0  0  0  0  0  0  0  0  0  0  0  0
    7.2603    0.1416   21.3137 H   0  0  0  0  0  0  0  0  0  0  0  0
    9.9879   -0.4931   18.0679 H   0  0  0  0  0  0  0  0  0  0  0  0
    6.1251    0.5984   17.1940 H   0  0  0  0  0  0  0  0  0  0  0  0
   15.4404   -3.0654   24.7013 H   0  0  0  0  0  0  0  0  0  0  0  0
   14.9428   -0.7371   25.4655 H   0  0  0  0  0  0  0  0  0  0  0  0
  1  2  2  0  0  0  0
  1 10  1  0  0  0  0
  2 11  1  0  0  0  0
  3  8  2  0  0  0  0
  3  9  1  0  0  0  0
  4  9  1  0  0  0  0
  4 10  2  0  0  0  0
  5 12  2  0  0  0  0
  5 13  1  0  0  0  0
  6 12  1  0  0  0  0
  6 15  2  0  0  0  0
  7 13  2  0  0  0  0
  7 15  1  0  0  0  0
  8 16  1  0  0  0  0
  9 11  2  0  0  0  0
 10 14  1  0  0  0  0
 11 16  1  0  0  0  0
 12 18  1  0  0  0  0
 13 19  1  0  0  0  0
 14 17  2  0  0  0  0
 14 18  1  0  0  0  0
  1 20  1  0  0  0  0
  2 21  1  0  0  0  0
  3 22  1  0  0  0  0
  4 23  1  0  0  0  0
  5 24  1  0  0  0  0
  6 25  1  0  0  0  0
  7 26  1  0  0  0  0
  8 27  1  0  0  0  0
 16 28  1  0  0  0  0
M  END
> <paper/assay>
http://10.1016/j.bmcl.2008.08.082

> <IC50 (um)>
0.31

> <real_space>
FALSE

> <SCR>
FALSE

> <BB>
FALSE

> <molport_or_mcule>
FALSE

> <PDB>
FALSE

> <Hybrid2>
-12.829528

> <docked_fragment>
x0678

> <Mpro-_dock>
0.62747

> <site>
active-noncovalent

$$$$
2497380
  -OEChem-04162001263D

 33 35  0     0  0  0  0  0  0999 V2000
   14.7095   -2.1264   24.0397 C   0  0  0  0  0  0  0  0  0  0  0  0
   14.3083   -1.0324   24.8064 C   0  0  0  0  0  0  0  0  0  0  0  0
   14.2534   -2.2641   22.7287 C   0  0  0  0  0  0  0  0  0  0  0  0
    5.8840    0.7180   19.0013 C   0  0  0  0  0  0  0  0  0  0  0  0
    6.7907    0.5031   20.0334 C   0  0  0  0  0  0  0  0  0  0  0  0
   13.4509   -0.0762   24.2622 C   0  0  0  0  0  0  0  0  0  0  0  0
   13.3959   -1.3079   22.1845 C   0  0  0  0  0  0  0  0  0  0  0  0
    6.3435    0.6010   17.6995 C   0  0  0  0  0  0  0  0  0  0  0  0
    8.4704    0.0891   18.4014 C   0  0  0  0  0  0  0  0  0  0  0  0
   10.1587   -0.8283   22.5283 C   0  0  0  0  0  0  0  0  0  0  0  0
    8.1105    0.1823   19.7362 C   0  0  0  0  0  0  0  0  0  0  0  0
    9.0170   -1.0269   21.7910 C   0  0  0  0  0  0  0  0  0  0  0  0
   12.9947   -0.2139   22.9512 C   0  0  0  0  0  0  0  0  0  0  0  0
    9.0736   -0.0455   20.7833 C   0  0  0  0  0  0  0  0  0  0  0  0
    8.0285   -2.0314   22.0471 C   0  0  0  0  0  0  0  0  0  0  0  0
   12.0777    0.8080   22.3687 C   0  0  0  0  0  0  0  0  0  0  0  0
    7.6179    0.2909   17.3717 N   0  0  0  0  0  0  0  0  0  0  0  0
   10.1648    0.7199   20.8697 N   0  0  0  0  0  0  0  0  0  0  0  0
   10.8044    0.2194   21.9405 N   0  0  0  0  0  0  0  0  0  0  0  0
    8.0959   -2.8512   22.9833 O   0  0  0  0  0  0  0  0  0  0  0  0
   15.3782   -2.8701   24.4632 H   0  0  0  0  0  0  0  0  0  0  0  0
   14.6642   -0.9244   25.8268 H   0  0  0  0  0  0  0  0  0  0  0  0
   14.5664   -3.1151   22.1311 H   0  0  0  0  0  0  0  0  0  0  0  0
    4.8504    0.9698   19.2097 H   0  0  0  0  0  0  0  0  0  0  0  0
    6.4539    0.5891   21.0635 H   0  0  0  0  0  0  0  0  0  0  0  0
   13.1434    0.7728   24.8670 H   0  0  0  0  0  0  0  0  0  0  0  0
   13.0455   -1.4236   21.1622 H   0  0  0  0  0  0  0  0  0  0  0  0
    5.6755    0.7593   16.8594 H   0  0  0  0  0  0  0  0  0  0  0  0
    9.4853   -0.1575   18.1024 H   0  0  0  0  0  0  0  0  0  0  0  0
   10.5579   -1.3298   23.3996 H   0  0  0  0  0  0  0  0  0  0  0  0
    7.1378   -2.0889   21.3671 H   0  0  0  0  0  0  0  0  0  0  0  0
   11.8489    1.6102   23.0883 H   0  0  0  0  0  0  0  0  0  0  0  0
   12.5241    1.3079   21.4944 H   0  0  0  0  0  0  0  0  0  0  0  0
  1  2  1  0  0  0  0
  1  3  2  0  0  0  0
  2  6  2  0  0  0  0
  3  7  1  0  0  0  0
  4  5  2  0  0  0  0
  4  8  1  0  0  0  0
  5 11  1  0  0  0  0
  6 13  1  0  0  0  0
  7 13  2  0  0  0  0
  8 17  2  0  0  0  0
  9 11  2  0  0  0  0
  9 17  1  0  0  0  0
 10 12  2  0  0  0  0
 10 19  1  0  0  0  0
 11 14  1  0  0  0  0
 12 14  1  0  0  0  0
 12 15  1  0  0  0  0
 13 16  1  0  0  0  0
 14 18  2  0  0  0  0
 15 20  2  0  0  0  0
 16 19  1  0  0  0  0
 18 19  1  0  0  0  0
  1 21  1  0  0  0  0
  2 22  1  0  0  0  0
  3 23  1  0  0  0  0
  4 24  1  0  0  0  0
  5 25  1  0  0  0  0
  6 26  1  0  0  0  0
  7 27  1  0  0  0  0
  8 28  1  0  0  0  0
  9 29  1  0  0  0  0
 10 30  1  0  0  0  0
 15 31  1  0  0  0  0
 16 32  1  0  0  0  0
 16 33  1  0  0  0  0
M  END
> <paper/assay>
https://pubchem.ncbi.nlm.nih.gov/bioassay/1890

> <IC50 (um)>
7.214

> <real_space>
FALSE

> <SCR>
Z56346837

> <BB>
EN300-16575

> <molport_or_mcule>
['https://www.molport.com/shop/molecule-link/MolPort-002-470-369', 'https://www.molport.com/shop/molecule-link/MolPort-002-470-369', 'https://mcule.com/MCULE-3388356709/']

> <PDB>
FALSE

> <Hybrid2>
-12.610242

> <docked_fragment>
x0678

> <Mpro-_dock>
0.627268

> <site>
active-noncovalent

$$$$
14
  -OEChem-04162001263D

 38 40  0     1  0  0  0  0  0999 V2000
    8.1441   -5.1869   25.7894 C   0  0  0  0  0  0  0  0  0  0  0  0
    7.3967   -4.3071   26.5669 C   0  0  0  0  0  0  0  0  0  0  0  0
    9.0585   -4.6904   24.8616 C   0  0  0  0  0  0  0  0  0  0  0  0
    7.5674   -2.9309   26.4196 C   0  0  0  0  0  0  0  0  0  0  0  0
    6.7032    0.2067   20.8896 C   0  0  0  0  0  0  0  0  0  0  0  0
    8.2722   -0.1233   19.1329 C   0  0  0  0  0  0  0  0  0  0  0  0
    6.0721    0.2648   18.5973 C   0  0  0  0  0  0  0  0  0  0  0  0
    9.2259   -3.3078   24.6971 C   0  0  0  0  0  0  0  0  0  0  0  0
    8.4857   -2.4193   25.4900 C   0  0  0  0  0  0  0  0  0  0  0  0
    8.0120   -0.0420   20.4914 C   0  0  0  0  0  0  0  0  0  0  0  0
    5.7087    0.3642   19.9307 C   0  0  0  0  0  0  0  0  0  0  0  0
    8.8043   -1.2681   22.2959 C   0  0  0  0  0  0  0  0  0  0  0  0
   10.1374    0.8423   24.3652 C   0  0  0  0  0  0  0  0  0  0  0  0
   10.2349   -2.7882   23.7099 C   0  0  0  0  0  0  0  0  0  0  0  0
    8.6434   -0.9266   25.3668 C   0  0  0  0  0  0  0  0  0  0  0  0
    9.9511   -1.3575   23.2626 C   0  0  2  0  0  0  0  0  0  0  0  0
   11.5431    1.0153   23.8424 C   0  0  0  0  0  0  0  0  0  0  0  0
    7.3326    0.0241   18.1722 N   0  0  0  0  0  0  0  0  0  0  0  0
    9.6364   -0.4670   24.3818 N   0  0  0  0  0  0  0  0  0  0  0  0
    7.8417   -2.0239   22.2983 O   0  0  0  0  0  0  0  0  0  0  0  0
    9.5046    1.8332   24.7381 O   0  0  0  0  0  0  0  0  0  0  0  0
    9.0324   -0.2033   21.4315 O   0  0  0  0  0  0  0  0  0  0  0  0
    4.0834    0.6715   20.3843 Cl  0  0  0  0  0  0  0  0  0  0  0  0
    8.0170   -6.2591   25.9066 H   0  0  0  0  0  0  0  0  0  0  0  0
    6.6840   -4.6915   27.2906 H   0  0  0  0  0  0  0  0  0  0  0  0
    9.6402   -5.3881   24.2643 H   0  0  0  0  0  0  0  0  0  0  0  0
    6.9808   -2.2548   27.0371 H   0  0  0  0  0  0  0  0  0  0  0  0
    6.4655    0.2760   21.9483 H   0  0  0  0  0  0  0  0  0  0  0  0
    9.2752   -0.3151   18.7649 H   0  0  0  0  0  0  0  0  0  0  0  0
    5.3424    0.3790   17.8012 H   0  0  0  0  0  0  0  0  0  0  0  0
   11.2246   -2.8333   24.1814 H   0  0  0  0  0  0  0  0  0  0  0  0
   10.2549   -3.4446   22.8308 H   0  0  0  0  0  0  0  0  0  0  0  0
    7.6829   -0.4885   25.0688 H   0  0  0  0  0  0  0  0  0  0  0  0
    8.9115   -0.5249   26.3492 H   0  0  0  0  0  0  0  0  0  0  0  0
   10.8276   -0.9800   22.7233 H   0  0  0  0  0  0  0  0  0  0  0  0
   11.5036    1.1848   22.7720 H   0  0  0  0  0  0  0  0  0  0  0  0
   12.1131    0.1175   24.0562 H   0  0  0  0  0  0  0  0  0  0  0  0
   12.0021    1.8646   24.3370 H   0  0  0  0  0  0  0  0  0  0  0  0
  1  2  1  0  0  0  0
  1  3  2  0  0  0  0
  2  4  2  0  0  0  0
  3  8  1  0  0  0  0
  4  9  1  0  0  0  0
  5 10  2  0  0  0  0
  5 11  1  0  0  0  0
  6 10  1  0  0  0  0
  6 18  2  0  0  0  0
  7 11  2  0  0  0  0
  7 18  1  0  0  0  0
  8  9  2  0  0  0  0
  8 14  1  0  0  0  0
  9 15  1  0  0  0  0
 10 22  1  0  0  0  0
 11 23  1  0  0  0  0
 12 16  1  0  0  0  0
 12 20  2  0  0  0  0
 12 22  1  0  0  0  0
 13 17  1  0  0  0  0
 13 19  1  0  0  0  0
 13 21  2  0  0  0  0
 14 16  1  0  0  0  0
 15 19  1  0  0  0  0
 16 19  1  0  0  0  0
  1 24  1  0  0  0  0
  2 25  1  0  0  0  0
  3 26  1  0  0  0  0
  4 27  1  0  0  0  0
  5 28  1  0  0  0  0
  6 29  1  0  0  0  0
  7 30  1  0  0  0  0
 14 31  1  0  0  0  0
 14 32  1  0  0  0  0
 15 33  1  0  0  0  0
 15 34  1  0  0  0  0
 16 35  1  0  0  0  0
 17 36  1  0  0  0  0
 17 37  1  0  0  0  0
 17 38  1  0  0  0  0
M  END
> <paper/assay>
http://10.1016/j.bmcl.2008.08.082

> <IC50 (um)>
0.14

> <real_space>
FALSE

> <SCR>
FALSE

> <BB>
FALSE

> <molport_or_mcule>
FALSE

> <PDB>
FALSE

> <Hybrid2>
-12.383274

> <docked_fragment>
x0107

> <Mpro-_dock>
1.128622

> <site>
active-noncovalent

$$$$
9
  -OEChem-04162001263D

 28 30  0     0  0  0  0  0  0999 V2000
   13.0953    0.7090   23.8538 C   0  0  0  0  0  0  0  0  0  0  0  0
   12.0370    1.0726   23.0131 C   0  0  0  0  0  0  0  0  0  0  0  0
   14.7036   -1.2689   24.4065 C   0  0  0  0  0  0  0  0  0  0  0  0
   12.0717   -1.1064   21.9383 C   0  0  0  0  0  0  0  0  0  0  0  0
    7.3277    0.1584   20.5696 C   0  0  0  0  0  0  0  0  0  0  0  0
    8.6883   -0.2179   18.6556 C   0  0  0  0  0  0  0  0  0  0  0  0
    6.5005    0.4153   18.3547 C   0  0  0  0  0  0  0  0  0  0  0  0
   14.7956   -2.5267   23.8565 C   0  0  0  0  0  0  0  0  0  0  0  0
   13.6529   -0.5799   23.7386 C   0  0  0  0  0  0  0  0  0  0  0  0
   11.5346    0.1773   22.0708 C   0  0  0  0  0  0  0  0  0  0  0  0
   13.1292   -1.4561   22.7854 C   0  0  0  0  0  0  0  0  0  0  0  0
    8.5622   -0.1930   20.0351 C   0  0  0  0  0  0  0  0  0  0  0  0
    6.2718    0.4697   19.7202 C   0  0  0  0  0  0  0  0  0  0  0  0
   10.4338    0.5827   21.2101 C   0  0  0  0  0  0  0  0  0  0  0  0
    7.6856    0.0782   17.7985 N   0  0  0  0  0  0  0  0  0  0  0  0
   13.8422   -2.6301   22.8794 N   0  0  0  0  0  0  0  0  0  0  0  0
   10.2259    1.7473   20.8428 O   0  0  0  0  0  0  0  0  0  0  0  0
    9.6421   -0.5098   20.8636 O   0  0  0  0  0  0  0  0  0  0  0  0
    4.7349    0.9071   20.3432 Cl  0  0  0  0  0  0  0  0  0  0  0  0
   13.4769    1.4173   24.5835 H   0  0  0  0  0  0  0  0  0  0  0  0
   11.6112    2.0690   23.1075 H   0  0  0  0  0  0  0  0  0  0  0  0
   15.3253   -0.8871   25.2046 H   0  0  0  0  0  0  0  0  0  0  0  0
   11.6865   -1.8107   21.2074 H   0  0  0  0  0  0  0  0  0  0  0  0
    7.1955    0.1871   21.6484 H   0  0  0  0  0  0  0  0  0  0  0  0
    9.6286   -0.4847   18.1834 H   0  0  0  0  0  0  0  0  0  0  0  0
    5.7173    0.6479   17.6394 H   0  0  0  0  0  0  0  0  0  0  0  0
   15.4542   -3.3559   24.0729 H   0  0  0  0  0  0  0  0  0  0  0  0
   13.6831   -3.4493   22.3094 H   0  0  0  0  0  0  0  0  0  0  0  0
  1  2  2  0  0  0  0
  1  9  1  0  0  0  0
  2 10  1  0  0  0  0
  3  8  2  0  0  0  0
  3  9  1  0  0  0  0
  4 10  2  0  0  0  0
  4 11  1  0  0  0  0
  5 12  2  0  0  0  0
  5 13  1  0  0  0  0
  6 12  1  0  0  0  0
  6 15  2  0  0  0  0
  7 13  2  0  0  0  0
  7 15  1  0  0  0  0
  8 16  1  0  0  0  0
  9 11  2  0  0  0  0
 10 14  1  0  0  0  0
 11 16  1  0  0  0  0
 12 18  1  0  0  0  0
 13 19  1  0  0  0  0
 14 17  2  0  0  0  0
 14 18  1  0  0  0  0
  1 20  1  0  0  0  0
  2 21  1  0  0  0  0
  3 22  1  0  0  0  0
  4 23  1  0  0  0  0
  5 24  1  0  0  0  0
  6 25  1  0  0  0  0
  7 26  1  0  0  0  0
  8 27  1  0  0  0  0
 16 28  1  0  0  0  0
M  END
> <paper/assay>
http://10.1016/j.bmcl.2008.08.082

> <IC50 (um)>
0.23

> <real_space>
FALSE

> <SCR>
FALSE

> <BB>
FALSE

> <molport_or_mcule>
FALSE

> <PDB>
FALSE

> <Hybrid2>
-12.103578

> <docked_fragment>
x0678

> <Mpro-_dock>
-1.396673

> <site>
active-noncovalent

$$$$
12
  -OEChem-04162001263D

 28 30  0     0  0  0  0  0  0999 V2000
   12.2231   -0.2837   24.8828 C   0  0  0  0  0  0  0  0  0  0  0  0
   13.4527   -0.6429   24.3189 C   0  0  0  0  0  0  0  0  0  0  0  0
   11.0611   -0.2749   24.1137 C   0  0  0  0  0  0  0  0  0  0  0  0
   14.5496   -1.4045   22.0782 C   0  0  0  0  0  0  0  0  0  0  0  0
    7.6181    0.7274   20.6030 C   0  0  0  0  0  0  0  0  0  0  0  0
    8.9070    0.0081   18.7381 C   0  0  0  0  0  0  0  0  0  0  0  0
    6.6694    0.4365   18.4416 C   0  0  0  0  0  0  0  0  0  0  0  0
   13.9929   -1.6218   20.8389 C   0  0  0  0  0  0  0  0  0  0  0  0
   13.5063   -0.9982   22.9564 C   0  0  0  0  0  0  0  0  0  0  0  0
   11.0899   -0.6235   22.7604 C   0  0  0  0  0  0  0  0  0  0  0  0
   12.3261   -0.9804   22.2101 C   0  0  0  0  0  0  0  0  0  0  0  0
    8.8463    0.3339   20.0834 C   0  0  0  0  0  0  0  0  0  0  0  0
    6.5038    0.7822   19.7731 C   0  0  0  0  0  0  0  0  0  0  0  0
    9.8739   -0.6108   21.9671 C   0  0  0  0  0  0  0  0  0  0  0  0
    7.8464    0.0493   17.9008 N   0  0  0  0  0  0  0  0  0  0  0  0
   12.6515   -1.3631   20.9284 N   0  0  0  0  0  0  0  0  0  0  0  0
    8.8710   -1.3000   22.2082 O   0  0  0  0  0  0  0  0  0  0  0  0
    9.9839    0.2705   20.8926 O   0  0  0  0  0  0  0  0  0  0  0  0
    4.9727    1.2624   20.3787 Cl  0  0  0  0  0  0  0  0  0  0  0  0
   12.1760   -0.0075   25.9331 H   0  0  0  0  0  0  0  0  0  0  0  0
   14.3510   -0.6467   24.9295 H   0  0  0  0  0  0  0  0  0  0  0  0
   10.1220    0.0108   24.5828 H   0  0  0  0  0  0  0  0  0  0  0  0
   15.5955   -1.5266   22.3247 H   0  0  0  0  0  0  0  0  0  0  0  0
    7.5365    0.9893   21.6551 H   0  0  0  0  0  0  0  0  0  0  0  0
    9.8393   -0.3052   18.2787 H   0  0  0  0  0  0  0  0  0  0  0  0
    5.8387    0.4597   17.7427 H   0  0  0  0  0  0  0  0  0  0  0  0
   14.4313   -1.9370   19.9025 H   0  0  0  0  0  0  0  0  0  0  0  0
   11.9957   -1.4425   20.1635 H   0  0  0  0  0  0  0  0  0  0  0  0
  1  2  1  0  0  0  0
  1  3  2  0  0  0  0
  2  9  2  0  0  0  0
  3 10  1  0  0  0  0
  4  8  2  0  0  0  0
  4  9  1  0  0  0  0
  5 12  2  0  0  0  0
  5 13  1  0  0  0  0
  6 12  1  0  0  0  0
  6 15  2  0  0  0  0
  7 13  2  0  0  0  0
  7 15  1  0  0  0  0
  8 16  1  0  0  0  0
  9 11  1  0  0  0  0
 10 11  2  0  0  0  0
 10 14  1  0  0  0  0
 11 16  1  0  0  0  0
 12 18  1  0  0  0  0
 13 19  1  0  0  0  0
 14 17  2  0  0  0  0
 14 18  1  0  0  0  0
  1 20  1  0  0  0  0
  2 21  1  0  0  0  0
  3 22  1  0  0  0  0
  4 23  1  0  0  0  0
  5 24  1  0  0  0  0
  6 25  1  0  0  0  0
  7 26  1  0  0  0  0
  8 27  1  0  0  0  0
 16 28  1  0  0  0  0
M  END
> <paper/assay>
http://10.1016/j.bmcl.2008.08.082

> <IC50 (um)>
0.08

> <real_space>
FALSE

> <SCR>
FALSE

> <BB>
FALSE

> <molport_or_mcule>
FALSE

> <PDB>
FALSE

> <Hybrid2>
-11.950620

> <docked_fragment>
x0678

> <Mpro-_dock>
-1.138808

> <site>
active-noncovalent

$$$$
17C
  -OEChem-04162001263D

 54 58  0     0  0  0  0  0  0999 V2000
    4.3847    2.0749   18.0320 C   0  0  0  0  0  0  0  0  0  0  0  0
    4.3691    1.8984   19.4190 C   0  0  0  0  0  0  0  0  0  0  0  0
    7.1081   -5.5257   27.6142 C   0  0  0  0  0  0  0  0  0  0  0  0
    7.7251   -4.5215   26.8766 C   0  0  0  0  0  0  0  0  0  0  0  0
    8.8273   -3.4211   23.9518 C   0  0  0  0  0  0  0  0  0  0  0  0
    7.4470   -1.7703   25.0504 C   0  0  0  0  0  0  0  0  0  0  0  0
    5.4241    1.5567   17.2484 C   0  0  0  0  0  0  0  0  0  0  0  0
    5.3884    1.1992   20.0750 C   0  0  0  0  0  0  0  0  0  0  0  0
    9.4385   -2.4135   23.2057 C   0  0  0  0  0  0  0  0  0  0  0  0
    8.0582   -0.7627   24.3043 C   0  0  0  0  0  0  0  0  0  0  0  0
   12.8797   -0.5970   24.1894 C   0  0  0  0  0  0  0  0  0  0  0  0
    5.9735   -6.1171   27.0825 C   0  0  0  0  0  0  0  0  0  0  0  0
   14.0023   -1.2801   23.7763 C   0  0  0  0  0  0  0  0  0  0  0  0
   12.6628   -0.4711   21.8786 C   0  0  0  0  0  0  0  0  0  0  0  0
    7.8314   -3.0995   24.8742 C   0  0  0  0  0  0  0  0  0  0  0  0
    7.1961   -4.1447   25.6471 C   0  0  0  0  0  0  0  0  0  0  0  0
   12.1036   -0.1284   23.0902 C   0  0  0  0  0  0  0  0  0  0  0  0
    6.4519    0.8539   17.8938 C   0  0  0  0  0  0  0  0  0  0  0  0
    6.4092    0.6947   19.2721 C   0  0  0  0  0  0  0  0  0  0  0  0
    9.0540   -1.0843   23.3819 C   0  0  0  0  0  0  0  0  0  0  0  0
    6.0577   -4.7981   25.2034 C   0  0  0  0  0  0  0  0  0  0  0  0
    9.1712    0.3617   21.3540 C   0  0  0  0  0  0  0  0  0  0  0  0
    4.3306   -5.1762   23.6128 C   0  0  0  0  0  0  0  0  0  0  0  0
   10.8272    0.6483   23.2373 C   0  0  0  0  0  0  0  0  0  0  0  0
    8.0195   -0.4779   20.8196 C   0  0  0  0  0  0  0  0  0  0  0  0
    5.4305   -5.7780   25.8919 N   0  0  0  0  0  0  0  0  0  0  0  0
    7.5760    0.2459   17.4005 N   0  0  0  0  0  0  0  0  0  0  0  0
    8.2374   -0.2876   18.4219 N   0  0  0  0  0  0  0  0  0  0  0  0
    7.5412   -0.0197   19.5390 N   0  0  0  0  0  0  0  0  0  0  0  0
    9.6892   -0.0382   22.6063 N   0  0  0  0  0  0  0  0  0  0  0  0
    9.6048    1.2990   20.6791 O   0  0  0  0  0  0  0  0  0  0  0  0
    5.4974   -4.4602   23.9984 O   0  0  0  0  0  0  0  0  0  0  0  0
   14.1174   -1.3544   22.0693 S   0  0  0  0  0  0  0  0  0  0  0  0
    3.5775    2.6231   17.5529 H   0  0  0  0  0  0  0  0  0  0  0  0
    3.5487    2.3125   20.0002 H   0  0  0  0  0  0  0  0  0  0  0  0
    7.5034   -5.8353   28.5750 H   0  0  0  0  0  0  0  0  0  0  0  0
    8.6163   -4.0416   27.2734 H   0  0  0  0  0  0  0  0  0  0  0  0
    9.1371   -4.4529   23.8029 H   0  0  0  0  0  0  0  0  0  0  0  0
    6.6717   -1.5034   25.7645 H   0  0  0  0  0  0  0  0  0  0  0  0
    5.4279    1.6986   16.1726 H   0  0  0  0  0  0  0  0  0  0  0  0
    5.3777    1.0616   21.1500 H   0  0  0  0  0  0  0  0  0  0  0  0
   10.2118   -2.6760   22.4881 H   0  0  0  0  0  0  0  0  0  0  0  0
    7.7496    0.2698   24.4482 H   0  0  0  0  0  0  0  0  0  0  0  0
   12.6311   -0.4427   25.2318 H   0  0  0  0  0  0  0  0  0  0  0  0
    5.4543   -6.9049   27.6181 H   0  0  0  0  0  0  0  0  0  0  0  0
   14.7608   -1.7385   24.3950 H   0  0  0  0  0  0  0  0  0  0  0  0
   12.2908   -0.2460   20.8887 H   0  0  0  0  0  0  0  0  0  0  0  0
    3.9850   -4.8150   22.6411 H   0  0  0  0  0  0  0  0  0  0  0  0
    3.5501   -5.0346   24.3647 H   0  0  0  0  0  0  0  0  0  0  0  0
    4.5739   -6.2387   23.5386 H   0  0  0  0  0  0  0  0  0  0  0  0
   10.5861    0.7981   24.2953 H   0  0  0  0  0  0  0  0  0  0  0  0
   10.9154    1.6395   22.7803 H   0  0  0  0  0  0  0  0  0  0  0  0
    8.3359   -1.5190   20.6942 H   0  0  0  0  0  0  0  0  0  0  0  0
    7.1715   -0.4370   21.5118 H   0  0  0  0  0  0  0  0  0  0  0  0
  1  2  1  0  0  0  0
  1  7  2  0  0  0  0
  2  8  2  0  0  0  0
  3  4  2  0  0  0  0
  3 12  1  0  0  0  0
  4 16  1  0  0  0  0
  5  9  2  0  0  0  0
  5 15  1  0  0  0  0
  6 10  1  0  0  0  0
  6 15  2  0  0  0  0
  7 18  1  0  0  0  0
  8 19  1  0  0  0  0
  9 20  1  0  0  0  0
 10 20  2  0  0  0  0
 11 13  2  0  0  0  0
 11 17  1  0  0  0  0
 12 26  2  0  0  0  0
 13 33  1  0  0  0  0
 14 17  2  0  0  0  0
 14 33  1  0  0  0  0
 15 16  1  0  0  0  0
 16 21  2  0  0  0  0
 17 24  1  0  0  0  0
 18 19  2  0  0  0  0
 18 27  1  0  0  0  0
 19 29  1  0  0  0  0
 20 30  1  0  0  0  0
 21 26  1  0  0  0  0
 21 32  1  0  0  0  0
 22 25  1  0  0  0  0
 22 30  1  0  0  0  0
 22 31  2  0  0  0  0
 23 32  1  0  0  0  0
 24 30  1  0  0  0  0
 25 29  1  0  0  0  0
 27 28  2  0  0  0  0
 28 29  1  0  0  0  0
  1 34  1  0  0  0  0
  2 35  1  0  0  0  0
  3 36  1  0  0  0  0
  4 37  1  0  0  0  0
  5 38  1  0  0  0  0
  6 39  1  0  0  0  0
  7 40  1  0  0  0  0
  8 41  1  0  0  0  0
  9 42  1  0  0  0  0
 10 43  1  0  0  0  0
 11 44  1  0  0  0  0
 12 45  1  0  0  0  0
 13 46  1  0  0  0  0
 14 47  1  0  0  0  0
 23 48  1  0  0  0  0
 23 49  1  0  0  0  0
 23 50  1  0  0  0  0
 24 51  1  0  0  0  0
 24 52  1  0  0  0  0
 25 53  1  0  0  0  0
 25 54  1  0  0  0  0
M  END
> <paper/assay>
http://dx.doi.org/10.1016/j.bmcl.2013.08.112

> <IC50 (um)>
0.7

> <real_space>
FALSE

> <SCR>
FALSE

> <BB>
FALSE

> <molport_or_mcule>
FALSE

> <PDB>
FALSE

> <Hybrid2>
-11.026529

> <docked_fragment>
x0678

> <Mpro-_dock>
5.751766

> <site>
active-noncovalent

$$$$
2449860
  -OEChem-04162001263D

 47 50  0     0  0  0  0  0  0999 V2000
    8.0866    5.5748   22.8039 C   0  0  0  0  0  0  0  0  0  0  0  0
    7.6534    6.6253   23.6091 C   0  0  0  0  0  0  0  0  0  0  0  0
    9.4811   -2.1727   22.0039 C   0  0  0  0  0  0  0  0  0  0  0  0
    9.4006    5.1062   22.9007 C   0  0  0  0  0  0  0  0  0  0  0  0
    8.9500   -3.0096   22.9852 C   0  0  0  0  0  0  0  0  0  0  0  0
    8.5324    7.2114   24.5153 C   0  0  0  0  0  0  0  0  0  0  0  0
   10.2998   -1.1035   22.3675 C   0  0  0  0  0  0  0  0  0  0  0  0
   10.0562   -1.7082   24.6939 C   0  0  0  0  0  0  0  0  0  0  0  0
   10.3004    5.6838   23.8062 C   0  0  0  0  0  0  0  0  0  0  0  0
    9.2376   -2.7774   24.3302 C   0  0  0  0  0  0  0  0  0  0  0  0
   10.5873   -0.8712   23.7125 C   0  0  0  0  0  0  0  0  0  0  0  0
    9.8460    6.7413   24.6102 C   0  0  0  0  0  0  0  0  0  0  0  0
   12.5057    5.8387   24.8461 C   0  0  0  0  0  0  0  0  0  0  0  0
   11.6952    5.2419   23.9592 C   0  0  0  0  0  0  0  0  0  0  0  0
   12.0312    6.9597   25.7010 C   0  0  0  0  0  0  0  0  0  0  0  0
   12.3210    4.1489   23.1890 C   0  0  0  0  0  0  0  0  0  0  0  0
   10.9006    1.2573   24.9543 C   0  0  0  0  0  0  0  0  0  0  0  0
   12.5995    0.5608   23.3098 C   0  0  0  0  0  0  0  0  0  0  0  0
   10.5953    2.4958   24.1052 C   0  0  0  0  0  0  0  0  0  0  0  0
   12.2980    1.7926   22.4571 C   0  0  0  0  0  0  0  0  0  0  0  0
    8.6690   -3.6720   25.3791 C   0  0  0  0  0  0  0  0  0  0  0  0
   10.7199    7.3463   25.5306 N   0  0  0  0  0  0  0  0  0  0  0  0
   11.4036    0.1941   24.0748 N   0  0  0  0  0  0  0  0  0  0  0  0
   11.7654    2.8770   23.2936 N   0  0  0  0  0  0  0  0  0  0  0  0
   12.7989    7.4872   26.5031 O   0  0  0  0  0  0  0  0  0  0  0  0
   13.3024    4.4294   22.4982 O   0  0  0  0  0  0  0  0  0  0  0  0
    7.8871   -4.6743   24.8790 F   0  0  0  0  0  0  0  0  0  0  0  0
    9.6176   -4.3031   26.1326 F   0  0  0  0  0  0  0  0  0  0  0  0
    7.8803   -3.0025   26.2695 F   0  0  0  0  0  0  0  0  0  0  0  0
    7.4007    5.1170   22.0966 H   0  0  0  0  0  0  0  0  0  0  0  0
    6.6321    6.9860   23.5305 H   0  0  0  0  0  0  0  0  0  0  0  0
    9.2572   -2.3537   20.9565 H   0  0  0  0  0  0  0  0  0  0  0  0
    9.6932    4.2854   22.2528 H   0  0  0  0  0  0  0  0  0  0  0  0
    8.3130   -3.8405   22.6927 H   0  0  0  0  0  0  0  0  0  0  0  0
    8.1868    8.0301   25.1410 H   0  0  0  0  0  0  0  0  0  0  0  0
   10.7086   -0.4576   21.5946 H   0  0  0  0  0  0  0  0  0  0  0  0
   10.2797   -1.5287   25.7431 H   0  0  0  0  0  0  0  0  0  0  0  0
   13.5401    5.5396   24.9866 H   0  0  0  0  0  0  0  0  0  0  0  0
   11.6506    1.5125   25.6991 H   0  0  0  0  0  0  0  0  0  0  0  0
    9.9997    0.9223   25.4639 H   0  0  0  0  0  0  0  0  0  0  0  0
   12.9087   -0.2551   22.6541 H   0  0  0  0  0  0  0  0  0  0  0  0
   13.4187    0.7667   23.9998 H   0  0  0  0  0  0  0  0  0  0  0  0
    9.7571    2.2831   23.4515 H   0  0  0  0  0  0  0  0  0  0  0  0
   10.3501    3.3423   24.7396 H   0  0  0  0  0  0  0  0  0  0  0  0
   13.2030    2.1241   21.9503 H   0  0  0  0  0  0  0  0  0  0  0  0
   11.5492    1.5681   21.6964 H   0  0  0  0  0  0  0  0  0  0  0  0
   10.3618    8.1102   26.0969 H   0  0  0  0  0  0  0  0  0  0  0  0
  1  2  1  0  0  0  0
  1  4  2  0  0  0  0
  2  6  2  0  0  0  0
  3  5  1  0  0  0  0
  3  7  2  0  0  0  0
  4  9  1  0  0  0  0
  5 10  2  0  0  0  0
  6 12  1  0  0  0  0
  7 11  1  0  0  0  0
  8 10  1  0  0  0  0
  8 11  2  0  0  0  0
  9 12  2  0  0  0  0
  9 14  1  0  0  0  0
 10 21  1  0  0  0  0
 11 23  1  0  0  0  0
 12 22  1  0  0  0  0
 13 14  2  0  0  0  0
 13 15  1  0  0  0  0
 14 16  1  0  0  0  0
 15 22  1  0  0  0  0
 15 25  2  0  0  0  0
 16 24  1  0  0  0  0
 16 26  2  0  0  0  0
 17 19  1  0  0  0  0
 17 23  1  0  0  0  0
 18 20  1  0  0  0  0
 18 23  1  0  0  0  0
 19 24  1  0  0  0  0
 20 24  1  0  0  0  0
 21 27  1  0  0  0  0
 21 28  1  0  0  0  0
 21 29  1  0  0  0  0
  1 30  1  0  0  0  0
  2 31  1  0  0  0  0
  3 32  1  0  0  0  0
  4 33  1  0  0  0  0
  5 34  1  0  0  0  0
  6 35  1  0  0  0  0
  7 36  1  0  0  0  0
  8 37  1  0  0  0  0
 13 38  1  0  0  0  0
 17 39  1  0  0  0  0
 17 40  1  0  0  0  0
 18 41  1  0  0  0  0
 18 42  1  0  0  0  0
 19 43  1  0  0  0  0
 19 44  1  0  0  0  0
 20 45  1  0  0  0  0
 20 46  1  0  0  0  0
 22 47  1  0  0  0  0
M  END
> <paper/assay>
https://pubchem.ncbi.nlm.nih.gov/bioassay/1890

> <IC50 (um)>
5.098

> <real_space>
FALSE

> <SCR>
Z26829233

> <BB>
FALSE

> <molport_or_mcule>
['https://www.molport.com/shop/molecule-link/MolPort-005-787-071', 'https://mcule.com/MCULE-9247304440/']

> <PDB>
FALSE

> <Hybrid2>
-11.014729

> <docked_fragment>
x0104

> <Mpro-_dock>
3.49282

> <site>
active-noncovalent

$$$$
17A
  -OEChem-04162001263D

 51 55  0     0  0  0  0  0  0999 V2000
    6.0195   -6.1425   27.3803 C   0  0  0  0  0  0  0  0  0  0  0  0
    6.1790   -4.8681   27.9245 C   0  0  0  0  0  0  0  0  0  0  0  0
    6.4839   -6.4144   26.0934 C   0  0  0  0  0  0  0  0  0  0  0  0
    4.4956    2.2104   18.3718 C   0  0  0  0  0  0  0  0  0  0  0  0
    4.4918    2.0206   19.7570 C   0  0  0  0  0  0  0  0  0  0  0  0
    6.8029   -3.8657   27.1818 C   0  0  0  0  0  0  0  0  0  0  0  0
    7.1077   -5.4120   25.3507 C   0  0  0  0  0  0  0  0  0  0  0  0
    8.8936   -3.4296   24.1885 C   0  0  0  0  0  0  0  0  0  0  0  0
    7.5584   -1.7629   25.3182 C   0  0  0  0  0  0  0  0  0  0  0  0
    5.5158    1.6796   17.5716 C   0  0  0  0  0  0  0  0  0  0  0  0
    5.5042    1.2952   20.3949 C   0  0  0  0  0  0  0  0  0  0  0  0
    9.5163   -2.4270   23.4452 C   0  0  0  0  0  0  0  0  0  0  0  0
    8.1812   -0.7602   24.5749 C   0  0  0  0  0  0  0  0  0  0  0  0
   12.7786   -0.5461   22.0572 C   0  0  0  0  0  0  0  0  0  0  0  0
   13.9358   -1.2822   22.1861 C   0  0  0  0  0  0  0  0  0  0  0  0
   12.9796   -0.6742   24.3692 C   0  0  0  0  0  0  0  0  0  0  0  0
    7.2673   -4.1376   25.8949 C   0  0  0  0  0  0  0  0  0  0  0  0
    7.9145   -3.0976   25.1249 C   0  0  0  0  0  0  0  0  0  0  0  0
   12.2247   -0.1937   23.3217 C   0  0  0  0  0  0  0  0  0  0  0  0
    6.5366    0.9504   18.1986 C   0  0  0  0  0  0  0  0  0  0  0  0
    6.5059    0.7786   19.5758 C   0  0  0  0  0  0  0  0  0  0  0  0
    9.1602   -1.0923   23.6384 C   0  0  0  0  0  0  0  0  0  0  0  0
    9.2836    0.3709   21.6233 C   0  0  0  0  0  0  0  0  0  0  0  0
   10.9655    0.6064   23.4906 C   0  0  0  0  0  0  0  0  0  0  0  0
    8.1097   -0.4406   21.0939 C   0  0  0  0  0  0  0  0  0  0  0  0
    7.6430    0.3252   17.6870 N   0  0  0  0  0  0  0  0  0  0  0  0
    8.3048   -0.2312   18.6957 N   0  0  0  0  0  0  0  0  0  0  0  0
    7.6265    0.0395   19.8231 N   0  0  0  0  0  0  0  0  0  0  0  0
    9.8073   -0.0513   22.8658 N   0  0  0  0  0  0  0  0  0  0  0  0
    9.7282    1.3061   20.9526 O   0  0  0  0  0  0  0  0  0  0  0  0
   14.3501   -1.5459   23.8266 S   0  0  0  0  0  0  0  0  0  0  0  0
    5.5352   -6.9233   27.9594 H   0  0  0  0  0  0  0  0  0  0  0  0
    5.8190   -4.6567   28.9271 H   0  0  0  0  0  0  0  0  0  0  0  0
    6.3612   -7.4068   25.6695 H   0  0  0  0  0  0  0  0  0  0  0  0
    3.6941    2.7790   17.9070 H   0  0  0  0  0  0  0  0  0  0  0  0
    3.6862    2.4450   20.3513 H   0  0  0  0  0  0  0  0  0  0  0  0
    6.9200   -2.8774   27.6202 H   0  0  0  0  0  0  0  0  0  0  0  0
    7.4652   -5.6390   24.3491 H   0  0  0  0  0  0  0  0  0  0  0  0
    9.1813   -4.4658   24.0262 H   0  0  0  0  0  0  0  0  0  0  0  0
    6.7964   -1.4878   26.0435 H   0  0  0  0  0  0  0  0  0  0  0  0
    5.5106    1.8319   16.4973 H   0  0  0  0  0  0  0  0  0  0  0  0
    5.5027    1.1472   21.4685 H   0  0  0  0  0  0  0  0  0  0  0  0
   10.2763   -2.6976   22.7165 H   0  0  0  0  0  0  0  0  0  0  0  0
    7.8946    0.2767   24.7322 H   0  0  0  0  0  0  0  0  0  0  0  0
   12.3529   -0.2758   21.0990 H   0  0  0  0  0  0  0  0  0  0  0  0
   14.5574   -1.6784   21.3956 H   0  0  0  0  0  0  0  0  0  0  0  0
   12.7949   -0.5584   25.4282 H   0  0  0  0  0  0  0  0  0  0  0  0
   10.7392    0.7506   24.5526 H   0  0  0  0  0  0  0  0  0  0  0  0
   11.0683    1.6002   23.0421 H   0  0  0  0  0  0  0  0  0  0  0  0
    8.4041   -1.4865   20.9550 H   0  0  0  0  0  0  0  0  0  0  0  0
    7.2704   -0.3898   21.7958 H   0  0  0  0  0  0  0  0  0  0  0  0
  1  2  1  0  0  0  0
  1  3  2  0  0  0  0
  2  6  2  0  0  0  0
  3  7  1  0  0  0  0
  4  5  1  0  0  0  0
  4 10  2  0  0  0  0
  5 11  2  0  0  0  0
  6 17  1  0  0  0  0
  7 17  2  0  0  0  0
  8 12  2  0  0  0  0
  8 18  1  0  0  0  0
  9 13  1  0  0  0  0
  9 18  2  0  0  0  0
 10 20  1  0  0  0  0
 11 21  1  0  0  0  0
 12 22  1  0  0  0  0
 13 22  2  0  0  0  0
 14 15  2  0  0  0  0
 14 19  1  0  0  0  0
 15 31  1  0  0  0  0
 16 19  2  0  0  0  0
 16 31  1  0  0  0  0
 17 18  1  0  0  0  0
 19 24  1  0  0  0  0
 20 21  2  0  0  0  0
 20 26  1  0  0  0  0
 21 28  1  0  0  0  0
 22 29  1  0  0  0  0
 23 25  1  0  0  0  0
 23 29  1  0  0  0  0
 23 30  2  0  0  0  0
 24 29  1  0  0  0  0
 25 28  1  0  0  0  0
 26 27  2  0  0  0  0
 27 28  1  0  0  0  0
  1 32  1  0  0  0  0
  2 33  1  0  0  0  0
  3 34  1  0  0  0  0
  4 35  1  0  0  0  0
  5 36  1  0  0  0  0
  6 37  1  0  0  0  0
  7 38  1  0  0  0  0
  8 39  1  0  0  0  0
  9 40  1  0  0  0  0
 10 41  1  0  0  0  0
 11 42  1  0  0  0  0
 12 43  1  0  0  0  0
 13 44  1  0  0  0  0
 14 45  1  0  0  0  0
 15 46  1  0  0  0  0
 16 47  1  0  0  0  0
 24 48  1  0  0  0  0
 24 49  1  0  0  0  0
 25 50  1  0  0  0  0
 25 51  1  0  0  0  0
M  END
> <paper/assay>
http://dx.doi.org/10.1016/j.bmcl.2013.08.112

> <IC50 (um)>
0.051

> <real_space>
FALSE

> <SCR>
FALSE

> <BB>
FALSE

> <molport_or_mcule>
FALSE

> <PDB>
FALSE

> <Hybrid2>
-10.968197

> <docked_fragment>
x0678

> <Mpro-_dock>
5.751316

> <site>
active-noncovalent

$$$$
17D
  -OEChem-04162001263D

 50 54  0     0  0  0  0  0  0999 V2000
    4.6091    1.5504   19.3325 C   0  0  0  0  0  0  0  0  0  0  0  0
    4.8949    1.2118   20.6587 C   0  0  0  0  0  0  0  0  0  0  0  0
    8.7275   -2.9957   24.4394 C   0  0  0  0  0  0  0  0  0  0  0  0
    8.3707   -0.9820   25.7259 C   0  0  0  0  0  0  0  0  0  0  0  0
    5.4958    1.2289   18.2965 C   0  0  0  0  0  0  0  0  0  0  0  0
    6.0742    0.5405   21.0003 C   0  0  0  0  0  0  0  0  0  0  0  0
    9.4837   -2.2725   23.5171 C   0  0  0  0  0  0  0  0  0  0  0  0
    9.1270   -0.2588   24.8036 C   0  0  0  0  0  0  0  0  0  0  0  0
    7.6558   -4.4452   26.7244 C   0  0  0  0  0  0  0  0  0  0  0  0
    6.3566   -2.4775   27.1986 C   0  0  0  0  0  0  0  0  0  0  0  0
   13.4577   -0.9849   22.4182 C   0  0  0  0  0  0  0  0  0  0  0  0
    6.8755   -5.1179   27.6509 C   0  0  0  0  0  0  0  0  0  0  0  0
    5.6344   -3.2384   28.1037 C   0  0  0  0  0  0  0  0  0  0  0  0
   14.5437   -1.7037   22.8673 C   0  0  0  0  0  0  0  0  0  0  0  0
   13.4430   -0.4617   24.6828 C   0  0  0  0  0  0  0  0  0  0  0  0
    8.1709   -2.3504   25.5438 C   0  0  0  0  0  0  0  0  0  0  0  0
    7.3849   -3.1000   26.4998 C   0  0  0  0  0  0  0  0  0  0  0  0
   12.8202   -0.2653   23.4698 C   0  0  0  0  0  0  0  0  0  0  0  0
    6.6816    0.5560   18.6256 C   0  0  0  0  0  0  0  0  0  0  0  0
    6.9378    0.2329   19.9511 C   0  0  0  0  0  0  0  0  0  0  0  0
    9.6836   -0.9041   23.6992 C   0  0  0  0  0  0  0  0  0  0  0  0
   10.0890   -0.0782   21.3818 C   0  0  0  0  0  0  0  0  0  0  0  0
   11.6110    0.6035   23.2765 C   0  0  0  0  0  0  0  0  0  0  0  0
    8.9121   -0.9549   20.9780 C   0  0  0  0  0  0  0  0  0  0  0  0
    5.8682   -4.5471   28.3488 N   0  0  0  0  0  0  0  0  0  0  0  0
    7.7176    0.1197   17.8427 N   0  0  0  0  0  0  0  0  0  0  0  0
    8.6123   -0.4647   18.6321 N   0  0  0  0  0  0  0  0  0  0  0  0
    8.1472   -0.3970   19.8905 N   0  0  0  0  0  0  0  0  0  0  0  0
   10.4691   -0.1535   22.7406 N   0  0  0  0  0  0  0  0  0  0  0  0
   10.6568    0.6087   20.5286 O   0  0  0  0  0  0  0  0  0  0  0  0
   14.7908   -1.5096   24.5507 S   0  0  0  0  0  0  0  0  0  0  0  0
    3.6839    2.0719   19.1005 H   0  0  0  0  0  0  0  0  0  0  0  0
    4.1869    1.4750   21.4408 H   0  0  0  0  0  0  0  0  0  0  0  0
    8.5797   -4.0618   24.2837 H   0  0  0  0  0  0  0  0  0  0  0  0
    7.9426   -0.4642   26.5808 H   0  0  0  0  0  0  0  0  0  0  0  0
    5.2657    1.4957   17.2702 H   0  0  0  0  0  0  0  0  0  0  0  0
    6.2972    0.2773   22.0277 H   0  0  0  0  0  0  0  0  0  0  0  0
    9.9108   -2.7854   22.6590 H   0  0  0  0  0  0  0  0  0  0  0  0
    9.2749    0.8077   24.9541 H   0  0  0  0  0  0  0  0  0  0  0  0
    8.4506   -4.9652   26.1994 H   0  0  0  0  0  0  0  0  0  0  0  0
    6.1161   -1.4298   27.0492 H   0  0  0  0  0  0  0  0  0  0  0  0
   13.1391   -0.9788   21.3834 H   0  0  0  0  0  0  0  0  0  0  0  0
    7.0477   -6.1680   27.8638 H   0  0  0  0  0  0  0  0  0  0  0  0
    4.8215   -2.8001   28.6731 H   0  0  0  0  0  0  0  0  0  0  0  0
   15.2033   -2.3339   22.2878 H   0  0  0  0  0  0  0  0  0  0  0  0
   13.1737   -0.0429   25.6425 H   0  0  0  0  0  0  0  0  0  0  0  0
   11.3021    1.0522   24.2270 H   0  0  0  0  0  0  0  0  0  0  0  0
   11.8236    1.4242   22.5834 H   0  0  0  0  0  0  0  0  0  0  0  0
    9.2666   -1.9392   20.6538 H   0  0  0  0  0  0  0  0  0  0  0  0
    8.2261   -1.0761   21.8232 H   0  0  0  0  0  0  0  0  0  0  0  0
  1  2  1  0  0  0  0
  1  5  2  0  0  0  0
  2  6  2  0  0  0  0
  3  7  2  0  0  0  0
  3 16  1  0  0  0  0
  4  8  1  0  0  0  0
  4 16  2  0  0  0  0
  5 19  1  0  0  0  0
  6 20  1  0  0  0  0
  7 21  1  0  0  0  0
  8 21  2  0  0  0  0
  9 12  2  0  0  0  0
  9 17  1  0  0  0  0
 10 13  1  0  0  0  0
 10 17  2  0  0  0  0
 11 14  2  0  0  0  0
 11 18  1  0  0  0  0
 12 25  1  0  0  0  0
 13 25  2  0  0  0  0
 14 31  1  0  0  0  0
 15 18  2  0  0  0  0
 15 31  1  0  0  0  0
 16 17  1  0  0  0  0
 18 23  1  0  0  0  0
 19 20  2  0  0  0  0
 19 26  1  0  0  0  0
 20 28  1  0  0  0  0
 21 29  1  0  0  0  0
 22 24  1  0  0  0  0
 22 29  1  0  0  0  0
 22 30  2  0  0  0  0
 23 29  1  0  0  0  0
 24 28  1  0  0  0  0
 26 27  2  0  0  0  0
 27 28  1  0  0  0  0
  1 32  1  0  0  0  0
  2 33  1  0  0  0  0
  3 34  1  0  0  0  0
  4 35  1  0  0  0  0
  5 36  1  0  0  0  0
  6 37  1  0  0  0  0
  7 38  1  0  0  0  0
  8 39  1  0  0  0  0
  9 40  1  0  0  0  0
 10 41  1  0  0  0  0
 11 42  1  0  0  0  0
 12 43  1  0  0  0  0
 13 44  1  0  0  0  0
 14 45  1  0  0  0  0
 15 46  1  0  0  0  0
 23 47  1  0  0  0  0
 23 48  1  0  0  0  0
 24 49  1  0  0  0  0
 24 50  1  0  0  0  0
M  END
> <paper/assay>
http://dx.doi.org/10.1016/j.bmcl.2013.08.112

> <IC50 (um)>
2

> <real_space>
FALSE

> <SCR>
FALSE

> <BB>
FALSE

> <molport_or_mcule>
FALSE

> <PDB>
FALSE

> <Hybrid2>
-10.789346

> <docked_fragment>
x0678

> <Mpro-_dock>
4.372149

> <site>
active-noncovalent

$$$$
2083510
  -OEChem-04162001263D

 44 47  0     0  0  0  0  0  0999 V2000
    7.6779   -4.7348   26.9593 C   0  0  0  0  0  0  0  0  0  0  0  0
    4.1379    1.3702   22.5359 C   0  0  0  0  0  0  0  0  0  0  0  0
    6.6961   -4.0213   26.2719 C   0  0  0  0  0  0  0  0  0  0  0  0
    8.9200   -4.9607   26.3661 C   0  0  0  0  0  0  0  0  0  0  0  0
    3.1236    1.6334   21.6185 C   0  0  0  0  0  0  0  0  0  0  0  0
    5.4240    1.0455   22.0929 C   0  0  0  0  0  0  0  0  0  0  0  0
    6.9563   -3.5338   24.9912 C   0  0  0  0  0  0  0  0  0  0  0  0
    9.1802   -4.4732   25.0854 C   0  0  0  0  0  0  0  0  0  0  0  0
    3.3912    1.5733   20.2539 C   0  0  0  0  0  0  0  0  0  0  0  0
    5.7127    0.9792   20.7235 C   0  0  0  0  0  0  0  0  0  0  0  0
    8.1984   -3.7597   24.3979 C   0  0  0  0  0  0  0  0  0  0  0  0
    4.6781    1.2480   19.8133 C   0  0  0  0  0  0  0  0  0  0  0  0
    7.2509    0.5964   18.8644 C   0  0  0  0  0  0  0  0  0  0  0  0
    7.0412    0.6429   20.1886 C   0  0  0  0  0  0  0  0  0  0  0  0
    6.1594    0.8798   17.8943 C   0  0  0  0  0  0  0  0  0  0  0  0
    8.2270    0.3340   21.0128 C   0  0  0  0  0  0  0  0  0  0  0  0
    7.4071   -3.1101   22.1153 C   0  0  0  0  0  0  0  0  0  0  0  0
    9.6577   -2.4744   22.8526 C   0  0  0  0  0  0  0  0  0  0  0  0
    6.9820   -1.6420   22.0477 C   0  0  0  0  0  0  0  0  0  0  0  0
    9.2596   -0.9979   22.8115 C   0  0  0  0  0  0  0  0  0  0  0  0
    4.9294    1.1913   18.4312 N   0  0  0  0  0  0  0  0  0  0  0  0
    8.4581   -3.2738   23.1213 N   0  0  0  0  0  0  0  0  0  0  0  0
    8.1488   -0.7545   21.8797 N   0  0  0  0  0  0  0  0  0  0  0  0
    6.3828    0.8272   16.6867 O   0  0  0  0  0  0  0  0  0  0  0  0
    9.2130    1.0626   20.8886 O   0  0  0  0  0  0  0  0  0  0  0  0
    7.4751   -5.1146   27.9566 H   0  0  0  0  0  0  0  0  0  0  0  0
    3.9293    1.4172   23.6010 H   0  0  0  0  0  0  0  0  0  0  0  0
    5.7292   -3.8456   26.7338 H   0  0  0  0  0  0  0  0  0  0  0  0
    9.6844   -5.5164   26.9016 H   0  0  0  0  0  0  0  0  0  0  0  0
    2.1264    1.8852   21.9669 H   0  0  0  0  0  0  0  0  0  0  0  0
    6.1823    0.8483   22.8447 H   0  0  0  0  0  0  0  0  0  0  0  0
    6.1845   -2.9791   24.4639 H   0  0  0  0  0  0  0  0  0  0  0  0
   10.1519   -4.6552   24.6332 H   0  0  0  0  0  0  0  0  0  0  0  0
    2.5949    1.7808   19.5440 H   0  0  0  0  0  0  0  0  0  0  0  0
    8.2173    0.3522   18.4336 H   0  0  0  0  0  0  0  0  0  0  0  0
    6.5397   -3.7199   22.3766 H   0  0  0  0  0  0  0  0  0  0  0  0
    7.7719   -3.4385   21.1391 H   0  0  0  0  0  0  0  0  0  0  0  0
   10.1028   -2.7460   21.8978 H   0  0  0  0  0  0  0  0  0  0  0  0
   10.3903   -2.6489   23.6365 H   0  0  0  0  0  0  0  0  0  0  0  0
    6.3024   -1.5034   21.2123 H   0  0  0  0  0  0  0  0  0  0  0  0
    6.4801   -1.3460   22.9662 H   0  0  0  0  0  0  0  0  0  0  0  0
    8.9813   -0.6614   23.8160 H   0  0  0  0  0  0  0  0  0  0  0  0
   10.1016   -0.3754   22.4849 H   0  0  0  0  0  0  0  0  0  0  0  0
    4.1598    1.3893   17.7979 H   0  0  0  0  0  0  0  0  0  0  0  0
  1  3  1  0  0  0  0
  1  4  2  0  0  0  0
  2  5  1  0  0  0  0
  2  6  2  0  0  0  0
  3  7  2  0  0  0  0
  4  8  1  0  0  0  0
  5  9  2  0  0  0  0
  6 10  1  0  0  0  0
  7 11  1  0  0  0  0
  8 11  2  0  0  0  0
  9 12  1  0  0  0  0
 10 12  2  0  0  0  0
 10 14  1  0  0  0  0
 11 22  1  0  0  0  0
 12 21  1  0  0  0  0
 13 14  2  0  0  0  0
 13 15  1  0  0  0  0
 14 16  1  0  0  0  0
 15 21  1  0  0  0  0
 15 24  2  0  0  0  0
 16 23  1  0  0  0  0
 16 25  2  0  0  0  0
 17 19  1  0  0  0  0
 17 22  1  0  0  0  0
 18 20  1  0  0  0  0
 18 22  1  0  0  0  0
 19 23  1  0  0  0  0
 20 23  1  0  0  0  0
  1 26  1  0  0  0  0
  2 27  1  0  0  0  0
  3 28  1  0  0  0  0
  4 29  1  0  0  0  0
  5 30  1  0  0  0  0
  6 31  1  0  0  0  0
  7 32  1  0  0  0  0
  8 33  1  0  0  0  0
  9 34  1  0  0  0  0
 13 35  1  0  0  0  0
 17 36  1  0  0  0  0
 17 37  1  0  0  0  0
 18 38  1  0  0  0  0
 18 39  1  0  0  0  0
 19 40  1  0  0  0  0
 19 41  1  0  0  0  0
 20 42  1  0  0  0  0
 20 43  1  0  0  0  0
 21 44  1  0  0  0  0
M  END
> <paper/assay>
https://pubchem.ncbi.nlm.nih.gov/bioassay/1890

> <IC50 (um)>
9.945

> <real_space>
FALSE

> <SCR>
Z27770229

> <BB>
FALSE

> <molport_or_mcule>
['https://mcule.com/MCULE-5436428525/', 'https://www.molport.com/shop/molecule-link/MolPort-004-047-361', 'https://www.molport.com/shop/molecule-link/MolPort-006-318-240']

> <PDB>
FALSE

> <Hybrid2>
-10.749320

> <docked_fragment>
x0107

> <Mpro-_dock>
2.865086

> <site>
active-noncovalent

$$$$
10
  -OEChem-04162001263D

 28 30  0     0  0  0  0  0  0999 V2000
   13.3568   -2.4787   22.8271 C   0  0  0  0  0  0  0  0  0  0  0  0
   12.3699   -1.8847   22.0430 C   0  0  0  0  0  0  0  0  0  0  0  0
   13.9252   -1.7985   23.9079 C   0  0  0  0  0  0  0  0  0  0  0  0
   12.2704    1.4116   23.9561 C   0  0  0  0  0  0  0  0  0  0  0  0
    7.7879   -0.0690   20.7043 C   0  0  0  0  0  0  0  0  0  0  0  0
    9.1903   -0.3065   18.7981 C   0  0  0  0  0  0  0  0  0  0  0  0
    7.0717    0.5373   18.5190 C   0  0  0  0  0  0  0  0  0  0  0  0
   13.1191    1.5492   25.0302 C   0  0  0  0  0  0  0  0  0  0  0  0
   12.4789    0.1174   23.4024 C   0  0  0  0  0  0  0  0  0  0  0  0
   11.9207   -0.5879   22.3178 C   0  0  0  0  0  0  0  0  0  0  0  0
   13.4663   -0.5029   24.1709 C   0  0  0  0  0  0  0  0  0  0  0  0
    9.0118   -0.4488   20.1648 C   0  0  0  0  0  0  0  0  0  0  0  0
    6.7939    0.4343   19.8725 C   0  0  0  0  0  0  0  0  0  0  0  0
   10.8910    0.0128   21.4869 C   0  0  0  0  0  0  0  0  0  0  0  0
    8.2484    0.1785   17.9583 N   0  0  0  0  0  0  0  0  0  0  0  0
   13.8365    0.3895   25.1516 N   0  0  0  0  0  0  0  0  0  0  0  0
   10.7873    1.2288   21.2686 O   0  0  0  0  0  0  0  0  0  0  0  0
   10.0302   -0.9568   20.9758 O   0  0  0  0  0  0  0  0  0  0  0  0
    5.2719    0.9124   20.5022 Cl  0  0  0  0  0  0  0  0  0  0  0  0
   13.6911   -3.4867   22.5949 H   0  0  0  0  0  0  0  0  0  0  0  0
   11.9506   -2.4428   21.2087 H   0  0  0  0  0  0  0  0  0  0  0  0
   14.6936   -2.2615   24.5176 H   0  0  0  0  0  0  0  0  0  0  0  0
   11.5757    2.1645   23.6098 H   0  0  0  0  0  0  0  0  0  0  0  0
    7.6156   -0.1685   21.7732 H   0  0  0  0  0  0  0  0  0  0  0  0
   10.1251   -0.5865   18.3228 H   0  0  0  0  0  0  0  0  0  0  0  0
    6.3380    0.9233   17.8178 H   0  0  0  0  0  0  0  0  0  0  0  0
   13.2756    2.3678   25.7183 H   0  0  0  0  0  0  0  0  0  0  0  0
   14.5371    0.2134   25.8585 H   0  0  0  0  0  0  0  0  0  0  0  0
  1  2  2  0  0  0  0
  1  3  1  0  0  0  0
  2 10  1  0  0  0  0
  3 11  2  0  0  0  0
  4  8  2  0  0  0  0
  4  9  1  0  0  0  0
  5 12  2  0  0  0  0
  5 13  1  0  0  0  0
  6 12  1  0  0  0  0
  6 15  2  0  0  0  0
  7 13  2  0  0  0  0
  7 15  1  0  0  0  0
  8 16  1  0  0  0  0
  9 10  2  0  0  0  0
  9 11  1  0  0  0  0
 10 14  1  0  0  0  0
 11 16  1  0  0  0  0
 12 18  1  0  0  0  0
 13 19  1  0  0  0  0
 14 17  2  0  0  0  0
 14 18  1  0  0  0  0
  1 20  1  0  0  0  0
  2 21  1  0  0  0  0
  3 22  1  0  0  0  0
  4 23  1  0  0  0  0
  5 24  1  0  0  0  0
  6 25  1  0  0  0  0
  7 26  1  0  0  0  0
  8 27  1  0  0  0  0
 16 28  1  0  0  0  0
M  END
> <paper/assay>
http://10.1016/j.bmcl.2008.08.082

> <IC50 (um)>
0.03

> <real_space>
FALSE

> <SCR>
FALSE

> <BB>
FALSE

> <molport_or_mcule>
FALSE

> <PDB>
FALSE

> <Hybrid2>
-10.696278

> <docked_fragment>
x0678

> <Mpro-_dock>
-1.274338

> <site>
active-noncovalent

$$$$
17B
  -OEChem-04162001263D

 50 54  0     0  0  0  0  0  0999 V2000
    4.7454    1.9689   17.8516 C   0  0  0  0  0  0  0  0  0  0  0  0
    4.6688    1.8192   19.2397 C   0  0  0  0  0  0  0  0  0  0  0  0
    6.5509   -6.3363   25.9765 C   0  0  0  0  0  0  0  0  0  0  0  0
    7.1871   -5.3592   25.2190 C   0  0  0  0  0  0  0  0  0  0  0  0
    8.9836   -3.3492   24.0759 C   0  0  0  0  0  0  0  0  0  0  0  0
    7.5336   -1.6964   25.0774 C   0  0  0  0  0  0  0  0  0  0  0  0
    5.8260    1.4499   17.1264 C   0  0  0  0  0  0  0  0  0  0  0  0
    5.6660    1.1471   19.9552 C   0  0  0  0  0  0  0  0  0  0  0  0
    9.6152   -2.3480   23.3381 C   0  0  0  0  0  0  0  0  0  0  0  0
    8.1652   -0.6952   24.3396 C   0  0  0  0  0  0  0  0  0  0  0  0
   12.9844   -0.4656   24.4401 C   0  0  0  0  0  0  0  0  0  0  0  0
    6.0347   -5.9680   27.2085 C   0  0  0  0  0  0  0  0  0  0  0  0
    6.7371   -3.7955   26.9535 C   0  0  0  0  0  0  0  0  0  0  0  0
   14.1334   -1.1411   24.0921 C   0  0  0  0  0  0  0  0  0  0  0  0
   12.8715   -0.3877   22.1199 C   0  0  0  0  0  0  0  0  0  0  0  0
    7.9428   -3.0234   24.9455 C   0  0  0  0  0  0  0  0  0  0  0  0
    7.2863   -4.0620   25.7097 C   0  0  0  0  0  0  0  0  0  0  0  0
   12.2533   -0.0292   23.2977 C   0  0  0  0  0  0  0  0  0  0  0  0
    6.8323    0.7739   17.8317 C   0  0  0  0  0  0  0  0  0  0  0  0
    6.7287    0.6411   19.2096 C   0  0  0  0  0  0  0  0  0  0  0  0
    9.2061   -1.0210   23.4700 C   0  0  0  0  0  0  0  0  0  0  0  0
    9.3970    0.3866   21.4209 C   0  0  0  0  0  0  0  0  0  0  0  0
   10.9616    0.7326   23.3711 C   0  0  0  0  0  0  0  0  0  0  0  0
    8.2817   -0.4790   20.8518 C   0  0  0  0  0  0  0  0  0  0  0  0
    6.1117   -4.7183   27.7183 N   0  0  0  0  0  0  0  0  0  0  0  0
    7.9854    0.1719   17.4022 N   0  0  0  0  0  0  0  0  0  0  0  0
    8.6063   -0.3325   18.4630 N   0  0  0  0  0  0  0  0  0  0  0  0
    7.8565   -0.0524   19.5418 N   0  0  0  0  0  0  0  0  0  0  0  0
    9.8625    0.0184   22.7031 N   0  0  0  0  0  0  0  0  0  0  0  0
    9.8489    1.3165   20.7476 O   0  0  0  0  0  0  0  0  0  0  0  0
   14.3271   -1.2470   22.3940 S   0  0  0  0  0  0  0  0  0  0  0  0
    3.9538    2.4965   17.3255 H   0  0  0  0  0  0  0  0  0  0  0  0
    3.8175    2.2332   19.7746 H   0  0  0  0  0  0  0  0  0  0  0  0
    6.4607   -7.3539   25.6144 H   0  0  0  0  0  0  0  0  0  0  0  0
    7.6007   -5.6229   24.2488 H   0  0  0  0  0  0  0  0  0  0  0  0
    9.3131   -4.3793   23.9619 H   0  0  0  0  0  0  0  0  0  0  0  0
    6.7232   -1.4264   25.7501 H   0  0  0  0  0  0  0  0  0  0  0  0
    5.8770    1.5708   16.0493 H   0  0  0  0  0  0  0  0  0  0  0  0
    5.6082    1.0302   21.0311 H   0  0  0  0  0  0  0  0  0  0  0  0
   10.4237   -2.6138   22.6618 H   0  0  0  0  0  0  0  0  0  0  0  0
    7.8371    0.3355   24.4486 H   0  0  0  0  0  0  0  0  0  0  0  0
   12.6866   -0.2945   25.4669 H   0  0  0  0  0  0  0  0  0  0  0  0
    5.5294   -6.6934   27.8380 H   0  0  0  0  0  0  0  0  0  0  0  0
    6.7802   -2.8028   27.3925 H   0  0  0  0  0  0  0  0  0  0  0  0
   14.8687   -1.5769   24.7537 H   0  0  0  0  0  0  0  0  0  0  0  0
   12.5422   -0.1871   21.1097 H   0  0  0  0  0  0  0  0  0  0  0  0
   10.6707    0.8997   24.4140 H   0  0  0  0  0  0  0  0  0  0  0  0
   11.0579    1.7158   22.8988 H   0  0  0  0  0  0  0  0  0  0  0  0
    8.6170   -1.5179   20.7618 H   0  0  0  0  0  0  0  0  0  0  0  0
    7.4027   -0.4362   21.5039 H   0  0  0  0  0  0  0  0  0  0  0  0
  1  2  1  0  0  0  0
  1  7  2  0  0  0  0
  2  8  2  0  0  0  0
  3  4  2  0  0  0  0
  3 12  1  0  0  0  0
  4 17  1  0  0  0  0
  5  9  2  0  0  0  0
  5 16  1  0  0  0  0
  6 10  1  0  0  0  0
  6 16  2  0  0  0  0
  7 19  1  0  0  0  0
  8 20  1  0  0  0  0
  9 21  1  0  0  0  0
 10 21  2  0  0  0  0
 11 14  2  0  0  0  0
 11 18  1  0  0  0  0
 12 25  2  0  0  0  0
 13 17  2  0  0  0  0
 13 25  1  0  0  0  0
 14 31  1  0  0  0  0
 15 18  2  0  0  0  0
 15 31  1  0  0  0  0
 16 17  1  0  0  0  0
 18 23  1  0  0  0  0
 19 20  2  0  0  0  0
 19 26  1  0  0  0  0
 20 28  1  0  0  0  0
 21 29  1  0  0  0  0
 22 24  1  0  0  0  0
 22 29  1  0  0  0  0
 22 30  2  0  0  0  0
 23 29  1  0  0  0  0
 24 28  1  0  0  0  0
 26 27  2  0  0  0  0
 27 28  1  0  0  0  0
  1 32  1  0  0  0  0
  2 33  1  0  0  0  0
  3 34  1  0  0  0  0
  4 35  1  0  0  0  0
  5 36  1  0  0  0  0
  6 37  1  0  0  0  0
  7 38  1  0  0  0  0
  8 39  1  0  0  0  0
  9 40  1  0  0  0  0
 10 41  1  0  0  0  0
 11 42  1  0  0  0  0
 12 43  1  0  0  0  0
 13 44  1  0  0  0  0
 14 45  1  0  0  0  0
 15 46  1  0  0  0  0
 23 47  1  0  0  0  0
 23 48  1  0  0  0  0
 24 49  1  0  0  0  0
 24 50  1  0  0  0  0
M  END
> <paper/assay>
http://dx.doi.org/10.1016/j.bmcl.2013.08.112

> <IC50 (um)>
0.97

> <real_space>
FALSE

> <SCR>
FALSE

> <BB>
FALSE

> <molport_or_mcule>
FALSE

> <PDB>
FALSE

> <Hybrid2>
-10.597997

> <docked_fragment>
x0678

> <Mpro-_dock>
3.918781

> <site>
active-noncovalent

$$$$
16J
  -OEChem-04162001263D

 46 49  0     0  0  0  0  0  0999 V2000
    4.2605    1.2267   19.5102 C   0  0  0  0  0  0  0  0  0  0  0  0
    4.6426    1.2163   20.8551 C   0  0  0  0  0  0  0  0  0  0  0  0
    5.1088    0.7277   18.5130 C   0  0  0  0  0  0  0  0  0  0  0  0
    5.8836    0.7082   21.2550 C   0  0  0  0  0  0  0  0  0  0  0  0
    9.4362   -4.8567   25.8267 C   0  0  0  0  0  0  0  0  0  0  0  0
    7.1041   -4.4402   25.3526 C   0  0  0  0  0  0  0  0  0  0  0  0
    9.7982   -3.8550   24.9260 C   0  0  0  0  0  0  0  0  0  0  0  0
    7.4660   -3.4385   24.4519 C   0  0  0  0  0  0  0  0  0  0  0  0
   10.3108    1.2184   24.1359 C   0  0  0  0  0  0  0  0  0  0  0  0
    9.9046    2.1081   25.1059 C   0  0  0  0  0  0  0  0  0  0  0  0
    9.4499   -0.2237   25.7427 C   0  0  0  0  0  0  0  0  0  0  0  0
   10.0473   -0.1325   24.5046 C   0  0  0  0  0  0  0  0  0  0  0  0
    6.3555    0.2155   18.9007 C   0  0  0  0  0  0  0  0  0  0  0  0
    6.7072    0.2184   20.2435 C   0  0  0  0  0  0  0  0  0  0  0  0
    8.0891   -5.1494   26.0399 C   0  0  0  0  0  0  0  0  0  0  0  0
    8.8131   -3.1459   24.2387 C   0  0  0  0  0  0  0  0  0  0  0  0
    8.3868   -1.8066   22.1793 C   0  0  0  0  0  0  0  0  0  0  0  0
    6.5007   -6.1371   27.6912 C   0  0  0  0  0  0  0  0  0  0  0  0
   10.3831   -1.3160   23.6440 C   0  0  0  0  0  0  0  0  0  0  0  0
    8.8145   -0.5906   21.3696 C   0  0  0  0  0  0  0  0  0  0  0  0
    7.3748   -0.3290   18.1649 N   0  0  0  0  0  0  0  0  0  0  0  0
    8.3510   -0.6665   19.0005 N   0  0  0  0  0  0  0  0  0  0  0  0
    7.9528   -0.3397   20.2411 N   0  0  0  0  0  0  0  0  0  0  0  0
    7.7229   -6.1635   26.9491 N   0  0  0  0  0  0  0  0  0  0  0  0
    9.1892   -2.1053   23.3032 N   0  0  0  0  0  0  0  0  0  0  0  0
    7.3774   -2.4337   21.8477 O   0  0  0  0  0  0  0  0  0  0  0  0
    9.2088    1.3149   26.4546 S   0  0  0  0  0  0  0  0  0  0  0  0
    3.2893    1.6286   19.2326 H   0  0  0  0  0  0  0  0  0  0  0  0
    3.9623    1.6107   21.6060 H   0  0  0  0  0  0  0  0  0  0  0  0
    4.8038    0.7399   17.4718 H   0  0  0  0  0  0  0  0  0  0  0  0
    6.1813    0.6994   22.2971 H   0  0  0  0  0  0  0  0  0  0  0  0
   10.2122   -5.4036   26.3560 H   0  0  0  0  0  0  0  0  0  0  0  0
    6.0514   -4.6601   25.5109 H   0  0  0  0  0  0  0  0  0  0  0  0
   10.8511   -3.6359   24.7665 H   0  0  0  0  0  0  0  0  0  0  0  0
    6.6910   -2.8922   23.9204 H   0  0  0  0  0  0  0  0  0  0  0  0
   10.7749    1.5263   23.2074 H   0  0  0  0  0  0  0  0  0  0  0  0
    9.9837    3.1859   25.0875 H   0  0  0  0  0  0  0  0  0  0  0  0
    9.1431   -1.1180   26.2671 H   0  0  0  0  0  0  0  0  0  0  0  0
    5.9336   -5.2307   27.4325 H   0  0  0  0  0  0  0  0  0  0  0  0
    5.9026   -7.0266   27.4442 H   0  0  0  0  0  0  0  0  0  0  0  0
    6.7256   -6.1339   28.7680 H   0  0  0  0  0  0  0  0  0  0  0  0
   10.8518   -0.9923   22.7082 H   0  0  0  0  0  0  0  0  0  0  0  0
   11.0911   -1.9812   24.1493 H   0  0  0  0  0  0  0  0  0  0  0  0
    8.7976    0.3072   21.9968 H   0  0  0  0  0  0  0  0  0  0  0  0
    9.8252   -0.7387   20.9744 H   0  0  0  0  0  0  0  0  0  0  0  0
    8.3651   -6.9249   27.0633 H   0  0  0  0  0  0  0  0  0  0  0  0
  1  2  1  0  0  0  0
  1  3  2  0  0  0  0
  2  4  2  0  0  0  0
  3 13  1  0  0  0  0
  4 14  1  0  0  0  0
  5  7  2  0  0  0  0
  5 15  1  0  0  0  0
  6  8  1  0  0  0  0
  6 15  2  0  0  0  0
  7 16  1  0  0  0  0
  8 16  2  0  0  0  0
  9 10  2  0  0  0  0
  9 12  1  0  0  0  0
 10 27  1  0  0  0  0
 11 12  2  0  0  0  0
 11 27  1  0  0  0  0
 12 19  1  0  0  0  0
 13 14  2  0  0  0  0
 13 21  1  0  0  0  0
 14 23  1  0  0  0  0
 15 24  1  0  0  0  0
 16 25  1  0  0  0  0
 17 20  1  0  0  0  0
 17 25  1  0  0  0  0
 17 26  2  0  0  0  0
 18 24  1  0  0  0  0
 19 25  1  0  0  0  0
 20 23  1  0  0  0  0
 21 22  2  0  0  0  0
 22 23  1  0  0  0  0
  1 28  1  0  0  0  0
  2 29  1  0  0  0  0
  3 30  1  0  0  0  0
  4 31  1  0  0  0  0
  5 32  1  0  0  0  0
  6 33  1  0  0  0  0
  7 34  1  0  0  0  0
  8 35  1  0  0  0  0
  9 36  1  0  0  0  0
 10 37  1  0  0  0  0
 11 38  1  0  0  0  0
 18 39  1  0  0  0  0
 18 40  1  0  0  0  0
 18 41  1  0  0  0  0
 19 42  1  0  0  0  0
 19 43  1  0  0  0  0
 20 44  1  0  0  0  0
 20 45  1  0  0  0  0
 24 46  1  0  0  0  0
M  END
> <paper/assay>
http://dx.doi.org/10.1016/j.bmcl.2013.08.112

> <IC50 (um)>
2.1

> <real_space>
FALSE

> <SCR>
FALSE

> <BB>
FALSE

> <molport_or_mcule>
FALSE

> <PDB>
FALSE

> <Hybrid2>
-10.554366

> <docked_fragment>
x0107

> <Mpro-_dock>
1.289582

> <site>
active-noncovalent

$$$$
6602830
  -OEChem-04162001263D

 24 25  0     0  0  0  0  0  0999 V2000
    6.0384    0.7875   19.2753 C   0  0  0  0  0  0  0  0  0  0  0  0
   11.6822    0.7488   23.1617 C   0  0  0  0  0  0  0  0  0  0  0  0
   11.0925   -1.4484   22.3483 C   0  0  0  0  0  0  0  0  0  0  0  0
    6.7732    0.3476   20.3707 C   0  0  0  0  0  0  0  0  0  0  0  0
   12.8527    0.2298   23.7150 C   0  0  0  0  0  0  0  0  0  0  0  0
   12.2631   -1.9674   22.9015 C   0  0  0  0  0  0  0  0  0  0  0  0
    6.6488    0.7605   18.0318 C   0  0  0  0  0  0  0  0  0  0  0  0
    8.5966   -0.0871   18.9069 C   0  0  0  0  0  0  0  0  0  0  0  0
   10.8020   -0.0904   22.4784 C   0  0  0  0  0  0  0  0  0  0  0  0
    8.0775   -0.0996   20.1916 C   0  0  0  0  0  0  0  0  0  0  0  0
   13.1432   -1.1282   23.5849 C   0  0  0  0  0  0  0  0  0  0  0  0
    9.5817    0.4504   21.9012 C   0  0  0  0  0  0  0  0  0  0  0  0
    7.9134    0.3330   17.8186 N   0  0  0  0  0  0  0  0  0  0  0  0
    9.2439    1.6408   21.9675 O   0  0  0  0  0  0  0  0  0  0  0  0
    8.8399   -0.5480   21.2735 O   0  0  0  0  0  0  0  0  0  0  0  0
   14.5879   -1.7680   24.2662 Cl  0  0  0  0  0  0  0  0  0  0  0  0
    5.0203    1.1408   19.3918 H   0  0  0  0  0  0  0  0  0  0  0  0
   11.4654    1.8084   23.2695 H   0  0  0  0  0  0  0  0  0  0  0  0
   10.4141   -2.1115   21.8177 H   0  0  0  0  0  0  0  0  0  0  0  0
    6.3253    0.3560   21.3603 H   0  0  0  0  0  0  0  0  0  0  0  0
   13.5299    0.8953   24.2443 H   0  0  0  0  0  0  0  0  0  0  0  0
   12.4761   -3.0277   22.7924 H   0  0  0  0  0  0  0  0  0  0  0  0
    6.1172    1.0934   17.1462 H   0  0  0  0  0  0  0  0  0  0  0  0
    9.6091   -0.4245   18.7090 H   0  0  0  0  0  0  0  0  0  0  0  0
  1  4  2  0  0  0  0
  1  7  1  0  0  0  0
  2  5  2  0  0  0  0
  2  9  1  0  0  0  0
  3  6  1  0  0  0  0
  3  9  2  0  0  0  0
  4 10  1  0  0  0  0
  5 11  1  0  0  0  0
  6 11  2  0  0  0  0
  7 13  2  0  0  0  0
  8 10  2  0  0  0  0
  8 13  1  0  0  0  0
  9 12  1  0  0  0  0
 10 15  1  0  0  0  0
 11 16  1  0  0  0  0
 12 14  2  0  0  0  0
 12 15  1  0  0  0  0
  1 17  1  0  0  0  0
  2 18  1  0  0  0  0
  3 19  1  0  0  0  0
  4 20  1  0  0  0  0
  5 21  1  0  0  0  0
  6 22  1  0  0  0  0
  7 23  1  0  0  0  0
  8 24  1  0  0  0  0
M  END
> <paper/assay>
https://pubchem.ncbi.nlm.nih.gov/bioassay/1890

> <IC50 (um)>
6.31

> <real_space>
FALSE

> <SCR>
FALSE

> <BB>
FALSE

> <molport_or_mcule>
['https://mcule.com/MCULE-4819550481/', 'https://mcule.com/MCULE-5985438179/', 'https://www.molport.com/shop/molecule-link/MolPort-000-705-678', 'https://www.molport.com/shop/molecule-link/MolPort-002-087-861']

> <PDB>
FALSE

> <Hybrid2>
-10.500870

> <docked_fragment>
x0678

> <Mpro-_dock>
-0.798607

> <site>
active-noncovalent

$$$$
12d
  -OEChem-04162001263D

 33 35  0     1  0  0  0  0  0999 V2000
    7.8715   -3.6920   26.7664 C   0  0  0  0  0  0  0  0  0  0  0  0
    6.3472   -3.1607   24.9688 C   0  0  0  0  0  0  0  0  0  0  0  0
    7.1064   -4.8143   27.0835 C   0  0  0  0  0  0  0  0  0  0  0  0
    5.5821   -4.2831   25.2859 C   0  0  0  0  0  0  0  0  0  0  0  0
    9.0758   -0.8500   26.1103 C   0  0  0  0  0  0  0  0  0  0  0  0
    9.5801    0.1004   25.1906 C   0  0  0  0  0  0  0  0  0  0  0  0
    6.8472    0.4436   20.9077 C   0  0  0  0  0  0  0  0  0  0  0  0
    8.1641   -0.2959   19.0704 C   0  0  0  0  0  0  0  0  0  0  0  0
    6.0833    0.5871   18.6600 C   0  0  0  0  0  0  0  0  0  0  0  0
    7.4919   -2.8651   25.7091 C   0  0  0  0  0  0  0  0  0  0  0  0
    8.0290   -0.1184   20.4379 C   0  0  0  0  0  0  0  0  0  0  0  0
    5.9617   -5.1099   26.3432 C   0  0  0  0  0  0  0  0  0  0  0  0
    5.8506    0.8058   20.0082 C   0  0  0  0  0  0  0  0  0  0  0  0
    8.2824   -1.7042   25.3803 C   0  0  0  0  0  0  0  0  0  0  0  0
    9.0592   -0.2411   23.9642 C   0  0  0  0  0  0  0  0  0  0  0  0
    9.2136    0.3459   22.6770 C   0  0  0  0  0  0  0  0  0  0  0  0
    9.1324   -0.5223   21.3882 C   0  0  1  0  0  0  0  0  0  0  0  0
    7.2183    0.0436   18.1661 N   0  0  0  0  0  0  0  0  0  0  0  0
    9.4493    1.5785   22.5437 O   0  0  0  0  0  0  0  0  0  0  0  0
    8.2671   -1.3400   24.0712 O   0  0  0  0  0  0  0  0  0  0  0  0
    9.0231   -1.8376   21.7435 F   0  0  0  0  0  0  0  0  0  0  0  0
    5.0187   -6.4958   26.7326 Cl  0  0  0  0  0  0  0  0  0  0  0  0
    4.2353    1.5672   20.6052 Br  0  0  0  0  0  0  0  0  0  0  0  0
    8.7611   -3.4748   27.3527 H   0  0  0  0  0  0  0  0  0  0  0  0
    6.0386   -2.5258   24.1415 H   0  0  0  0  0  0  0  0  0  0  0  0
    7.4140   -5.4495   27.9105 H   0  0  0  0  0  0  0  0  0  0  0  0
    4.6923   -4.5009   24.7009 H   0  0  0  0  0  0  0  0  0  0  0  0
    9.2686   -0.9007   27.1725 H   0  0  0  0  0  0  0  0  0  0  0  0
   10.2402    0.9301   25.4005 H   0  0  0  0  0  0  0  0  0  0  0  0
    6.7101    0.5965   21.9756 H   0  0  0  0  0  0  0  0  0  0  0  0
    9.0642   -0.7294   18.6455 H   0  0  0  0  0  0  0  0  0  0  0  0
    5.3456    0.8462   17.9063 H   0  0  0  0  0  0  0  0  0  0  0  0
   10.0930   -0.4209   20.8692 H   0  0  0  0  0  0  0  0  0  0  0  0
  1  3  2  0  0  0  0
  1 10  1  0  0  0  0
  2  4  1  0  0  0  0
  2 10  2  0  0  0  0
  3 12  1  0  0  0  0
  4 12  2  0  0  0  0
  5  6  1  0  0  0  0
  5 14  2  0  0  0  0
  6 15  2  0  0  0  0
  7 11  2  0  0  0  0
  7 13  1  0  0  0  0
  8 11  1  0  0  0  0
  8 18  2  0  0  0  0
  9 13  2  0  0  0  0
  9 18  1  0  0  0  0
 10 14  1  0  0  0  0
 11 17  1  0  0  0  0
 12 22  1  0  0  0  0
 13 23  1  0  0  0  0
 14 20  1  0  0  0  0
 15 16  1  0  0  0  0
 15 20  1  0  0  0  0
 16 17  1  0  0  0  0
 16 19  2  0  0  0  0
 17 21  1  0  0  0  0
  1 24  1  0  0  0  0
  2 25  1  0  0  0  0
  3 26  1  0  0  0  0
  4 27  1  0  0  0  0
  5 28  1  0  0  0  0
  6 29  1  0  0  0  0
  7 30  1  0  0  0  0
  8 31  1  0  0  0  0
  9 32  1  0  0  0  0
 17 33  1  0  0  0  0
M  END
> <paper/assay>
https://doi.org/10.1016/j.bioorg.2008.01.001

> <IC50 (um)>
28

> <real_space>
FALSE

> <SCR>
FALSE

> <BB>
FALSE

> <molport_or_mcule>
FALSE

> <PDB>
FALSE

> <Hybrid2>
-10.489427

> <docked_fragment>
x0107

> <Mpro-_dock>
2.036809

> <site>
active-noncovalent

$$$$
2443805
  -OEChem-04162001263D

 50 53  0     0  0  0  0  0  0999 V2000
    8.4441    5.9771   22.6802 C   0  0  0  0  0  0  0  0  0  0  0  0
    8.0095    7.0253   23.4878 C   0  0  0  0  0  0  0  0  0  0  0  0
    8.9874   -1.4391   21.8716 C   0  0  0  0  0  0  0  0  0  0  0  0
    9.7208    5.4338   22.8545 C   0  0  0  0  0  0  0  0  0  0  0  0
    8.8260   -2.6198   22.5965 C   0  0  0  0  0  0  0  0  0  0  0  0
    8.8498    7.5344   24.4737 C   0  0  0  0  0  0  0  0  0  0  0  0
    9.8376   -0.4401   22.3459 C   0  0  0  0  0  0  0  0  0  0  0  0
   10.5814    5.9332   23.8409 C   0  0  0  0  0  0  0  0  0  0  0  0
    9.5147   -2.8015   23.7958 C   0  0  0  0  0  0  0  0  0  0  0  0
   10.3649   -1.8026   24.2702 C   0  0  0  0  0  0  0  0  0  0  0  0
   10.1262    6.9896   24.6460 C   0  0  0  0  0  0  0  0  0  0  0  0
   10.5263   -0.6219   23.5452 C   0  0  0  0  0  0  0  0  0  0  0  0
   12.7100    5.9344   25.0401 C   0  0  0  0  0  0  0  0  0  0  0  0
   11.9359    5.4103   24.0779 C   0  0  0  0  0  0  0  0  0  0  0  0
   12.2344    7.0538   25.8966 C   0  0  0  0  0  0  0  0  0  0  0  0
   12.5574    4.3081   23.3176 C   0  0  0  0  0  0  0  0  0  0  0  0
   10.8605    1.4477   24.8778 C   0  0  0  0  0  0  0  0  0  0  0  0
   12.6357    0.7080   23.3359 C   0  0  0  0  0  0  0  0  0  0  0  0
   10.6842    2.7262   24.0516 C   0  0  0  0  0  0  0  0  0  0  0  0
   12.4629    1.9798   22.5062 C   0  0  0  0  0  0  0  0  0  0  0  0
    9.3237   -4.0753   24.5523 C   0  0  0  0  0  0  0  0  0  0  0  0
   11.1018   -2.0016   25.5575 C   0  0  0  0  0  0  0  0  0  0  0  0
   10.9614    7.5173   25.6464 N   0  0  0  0  0  0  0  0  0  0  0  0
   11.3693    0.3852   24.0008 N   0  0  0  0  0  0  0  0  0  0  0  0
   11.9290    3.0662   23.3390 N   0  0  0  0  0  0  0  0  0  0  0  0
   12.9684    7.5136   26.7688 O   0  0  0  0  0  0  0  0  0  0  0  0
   13.6001    4.5544   22.7085 O   0  0  0  0  0  0  0  0  0  0  0  0
    7.7883    5.5795   21.9107 H   0  0  0  0  0  0  0  0  0  0  0  0
    7.0173    7.4441   23.3489 H   0  0  0  0  0  0  0  0  0  0  0  0
    8.4514   -1.2977   20.9376 H   0  0  0  0  0  0  0  0  0  0  0  0
   10.0159    4.6179   22.2016 H   0  0  0  0  0  0  0  0  0  0  0  0
    8.1612   -3.3920   22.2183 H   0  0  0  0  0  0  0  0  0  0  0  0
    8.5034    8.3517   25.1006 H   0  0  0  0  0  0  0  0  0  0  0  0
    9.9555    0.4755   21.7720 H   0  0  0  0  0  0  0  0  0  0  0  0
   13.7140    5.5744   25.2437 H   0  0  0  0  0  0  0  0  0  0  0  0
   11.5666    1.6385   25.6824 H   0  0  0  0  0  0  0  0  0  0  0  0
    9.9083    1.1480   25.3102 H   0  0  0  0  0  0  0  0  0  0  0  0
   12.9482   -0.1036   22.6765 H   0  0  0  0  0  0  0  0  0  0  0  0
   13.4120    0.8474   24.0891 H   0  0  0  0  0  0  0  0  0  0  0  0
    9.8858    2.5800   23.3330 H   0  0  0  0  0  0  0  0  0  0  0  0
   10.4385    3.5655   24.6954 H   0  0  0  0  0  0  0  0  0  0  0  0
   13.4189    2.2757   22.0767 H   0  0  0  0  0  0  0  0  0  0  0  0
   11.7609    1.8199   21.6869 H   0  0  0  0  0  0  0  0  0  0  0  0
   10.0589   -4.8218   24.2304 H   0  0  0  0  0  0  0  0  0  0  0  0
    9.4367   -3.9158   25.6316 H   0  0  0  0  0  0  0  0  0  0  0  0
    8.3180   -4.4834   24.3933 H   0  0  0  0  0  0  0  0  0  0  0  0
   12.0711   -2.4746   25.3675 H   0  0  0  0  0  0  0  0  0  0  0  0
   11.2702   -1.0456   26.0661 H   0  0  0  0  0  0  0  0  0  0  0  0
   10.5293   -2.6352   26.2444 H   0  0  0  0  0  0  0  0  0  0  0  0
   10.6040    8.2825   26.2113 H   0  0  0  0  0  0  0  0  0  0  0  0
  1  2  1  0  0  0  0
  1  4  2  0  0  0  0
  2  6  2  0  0  0  0
  3  5  2  0  0  0  0
  3  7  1  0  0  0  0
  4  8  1  0  0  0  0
  5  9  1  0  0  0  0
  6 11  1  0  0  0  0
  7 12  2  0  0  0  0
  8 11  2  0  0  0  0
  8 14  1  0  0  0  0
  9 10  2  0  0  0  0
  9 21  1  0  0  0  0
 10 12  1  0  0  0  0
 10 22  1  0  0  0  0
 11 23  1  0  0  0  0
 12 24  1  0  0  0  0
 13 14  2  0  0  0  0
 13 15  1  0  0  0  0
 14 16  1  0  0  0  0
 15 23  1  0  0  0  0
 15 26  2  0  0  0  0
 16 25  1  0  0  0  0
 16 27  2  0  0  0  0
 17 19  1  0  0  0  0
 17 24  1  0  0  0  0
 18 20  1  0  0  0  0
 18 24  1  0  0  0  0
 19 25  1  0  0  0  0
 20 25  1  0  0  0  0
  1 28  1  0  0  0  0
  2 29  1  0  0  0  0
  3 30  1  0  0  0  0
  4 31  1  0  0  0  0
  5 32  1  0  0  0  0
  6 33  1  0  0  0  0
  7 34  1  0  0  0  0
 13 35  1  0  0  0  0
 17 36  1  0  0  0  0
 17 37  1  0  0  0  0
 18 38  1  0  0  0  0
 18 39  1  0  0  0  0
 19 40  1  0  0  0  0
 19 41  1  0  0  0  0
 20 42  1  0  0  0  0
 20 43  1  0  0  0  0
 21 44  1  0  0  0  0
 21 45  1  0  0  0  0
 21 46  1  0  0  0  0
 22 47  1  0  0  0  0
 22 48  1  0  0  0  0
 22 49  1  0  0  0  0
 23 50  1  0  0  0  0
M  END
> <paper/assay>
https://pubchem.ncbi.nlm.nih.gov/bioassay/1890

> <IC50 (um)>
6.66

> <real_space>
FALSE

> <SCR>
Z26850384

> <BB>
FALSE

> <molport_or_mcule>
['https://www.molport.com/shop/molecule-link/MolPort-005-314-864', 'https://mcule.com/MCULE-8265971805/']

> <PDB>
FALSE

> <Hybrid2>
-10.395829

> <docked_fragment>
x0104

> <Mpro-_dock>
2.400402

> <site>
active-noncovalent

$$$$
MAC-30731
  -OEChem-04162001263D

 31 33  0     1  0  0  0  0  0999 V2000
   12.4356   -0.3270   24.1047 C   0  0  0  0  0  0  0  0  0  0  0  0
   13.4578   -0.5365   25.0324 C   0  0  0  0  0  0  0  0  0  0  0  0
   12.5640   -2.7160   25.5684 C   0  0  0  0  0  0  0  0  0  0  0  0
   11.5149   -2.5339   24.6351 C   0  0  0  0  0  0  0  0  0  0  0  0
   10.4293   -3.3992   24.2703 C   0  0  0  0  0  0  0  0  0  0  0  0
   11.4701   -1.3354   23.9163 C   0  0  0  0  0  0  0  0  0  0  0  0
   13.5233   -1.7177   25.7577 C   0  0  0  0  0  0  0  0  0  0  0  0
    9.6095   -2.8538   23.3111 C   0  0  0  0  0  0  0  0  0  0  0  0
    5.4824   -5.6320   23.1371 C   0  0  0  0  0  0  0  0  0  0  0  0
    6.2721   -5.8049   22.0874 C   0  0  0  0  0  0  0  0  0  0  0  0
    6.3476   -5.5667   24.3175 C   0  0  0  0  0  0  0  0  0  0  0  0
    8.4409   -3.4051   22.7026 C   0  0  0  0  0  0  0  0  0  0  0  0
    7.6969   -5.8618   22.4766 C   0  0  1  0  0  0  0  0  0  0  0  0
   10.2139   -4.7432   24.8672 C   0  0  0  0  0  0  0  0  0  0  0  0
    8.5478   -4.7335   21.9151 C   0  0  0  0  0  0  0  0  0  0  0  0
    5.9819   -5.4079   25.4690 O   0  0  0  0  0  0  0  0  0  0  0  0
    7.3025   -2.8751   22.7613 O   0  0  0  0  0  0  0  0  0  0  0  0
    7.6443   -5.7230   23.9099 O   0  0  0  0  0  0  0  0  0  0  0  0
   10.1274   -1.3013   22.8350 S   0  0  0  0  0  0  0  0  0  0  0  0
   14.7934   -1.9572   26.8953 Cl  0  0  0  0  0  0  0  0  0  0  0  0
    3.8015   -5.5191   23.2228 Cl  0  0  0  0  0  0  0  0  0  0  0  0
    5.7916   -5.9963   20.4678 Cl  0  0  0  0  0  0  0  0  0  0  0  0
   12.3926    0.6005   23.5408 H   0  0  0  0  0  0  0  0  0  0  0  0
   14.2025    0.2429   25.1755 H   0  0  0  0  0  0  0  0  0  0  0  0
   12.6192   -3.6404   26.1389 H   0  0  0  0  0  0  0  0  0  0  0  0
    8.1410   -6.8361   22.2457 H   0  0  0  0  0  0  0  0  0  0  0  0
    9.5756   -4.6731   25.7586 H   0  0  0  0  0  0  0  0  0  0  0  0
    9.7344   -5.4294   24.1542 H   0  0  0  0  0  0  0  0  0  0  0  0
   11.1647   -5.2113   25.1612 H   0  0  0  0  0  0  0  0  0  0  0  0
    8.2369   -4.5408   20.8826 H   0  0  0  0  0  0  0  0  0  0  0  0
    9.5970   -5.0483   21.9236 H   0  0  0  0  0  0  0  0  0  0  0  0
  1  2  2  0  0  0  0
  1  6  1  0  0  0  0
  2  7  1  0  0  0  0
  3  4  1  0  0  0  0
  3  7  2  0  0  0  0
  4  5  1  0  0  0  0
  4  6  2  0  0  0  0
  5  8  2  0  0  0  0
  5 14  1  0  0  0  0
  6 19  1  0  0  0  0
  7 20  1  0  0  0  0
  8 12  1  0  0  0  0
  8 19  1  0  0  0  0
  9 10  2  0  0  0  0
  9 11  1  0  0  0  0
  9 21  1  0  0  0  0
 10 13  1  0  0  0  0
 10 22  1  0  0  0  0
 11 16  2  0  0  0  0
 11 18  1  0  0  0  0
 12 15  1  0  0  0  0
 12 17  2  0  0  0  0
 13 15  1  0  0  0  0
 13 18  1  0  0  0  0
  1 23  1  0  0  0  0
  2 24  1  0  0  0  0
  3 25  1  0  0  0  0
 13 26  1  0  0  0  0
 14 27  1  0  0  0  0
 14 28  1  0  0  0  0
 14 29  1  0  0  0  0
 15 30  1  0  0  0  0
 15 31  1  0  0  0  0
M  END
> <paper/assay>
https://doi.org/10.1016/j.chembiol.2004.08.011

> <IC50 (um)>
7

> <real_space>
FALSE

> <SCR>
FALSE

> <BB>
FALSE

> <molport_or_mcule>
FALSE

> <PDB>
FALSE

> <Hybrid2>
-10.304352

> <docked_fragment>
x0749

> <Mpro-_dock>
0.915051

> <site>
active-covalent

$$$$
16B
  -OEChem-04162001263D

 54 57  0     0  0  0  0  0  0999 V2000
    5.0106    1.6379   19.3449 C   0  0  0  0  0  0  0  0  0  0  0  0
    5.2290    1.2036   20.6559 C   0  0  0  0  0  0  0  0  0  0  0  0
    5.9147    1.3289   18.3202 C   0  0  0  0  0  0  0  0  0  0  0  0
    6.3560    0.4457   20.9931 C   0  0  0  0  0  0  0  0  0  0  0  0
    8.6413   -1.4016   25.8271 C   0  0  0  0  0  0  0  0  0  0  0  0
    8.9084   -3.3900   24.4809 C   0  0  0  0  0  0  0  0  0  0  0  0
    9.4082   -0.6795   24.9128 C   0  0  0  0  0  0  0  0  0  0  0  0
    9.6754   -2.6679   23.5665 C   0  0  0  0  0  0  0  0  0  0  0  0
   13.6593   -1.4940   22.4236 C   0  0  0  0  0  0  0  0  0  0  0  0
   14.7410   -2.2485   22.8214 C   0  0  0  0  0  0  0  0  0  0  0  0
   13.7530   -0.9925   24.6912 C   0  0  0  0  0  0  0  0  0  0  0  0
   13.0870   -0.7662   23.5067 C   0  0  0  0  0  0  0  0  0  0  0  0
    7.0484    0.5699   18.6450 C   0  0  0  0  0  0  0  0  0  0  0  0
    7.2383    0.1528   19.9553 C   0  0  0  0  0  0  0  0  0  0  0  0
    8.3914   -2.7569   25.6112 C   0  0  0  0  0  0  0  0  0  0  0  0
    9.9253   -1.3126   23.7825 C   0  0  0  0  0  0  0  0  0  0  0  0
   10.3246   -0.4367   21.4825 C   0  0  0  0  0  0  0  0  0  0  0  0
    7.2685   -4.8372   26.4814 C   0  0  0  0  0  0  0  0  0  0  0  0
    5.1307   -4.4207   27.7571 C   0  0  0  0  0  0  0  0  0  0  0  0
    6.0816   -6.7368   27.6081 C   0  0  0  0  0  0  0  0  0  0  0  0
   11.8973    0.1394   23.3709 C   0  0  0  0  0  0  0  0  0  0  0  0
    9.1159   -1.2178   20.9866 C   0  0  0  0  0  0  0  0  0  0  0  0
    6.4128   -5.2475   27.6838 C   0  0  0  0  0  0  0  0  0  0  0  0
    8.0860    0.1225   17.8705 N   0  0  0  0  0  0  0  0  0  0  0  0
    8.9177   -0.5595   18.6505 N   0  0  0  0  0  0  0  0  0  0  0  0
    8.4121   -0.5413   19.8949 N   0  0  0  0  0  0  0  0  0  0  0  0
    7.6135   -3.4898   26.5390 N   0  0  0  0  0  0  0  0  0  0  0  0
   10.6924   -0.5907   22.8678 N   0  0  0  0  0  0  0  0  0  0  0  0
   10.9580    0.2695   20.6936 O   0  0  0  0  0  0  0  0  0  0  0  0
    7.5840   -5.6444   25.6118 O   0  0  0  0  0  0  0  0  0  0  0  0
   15.0626   -2.0782   24.4947 S   0  0  0  0  0  0  0  0  0  0  0  0
    4.1248    2.2251   19.1160 H   0  0  0  0  0  0  0  0  0  0  0  0
    4.5091    1.4595   21.4295 H   0  0  0  0  0  0  0  0  0  0  0  0
    5.7369    1.6703   17.3057 H   0  0  0  0  0  0  0  0  0  0  0  0
    6.5268    0.1084   22.0088 H   0  0  0  0  0  0  0  0  0  0  0  0
    8.2437   -0.8976   26.7042 H   0  0  0  0  0  0  0  0  0  0  0  0
    8.7197   -4.4455   24.3026 H   0  0  0  0  0  0  0  0  0  0  0  0
    9.5967    0.3761   25.0919 H   0  0  0  0  0  0  0  0  0  0  0  0
   10.0738   -3.1715   22.6898 H   0  0  0  0  0  0  0  0  0  0  0  0
   13.2988   -1.4685   21.4030 H   0  0  0  0  0  0  0  0  0  0  0  0
   15.3573   -2.8922   22.2098 H   0  0  0  0  0  0  0  0  0  0  0  0
   13.5358   -0.5754   25.6648 H   0  0  0  0  0  0  0  0  0  0  0  0
    4.5149   -4.5781   26.8649 H   0  0  0  0  0  0  0  0  0  0  0  0
    5.3603   -3.3521   27.8242 H   0  0  0  0  0  0  0  0  0  0  0  0
    4.5267   -4.6929   28.6299 H   0  0  0  0  0  0  0  0  0  0  0  0
    5.5018   -6.9625   26.7069 H   0  0  0  0  0  0  0  0  0  0  0  0
    5.4926   -7.0596   28.4729 H   0  0  0  0  0  0  0  0  0  0  0  0
    6.9939   -7.3433   27.5888 H   0  0  0  0  0  0  0  0  0  0  0  0
   11.6410    0.5877   24.3370 H   0  0  0  0  0  0  0  0  0  0  0  0
   12.1055    0.9603   22.6765 H   0  0  0  0  0  0  0  0  0  0  0  0
    9.4265   -2.1996   20.6133 H   0  0  0  0  0  0  0  0  0  0  0  0
    8.3942   -1.3501   21.7998 H   0  0  0  0  0  0  0  0  0  0  0  0
    6.9924   -5.0561   28.5959 H   0  0  0  0  0  0  0  0  0  0  0  0
    7.2657   -2.9710   27.3425 H   0  0  0  0  0  0  0  0  0  0  0  0
  1  2  1  0  0  0  0
  1  3  2  0  0  0  0
  2  4  2  0  0  0  0
  3 13  1  0  0  0  0
  4 14  1  0  0  0  0
  5  7  2  0  0  0  0
  5 15  1  0  0  0  0
  6  8  1  0  0  0  0
  6 15  2  0  0  0  0
  7 16  1  0  0  0  0
  8 16  2  0  0  0  0
  9 10  2  0  0  0  0
  9 12  1  0  0  0  0
 10 31  1  0  0  0  0
 11 12  2  0  0  0  0
 11 31  1  0  0  0  0
 12 21  1  0  0  0  0
 13 14  2  0  0  0  0
 13 24  1  0  0  0  0
 14 26  1  0  0  0  0
 15 27  1  0  0  0  0
 16 28  1  0  0  0  0
 17 22  1  0  0  0  0
 17 28  1  0  0  0  0
 17 29  2  0  0  0  0
 18 23  1  0  0  0  0
 18 27  1  0  0  0  0
 18 30  2  0  0  0  0
 19 23  1  0  0  0  0
 20 23  1  0  0  0  0
 21 28  1  0  0  0  0
 22 26  1  0  0  0  0
 24 25  2  0  0  0  0
 25 26  1  0  0  0  0
  1 32  1  0  0  0  0
  2 33  1  0  0  0  0
  3 34  1  0  0  0  0
  4 35  1  0  0  0  0
  5 36  1  0  0  0  0
  6 37  1  0  0  0  0
  7 38  1  0  0  0  0
  8 39  1  0  0  0  0
  9 40  1  0  0  0  0
 10 41  1  0  0  0  0
 11 42  1  0  0  0  0
 19 43  1  0  0  0  0
 19 44  1  0  0  0  0
 19 45  1  0  0  0  0
 20 46  1  0  0  0  0
 20 47  1  0  0  0  0
 20 48  1  0  0  0  0
 21 49  1  0  0  0  0
 21 50  1  0  0  0  0
 22 51  1  0  0  0  0
 22 52  1  0  0  0  0
 23 53  1  0  0  0  0
 27 54  1  0  0  0  0
M  END
> <paper/assay>
http://dx.doi.org/10.1016/j.bmcl.2013.08.112

> <IC50 (um)>
3.6

> <real_space>
FALSE

> <SCR>
FALSE

> <BB>
FALSE

> <molport_or_mcule>
FALSE

> <PDB>
FALSE

> <Hybrid2>
-10.201071

> <docked_fragment>
x0678

> <Mpro-_dock>
4.000864

> <site>
active-noncovalent

$$$$
677475
  -OEChem-04162001263D

 29 31  0     0  0  0  0  0  0999 V2000
    5.0028    1.2145   19.1195 C   0  0  0  0  0  0  0  0  0  0  0  0
    5.2196    1.0204   20.4871 C   0  0  0  0  0  0  0  0  0  0  0  0
   12.5385   -1.2442   21.6620 C   0  0  0  0  0  0  0  0  0  0  0  0
   12.3977    0.4909   23.3374 C   0  0  0  0  0  0  0  0  0  0  0  0
    6.0218    0.9852   18.1857 C   0  0  0  0  0  0  0  0  0  0  0  0
    6.4594    0.5908   20.9735 C   0  0  0  0  0  0  0  0  0  0  0  0
   13.6415   -1.7892   22.3191 C   0  0  0  0  0  0  0  0  0  0  0  0
   13.5007   -0.0542   23.9945 C   0  0  0  0  0  0  0  0  0  0  0  0
   11.9166   -0.1041   22.1711 C   0  0  0  0  0  0  0  0  0  0  0  0
    7.2693    0.5543   18.6603 C   0  0  0  0  0  0  0  0  0  0  0  0
    7.4545    0.3702   20.0236 C   0  0  0  0  0  0  0  0  0  0  0  0
   14.1226   -1.1942   23.4854 C   0  0  0  0  0  0  0  0  0  0  0  0
   10.7363    0.4790   21.4685 C   0  0  0  0  0  0  0  0  0  0  0  0
    9.4993   -0.3816   21.2952 C   0  0  0  0  0  0  0  0  0  0  0  0
    8.4311    0.2553   17.9990 N   0  0  0  0  0  0  0  0  0  0  0  0
    9.3361   -0.1092   18.9010 N   0  0  0  0  0  0  0  0  0  0  0  0
    8.7534   -0.0404   20.1094 N   0  0  0  0  0  0  0  0  0  0  0  0
   10.7975    1.6331   21.0502 O   0  0  0  0  0  0  0  0  0  0  0  0
   15.4824   -1.8675   24.2967 Cl  0  0  0  0  0  0  0  0  0  0  0  0
    4.0279    1.5489   18.7741 H   0  0  0  0  0  0  0  0  0  0  0  0
    4.4090    1.2068   21.1874 H   0  0  0  0  0  0  0  0  0  0  0  0
   12.1722   -1.7155   20.7536 H   0  0  0  0  0  0  0  0  0  0  0  0
   11.9207    1.3793   23.7432 H   0  0  0  0  0  0  0  0  0  0  0  0
    5.8445    1.1385   17.1263 H   0  0  0  0  0  0  0  0  0  0  0  0
    6.6290    0.4398   22.0333 H   0  0  0  0  0  0  0  0  0  0  0  0
   14.1161   -2.6782   21.9116 H   0  0  0  0  0  0  0  0  0  0  0  0
   13.8646    0.4205   24.9022 H   0  0  0  0  0  0  0  0  0  0  0  0
    8.8267   -0.2524   22.1498 H   0  0  0  0  0  0  0  0  0  0  0  0
    9.7830   -1.4360   21.2085 H   0  0  0  0  0  0  0  0  0  0  0  0
  1  2  1  0  0  0  0
  1  5  2  0  0  0  0
  2  6  2  0  0  0  0
  3  7  2  0  0  0  0
  3  9  1  0  0  0  0
  4  8  1  0  0  0  0
  4  9  2  0  0  0  0
  5 10  1  0  0  0  0
  6 11  1  0  0  0  0
  7 12  1  0  0  0  0
  8 12  2  0  0  0  0
  9 13  1  0  0  0  0
 10 11  2  0  0  0  0
 10 15  1  0  0  0  0
 11 17  1  0  0  0  0
 12 19  1  0  0  0  0
 13 14  1  0  0  0  0
 13 18  2  0  0  0  0
 14 17  1  0  0  0  0
 15 16  2  0  0  0  0
 16 17  1  0  0  0  0
  1 20  1  0  0  0  0
  2 21  1  0  0  0  0
  3 22  1  0  0  0  0
  4 23  1  0  0  0  0
  5 24  1  0  0  0  0
  6 25  1  0  0  0  0
  7 26  1  0  0  0  0
  8 27  1  0  0  0  0
 14 28  1  0  0  0  0
 14 29  1  0  0  0  0
M  END
> <paper/assay>
https://pubchem.ncbi.nlm.nih.gov/bioassay/1890

> <IC50 (um)>
9.908

> <real_space>
FALSE

> <SCR>
FALSE

> <BB>
FALSE

> <molport_or_mcule>
['https://www.molport.com/shop/molecule-link/MolPort-001-017-875', 'https://mcule.com/MCULE-7924864257/', 'https://www.molport.com/shop/molecule-link/MolPort-001-017-875']

> <PDB>
FALSE

> <Hybrid2>
-10.170614

> <docked_fragment>
x0678

> <Mpro-_dock>
-0.393217

> <site>
active-noncovalent

$$$$
761840
  -OEChem-04162001263D

 29 31  0     0  0  0  0  0  0999 V2000
    3.8583    1.6061   21.0636 C   0  0  0  0  0  0  0  0  0  0  0  0
    4.7803    0.9596   21.8925 C   0  0  0  0  0  0  0  0  0  0  0  0
    7.9704   -2.5774   21.8545 C   0  0  0  0  0  0  0  0  0  0  0  0
    9.8795   -1.4629   22.8293 C   0  0  0  0  0  0  0  0  0  0  0  0
    4.0448    1.6581   19.6760 C   0  0  0  0  0  0  0  0  0  0  0  0
    5.9212    0.3416   21.3686 C   0  0  0  0  0  0  0  0  0  0  0  0
    8.0616   -3.5790   22.8209 C   0  0  0  0  0  0  0  0  0  0  0  0
    9.9707   -2.4646   23.7958 C   0  0  0  0  0  0  0  0  0  0  0  0
    8.8794   -1.5193   21.8587 C   0  0  0  0  0  0  0  0  0  0  0  0
    5.1845    1.0424   19.1383 C   0  0  0  0  0  0  0  0  0  0  0  0
    6.0820    0.4081   19.9863 C   0  0  0  0  0  0  0  0  0  0  0  0
    9.0617   -3.5226   23.7916 C   0  0  0  0  0  0  0  0  0  0  0  0
    8.7818   -0.4478   20.8248 C   0  0  0  0  0  0  0  0  0  0  0  0
    8.2283   -0.8080   19.4592 C   0  0  0  0  0  0  0  0  0  0  0  0
    5.6244    0.9321   17.8457 N   0  0  0  0  0  0  0  0  0  0  0  0
    6.7653    0.2513   17.8558 N   0  0  0  0  0  0  0  0  0  0  0  0
    7.0387   -0.0613   19.1333 N   0  0  0  0  0  0  0  0  0  0  0  0
    9.1514    0.6905   21.1044 O   0  0  0  0  0  0  0  0  0  0  0  0
    9.1853   -4.8798   25.1010 Br  0  0  0  0  0  0  0  0  0  0  0  0
    2.9819    2.0766   21.5022 H   0  0  0  0  0  0  0  0  0  0  0  0
    4.6079    0.9362   22.9658 H   0  0  0  0  0  0  0  0  0  0  0  0
    7.1871   -2.6312   21.1028 H   0  0  0  0  0  0  0  0  0  0  0  0
   10.5931   -0.6430   22.8419 H   0  0  0  0  0  0  0  0  0  0  0  0
    3.3240    2.1621   19.0406 H   0  0  0  0  0  0  0  0  0  0  0  0
    6.6368   -0.1599   22.0097 H   0  0  0  0  0  0  0  0  0  0  0  0
    7.3455   -4.3966   22.8037 H   0  0  0  0  0  0  0  0  0  0  0  0
   10.7559   -2.4058   24.5452 H   0  0  0  0  0  0  0  0  0  0  0  0
    7.9633   -1.8702   19.4274 H   0  0  0  0  0  0  0  0  0  0  0  0
    8.9703   -0.5922   18.6830 H   0  0  0  0  0  0  0  0  0  0  0  0
  1  2  1  0  0  0  0
  1  5  2  0  0  0  0
  2  6  2  0  0  0  0
  3  7  2  0  0  0  0
  3  9  1  0  0  0  0
  4  8  1  0  0  0  0
  4  9  2  0  0  0  0
  5 10  1  0  0  0  0
  6 11  1  0  0  0  0
  7 12  1  0  0  0  0
  8 12  2  0  0  0  0
  9 13  1  0  0  0  0
 10 11  2  0  0  0  0
 10 15  1  0  0  0  0
 11 17  1  0  0  0  0
 12 19  1  0  0  0  0
 13 14  1  0  0  0  0
 13 18  2  0  0  0  0
 14 17  1  0  0  0  0
 15 16  2  0  0  0  0
 16 17  1  0  0  0  0
  1 20  1  0  0  0  0
  2 21  1  0  0  0  0
  3 22  1  0  0  0  0
  4 23  1  0  0  0  0
  5 24  1  0  0  0  0
  6 25  1  0  0  0  0
  7 26  1  0  0  0  0
  8 27  1  0  0  0  0
 14 28  1  0  0  0  0
 14 29  1  0  0  0  0
M  END
> <paper/assay>
https://pubchem.ncbi.nlm.nih.gov/bioassay/1890

> <IC50 (um)>
4.013

> <real_space>
FALSE

> <SCR>
FALSE

> <BB>
FALSE

> <molport_or_mcule>
['https://www.molport.com/shop/molecule-link/MolPort-001-017-874', 'https://mcule.com/MCULE-1486323937/', 'https://www.molport.com/shop/molecule-link/MolPort-001-017-874']

> <PDB>
FALSE

> <Hybrid2>
-9.808483

> <docked_fragment>
x0107

> <Mpro-_dock>
-0.243212

> <site>
active-noncovalent

$$$$
16E
  -OEChem-04162001263D

 52 56  0     0  0  0  0  0  0999 V2000
    4.7276    2.0565   18.5401 C   0  0  0  0  0  0  0  0  0  0  0  0
    4.7525    1.7660   19.9076 C   0  0  0  0  0  0  0  0  0  0  0  0
    5.7340    1.5918   17.6833 C   0  0  0  0  0  0  0  0  0  0  0  0
    5.7809    1.0020   20.4706 C   0  0  0  0  0  0  0  0  0  0  0  0
    9.2662   -3.9664   23.8422 C   0  0  0  0  0  0  0  0  0  0  0  0
    7.9474   -2.3933   25.1162 C   0  0  0  0  0  0  0  0  0  0  0  0
    9.8698   -2.9092   23.1614 C   0  0  0  0  0  0  0  0  0  0  0  0
    8.5509   -1.3360   24.4355 C   0  0  0  0  0  0  0  0  0  0  0  0
   13.0956   -0.9118   21.8500 C   0  0  0  0  0  0  0  0  0  0  0  0
   14.2585   -1.6483   21.9020 C   0  0  0  0  0  0  0  0  0  0  0  0
   13.3435   -1.2073   24.1421 C   0  0  0  0  0  0  0  0  0  0  0  0
   12.5655   -0.6561   23.1477 C   0  0  0  0  0  0  0  0  0  0  0  0
    6.7705    0.8249   18.2351 C   0  0  0  0  0  0  0  0  0  0  0  0
    6.7682    0.5527   19.5963 C   0  0  0  0  0  0  0  0  0  0  0  0
    8.3050   -3.7085   24.8196 C   0  0  0  0  0  0  0  0  0  0  0  0
    9.5122   -1.5939   23.4581 C   0  0  0  0  0  0  0  0  0  0  0  0
    6.7240   -4.7039   26.5031 C   0  0  0  0  0  0  0  0  0  0  0  0
    9.5883    0.0133   21.5534 C   0  0  0  0  0  0  0  0  0  0  0  0
    4.9786   -6.2473   27.5776 C   0  0  0  0  0  0  0  0  0  0  0  0
    5.2870   -6.8097   26.2226 C   0  0  0  0  0  0  0  0  0  0  0  0
    6.3297   -6.0773   26.9854 C   0  0  0  0  0  0  0  0  0  0  0  0
   11.3064    0.1219   23.3994 C   0  0  0  0  0  0  0  0  0  0  0  0
    8.4078   -0.7645   20.9892 C   0  0  0  0  0  0  0  0  0  0  0  0
    7.8692    0.2455   17.6574 N   0  0  0  0  0  0  0  0  0  0  0  0
    8.5538   -0.3791   18.6094 N   0  0  0  0  0  0  0  0  0  0  0  0
    7.8969   -0.1957   19.7667 N   0  0  0  0  0  0  0  0  0  0  0  0
    7.7009   -4.7659   25.5003 N   0  0  0  0  0  0  0  0  0  0  0  0
   10.1389   -0.4954   22.7511 N   0  0  0  0  0  0  0  0  0  0  0  0
    6.2050   -3.6986   26.9774 O   0  0  0  0  0  0  0  0  0  0  0  0
   10.0151    0.9977   20.9443 O   0  0  0  0  0  0  0  0  0  0  0  0
   14.7068   -2.0287   23.5103 S   0  0  0  0  0  0  0  0  0  0  0  0
    3.9143    2.6527   18.1341 H   0  0  0  0  0  0  0  0  0  0  0  0
    3.9571    2.1409   20.5471 H   0  0  0  0  0  0  0  0  0  0  0  0
    5.7064    1.8222   16.6234 H   0  0  0  0  0  0  0  0  0  0  0  0
    5.8016    0.7760   21.5304 H   0  0  0  0  0  0  0  0  0  0  0  0
    9.5529   -4.9872   23.6026 H   0  0  0  0  0  0  0  0  0  0  0  0
    7.1997   -2.1809   25.8762 H   0  0  0  0  0  0  0  0  0  0  0  0
   10.6173   -3.1225   22.4014 H   0  0  0  0  0  0  0  0  0  0  0  0
    8.2641   -0.3153   24.6742 H   0  0  0  0  0  0  0  0  0  0  0  0
   12.6495   -0.5748   20.9228 H   0  0  0  0  0  0  0  0  0  0  0  0
   14.8659   -1.9819   21.0725 H   0  0  0  0  0  0  0  0  0  0  0  0
   13.1796   -1.1703   25.2102 H   0  0  0  0  0  0  0  0  0  0  0  0
    4.3003   -5.4044   27.6306 H   0  0  0  0  0  0  0  0  0  0  0  0
    4.8957   -6.9413   28.4052 H   0  0  0  0  0  0  0  0  0  0  0  0
    5.4113   -7.8824   26.1380 H   0  0  0  0  0  0  0  0  0  0  0  0
    4.8136   -6.3452   25.3661 H   0  0  0  0  0  0  0  0  0  0  0  0
    7.1535   -6.6192   27.3968 H   0  0  0  0  0  0  0  0  0  0  0  0
   11.1007    0.1867   24.4734 H   0  0  0  0  0  0  0  0  0  0  0  0
   11.3956    1.1464   23.0229 H   0  0  0  0  0  0  0  0  0  0  0  0
    8.7041   -1.7955   20.7683 H   0  0  0  0  0  0  0  0  0  0  0  0
    7.5825   -0.7701   21.7094 H   0  0  0  0  0  0  0  0  0  0  0  0
    8.0055   -5.7105   25.2377 H   0  0  0  0  0  0  0  0  0  0  0  0
  1  2  1  0  0  0  0
  1  3  2  0  0  0  0
  2  4  2  0  0  0  0
  3 13  1  0  0  0  0
  4 14  1  0  0  0  0
  5  7  2  0  0  0  0
  5 15  1  0  0  0  0
  6  8  1  0  0  0  0
  6 15  2  0  0  0  0
  7 16  1  0  0  0  0
  8 16  2  0  0  0  0
  9 10  2  0  0  0  0
  9 12  1  0  0  0  0
 10 31  1  0  0  0  0
 11 12  2  0  0  0  0
 11 31  1  0  0  0  0
 12 22  1  0  0  0  0
 13 14  2  0  0  0  0
 13 24  1  0  0  0  0
 14 26  1  0  0  0  0
 15 27  1  0  0  0  0
 16 28  1  0  0  0  0
 17 21  1  0  0  0  0
 17 27  1  0  0  0  0
 17 29  2  0  0  0  0
 18 23  1  0  0  0  0
 18 28  1  0  0  0  0
 18 30  2  0  0  0  0
 19 20  1  0  0  0  0
 19 21  1  0  0  0  0
 20 21  1  0  0  0  0
 22 28  1  0  0  0  0
 23 26  1  0  0  0  0
 24 25  2  0  0  0  0
 25 26  1  0  0  0  0
  1 32  1  0  0  0  0
  2 33  1  0  0  0  0
  3 34  1  0  0  0  0
  4 35  1  0  0  0  0
  5 36  1  0  0  0  0
  6 37  1  0  0  0  0
  7 38  1  0  0  0  0
  8 39  1  0  0  0  0
  9 40  1  0  0  0  0
 10 41  1  0  0  0  0
 11 42  1  0  0  0  0
 19 43  1  0  0  0  0
 19 44  1  0  0  0  0
 20 45  1  0  0  0  0
 20 46  1  0  0  0  0
 21 47  1  0  0  0  0
 22 48  1  0  0  0  0
 22 49  1  0  0  0  0
 23 50  1  0  0  0  0
 23 51  1  0  0  0  0
 27 52  1  0  0  0  0
M  END
> <paper/assay>
http://dx.doi.org/10.1016/j.bmcl.2013.08.112

> <IC50 (um)>
4.1

> <real_space>
FALSE

> <SCR>
FALSE

> <BB>
FALSE

> <molport_or_mcule>
FALSE

> <PDB>
FALSE

> <Hybrid2>
-9.786143

> <docked_fragment>
x0678

> <Mpro-_dock>
4.634927

> <site>
active-noncovalent

$$$$
807412
  -OEChem-04162001263D

 33 35  0     0  0  0  0  0  0999 V2000
    8.8112    7.3990   23.4186 C   0  0  0  0  0  0  0  0  0  0  0  0
   13.7400    1.6931   22.4300 C   0  0  0  0  0  0  0  0  0  0  0  0
   13.5689    3.0685   22.2358 C   0  0  0  0  0  0  0  0  0  0  0  0
    9.7826    6.5475   22.8400 C   0  0  0  0  0  0  0  0  0  0  0  0
   11.4398    2.9747   23.3587 C   0  0  0  0  0  0  0  0  0  0  0  0
    9.3343    7.8133   24.6213 C   0  0  0  0  0  0  0  0  0  0  0  0
   12.7637    0.9364   23.0917 C   0  0  0  0  0  0  0  0  0  0  0  0
   11.6247    1.6035   23.5449 C   0  0  0  0  0  0  0  0  0  0  0  0
   12.4205    3.7081   22.6995 C   0  0  0  0  0  0  0  0  0  0  0  0
   10.8301    6.5025   23.7304 C   0  0  0  0  0  0  0  0  0  0  0  0
   11.8818   -1.1384   23.9748 C   0  0  0  0  0  0  0  0  0  0  0  0
   12.8748   -0.5090   23.3310 C   0  0  0  0  0  0  0  0  0  0  0  0
   10.6739   -0.4488   24.4588 C   0  0  0  0  0  0  0  0  0  0  0  0
   12.1294    5.7842   23.6878 C   0  0  0  0  0  0  0  0  0  0  0  0
   14.0084   -1.4793   21.3615 C   0  0  0  0  0  0  0  0  0  0  0  0
   14.0872   -1.2546   22.8543 C   0  0  0  0  0  0  0  0  0  0  0  0
    9.7851   -1.0582   25.0435 O   0  0  0  0  0  0  0  0  0  0  0  0
   12.9620    5.8545   24.5793 O   0  0  0  0  0  0  0  0  0  0  0  0
   10.5647    7.2715   24.8189 O   0  0  0  0  0  0  0  0  0  0  0  0
   10.5967    0.9143   24.2189 O   0  0  0  0  0  0  0  0  0  0  0  0
   12.2611    5.0457   22.5089 O   0  0  0  0  0  0  0  0  0  0  0  0
    7.8499    7.6754   23.0104 H   0  0  0  0  0  0  0  0  0  0  0  0
   14.6505    1.2349   22.0525 H   0  0  0  0  0  0  0  0  0  0  0  0
   14.3403    3.6348   21.7203 H   0  0  0  0  0  0  0  0  0  0  0  0
    9.7225    6.0325   21.8918 H   0  0  0  0  0  0  0  0  0  0  0  0
   10.5412    3.4638   23.7245 H   0  0  0  0  0  0  0  0  0  0  0  0
    8.9754    8.4581   25.4102 H   0  0  0  0  0  0  0  0  0  0  0  0
   11.9306   -2.2059   24.1681 H   0  0  0  0  0  0  0  0  0  0  0  0
   13.1195   -2.0682   21.1155 H   0  0  0  0  0  0  0  0  0  0  0  0
   14.8897   -2.0168   20.9954 H   0  0  0  0  0  0  0  0  0  0  0  0
   13.9511   -0.5292   20.8200 H   0  0  0  0  0  0  0  0  0  0  0  0
   14.9694   -0.6682   23.1157 H   0  0  0  0  0  0  0  0  0  0  0  0
   14.1237   -2.2050   23.3892 H   0  0  0  0  0  0  0  0  0  0  0  0
  1  4  1  0  0  0  0
  1  6  2  0  0  0  0
  2  3  2  0  0  0  0
  2  7  1  0  0  0  0
  3  9  1  0  0  0  0
  4 10  2  0  0  0  0
  5  8  1  0  0  0  0
  5  9  2  0  0  0  0
  6 19  1  0  0  0  0
  7  8  2  0  0  0  0
  7 12  1  0  0  0  0
  8 20  1  0  0  0  0
  9 21  1  0  0  0  0
 10 14  1  0  0  0  0
 10 19  1  0  0  0  0
 11 12  2  0  0  0  0
 11 13  1  0  0  0  0
 12 16  1  0  0  0  0
 13 17  2  0  0  0  0
 13 20  1  0  0  0  0
 14 18  2  0  0  0  0
 14 21  1  0  0  0  0
 15 16  1  0  0  0  0
  1 22  1  0  0  0  0
  2 23  1  0  0  0  0
  3 24  1  0  0  0  0
  4 25  1  0  0  0  0
  5 26  1  0  0  0  0
  6 27  1  0  0  0  0
 11 28  1  0  0  0  0
 15 29  1  0  0  0  0
 15 30  1  0  0  0  0
 15 31  1  0  0  0  0
 16 32  1  0  0  0  0
 16 33  1  0  0  0  0
M  END
> <paper/assay>
https://pubchem.ncbi.nlm.nih.gov/bioassay/1890

> <IC50 (um)>
2.962

> <real_space>
FALSE

> <SCR>
FALSE

> <BB>
FALSE

> <molport_or_mcule>
['https://mcule.com/MCULE-7448049653/', 'https://www.molport.com/shop/molecule-link/MolPort-002-087-978']

> <PDB>
FALSE

> <Hybrid2>
-9.750003

> <docked_fragment>
x0195

> <Mpro-_dock>
0.395937

> <site>
active-noncovalent

$$$$
11d
  -OEChem-04162001263D

 33 35  0     0  0  0  0  0  0999 V2000
    7.4718   -4.1833   26.6495 C   0  0  0  0  0  0  0  0  0  0  0  0
    5.9627   -3.6205   24.8487 C   0  0  0  0  0  0  0  0  0  0  0  0
    6.7525   -5.3546   26.8863 C   0  0  0  0  0  0  0  0  0  0  0  0
    5.2434   -4.7919   25.0855 C   0  0  0  0  0  0  0  0  0  0  0  0
    8.5581   -1.2581   26.1793 C   0  0  0  0  0  0  0  0  0  0  0  0
    9.0375   -0.2361   25.3254 C   0  0  0  0  0  0  0  0  0  0  0  0
    6.4232    0.2798   20.9278 C   0  0  0  0  0  0  0  0  0  0  0  0
    7.8423   -0.3713   19.1337 C   0  0  0  0  0  0  0  0  0  0  0  0
    5.7677    0.4899   18.6513 C   0  0  0  0  0  0  0  0  0  0  0  0
    7.0769   -3.3162   25.6307 C   0  0  0  0  0  0  0  0  0  0  0  0
    7.6370   -0.2448   20.4982 C   0  0  0  0  0  0  0  0  0  0  0  0
    5.6383   -5.6589   26.1043 C   0  0  0  0  0  0  0  0  0  0  0  0
    5.4652    0.6565   19.9931 C   0  0  0  0  0  0  0  0  0  0  0  0
    7.8202   -2.1045   25.3850 C   0  0  0  0  0  0  0  0  0  0  0  0
    8.5585   -0.5311   24.0702 C   0  0  0  0  0  0  0  0  0  0  0  0
    8.7128    0.1334   22.8212 C   0  0  0  0  0  0  0  0  0  0  0  0
    8.6985   -0.6626   21.4861 C   0  0  0  0  0  0  0  0  0  0  0  0
    6.9357   -0.0162   18.1959 N   0  0  0  0  0  0  0  0  0  0  0  0
    8.8681    1.3862   22.7471 O   0  0  0  0  0  0  0  0  0  0  0  0
    7.8156   -1.6686   24.0980 O   0  0  0  0  0  0  0  0  0  0  0  0
    4.7518   -7.1051   26.3946 Cl  0  0  0  0  0  0  0  0  0  0  0  0
    3.8085    1.3685   20.5352 Br  0  0  0  0  0  0  0  0  0  0  0  0
    8.3381   -3.9598   27.2675 H   0  0  0  0  0  0  0  0  0  0  0  0
    5.6427   -2.9545   24.0506 H   0  0  0  0  0  0  0  0  0  0  0  0
    7.0715   -6.0208   27.6841 H   0  0  0  0  0  0  0  0  0  0  0  0
    4.3769   -5.0160   24.4687 H   0  0  0  0  0  0  0  0  0  0  0  0
    8.7308   -1.3596   27.2413 H   0  0  0  0  0  0  0  0  0  0  0  0
    9.6544    0.6091   25.5960 H   0  0  0  0  0  0  0  0  0  0  0  0
    6.2311    0.3923   21.9923 H   0  0  0  0  0  0  0  0  0  0  0  0
    8.7701   -0.7740   18.7392 H   0  0  0  0  0  0  0  0  0  0  0  0
    5.0631    0.7629   17.8714 H   0  0  0  0  0  0  0  0  0  0  0  0
    8.5577   -1.7228   21.7278 H   0  0  0  0  0  0  0  0  0  0  0  0
    9.6827   -0.5498   21.0164 H   0  0  0  0  0  0  0  0  0  0  0  0
  1  3  2  0  0  0  0
  1 10  1  0  0  0  0
  2  4  1  0  0  0  0
  2 10  2  0  0  0  0
  3 12  1  0  0  0  0
  4 12  2  0  0  0  0
  5  6  1  0  0  0  0
  5 14  2  0  0  0  0
  6 15  2  0  0  0  0
  7 11  2  0  0  0  0
  7 13  1  0  0  0  0
  8 11  1  0  0  0  0
  8 18  2  0  0  0  0
  9 13  2  0  0  0  0
  9 18  1  0  0  0  0
 10 14  1  0  0  0  0
 11 17  1  0  0  0  0
 12 21  1  0  0  0  0
 13 22  1  0  0  0  0
 14 20  1  0  0  0  0
 15 16  1  0  0  0  0
 15 20  1  0  0  0  0
 16 17  1  0  0  0  0
 16 19  2  0  0  0  0
  1 23  1  0  0  0  0
  2 24  1  0  0  0  0
  3 25  1  0  0  0  0
  4 26  1  0  0  0  0
  5 27  1  0  0  0  0
  6 28  1  0  0  0  0
  7 29  1  0  0  0  0
  8 30  1  0  0  0  0
  9 31  1  0  0  0  0
 17 32  1  0  0  0  0
 17 33  1  0  0  0  0
M  END
> <paper/assay>
https://doi.org/10.1016/j.bioorg.2008.01.001

> <IC50 (um)>
13

> <real_space>
FALSE

> <SCR>
FALSE

> <BB>
FALSE

> <molport_or_mcule>
FALSE

> <PDB>
FALSE

> <Hybrid2>
-9.710086

> <docked_fragment>
x0107

> <Mpro-_dock>
0.292361

> <site>
active-noncovalent

$$$$
11b
  -OEChem-04162001263D

 33 35  0     0  0  0  0  0  0999 V2000
    7.4718   -4.1833   26.6495 C   0  0  0  0  0  0  0  0  0  0  0  0
    5.9627   -3.6205   24.8487 C   0  0  0  0  0  0  0  0  0  0  0  0
    6.7525   -5.3546   26.8863 C   0  0  0  0  0  0  0  0  0  0  0  0
    5.2434   -4.7919   25.0855 C   0  0  0  0  0  0  0  0  0  0  0  0
    8.5581   -1.2581   26.1793 C   0  0  0  0  0  0  0  0  0  0  0  0
    9.0375   -0.2361   25.3254 C   0  0  0  0  0  0  0  0  0  0  0  0
    6.4232    0.2798   20.9278 C   0  0  0  0  0  0  0  0  0  0  0  0
    7.8423   -0.3713   19.1337 C   0  0  0  0  0  0  0  0  0  0  0  0
    5.7677    0.4899   18.6513 C   0  0  0  0  0  0  0  0  0  0  0  0
    7.0769   -3.3162   25.6307 C   0  0  0  0  0  0  0  0  0  0  0  0
    7.6370   -0.2448   20.4982 C   0  0  0  0  0  0  0  0  0  0  0  0
    5.6383   -5.6589   26.1043 C   0  0  0  0  0  0  0  0  0  0  0  0
    5.4652    0.6565   19.9931 C   0  0  0  0  0  0  0  0  0  0  0  0
    7.8202   -2.1045   25.3850 C   0  0  0  0  0  0  0  0  0  0  0  0
    8.5585   -0.5311   24.0702 C   0  0  0  0  0  0  0  0  0  0  0  0
    8.7128    0.1334   22.8212 C   0  0  0  0  0  0  0  0  0  0  0  0
    8.6985   -0.6626   21.4861 C   0  0  0  0  0  0  0  0  0  0  0  0
    6.9357   -0.0162   18.1959 N   0  0  0  0  0  0  0  0  0  0  0  0
    8.8681    1.3862   22.7471 O   0  0  0  0  0  0  0  0  0  0  0  0
    7.8156   -1.6686   24.0980 O   0  0  0  0  0  0  0  0  0  0  0  0
    4.7518   -7.1051   26.3946 Cl  0  0  0  0  0  0  0  0  0  0  0  0
    3.8085    1.3685   20.5352 Br  0  0  0  0  0  0  0  0  0  0  0  0
    8.3381   -3.9598   27.2675 H   0  0  0  0  0  0  0  0  0  0  0  0
    5.6427   -2.9545   24.0506 H   0  0  0  0  0  0  0  0  0  0  0  0
    7.0715   -6.0208   27.6841 H   0  0  0  0  0  0  0  0  0  0  0  0
    4.3769   -5.0160   24.4687 H   0  0  0  0  0  0  0  0  0  0  0  0
    8.7308   -1.3596   27.2413 H   0  0  0  0  0  0  0  0  0  0  0  0
    9.6544    0.6091   25.5960 H   0  0  0  0  0  0  0  0  0  0  0  0
    6.2311    0.3923   21.9923 H   0  0  0  0  0  0  0  0  0  0  0  0
    8.7701   -0.7740   18.7392 H   0  0  0  0  0  0  0  0  0  0  0  0
    5.0631    0.7629   17.8714 H   0  0  0  0  0  0  0  0  0  0  0  0
    8.5577   -1.7228   21.7278 H   0  0  0  0  0  0  0  0  0  0  0  0
    9.6827   -0.5498   21.0164 H   0  0  0  0  0  0  0  0  0  0  0  0
  1  3  2  0  0  0  0
  1 10  1  0  0  0  0
  2  4  1  0  0  0  0
  2 10  2  0  0  0  0
  3 12  1  0  0  0  0
  4 12  2  0  0  0  0
  5  6  1  0  0  0  0
  5 14  2  0  0  0  0
  6 15  2  0  0  0  0
  7 11  2  0  0  0  0
  7 13  1  0  0  0  0
  8 11  1  0  0  0  0
  8 18  2  0  0  0  0
  9 13  2  0  0  0  0
  9 18  1  0  0  0  0
 10 14  1  0  0  0  0
 11 17  1  0  0  0  0
 12 21  1  0  0  0  0
 13 22  1  0  0  0  0
 14 20  1  0  0  0  0
 15 16  1  0  0  0  0
 15 20  1  0  0  0  0
 16 17  1  0  0  0  0
 16 19  2  0  0  0  0
  1 23  1  0  0  0  0
  2 24  1  0  0  0  0
  3 25  1  0  0  0  0
  4 26  1  0  0  0  0
  5 27  1  0  0  0  0
  6 28  1  0  0  0  0
  7 29  1  0  0  0  0
  8 30  1  0  0  0  0
  9 31  1  0  0  0  0
 17 32  1  0  0  0  0
 17 33  1  0  0  0  0
M  END
> <paper/assay>
http://dx.doi.org/10.1021/jm301580n

> <IC50 (um)>
13

> <real_space>
FALSE

> <SCR>
FALSE

> <BB>
FALSE

> <molport_or_mcule>
FALSE

> <PDB>
FALSE

> <Hybrid2>
-9.710086

> <docked_fragment>
x0107

> <Mpro-_dock>
0.292361

> <site>
active-noncovalent

$$$$
1083882
  -OEChem-04162001263D

 68 72  0     0  0  0  0  0  0999 V2000
    4.4271    2.1290   19.1300 C   0  0  0  0  0  0  0  0  0  0  0  0
    4.6152    1.7656   20.4670 C   0  0  0  0  0  0  0  0  0  0  0  0
    5.2055    1.5652   18.1105 C   0  0  0  0  0  0  0  0  0  0  0  0
    5.5853    0.8273   20.8364 C   0  0  0  0  0  0  0  0  0  0  0  0
    9.2883   -3.8162   22.7036 C   0  0  0  0  0  0  0  0  0  0  0  0
    8.4465   -2.1339   24.2196 C   0  0  0  0  0  0  0  0  0  0  0  0
    8.5874   -4.7980   23.4038 C   0  0  0  0  0  0  0  0  0  0  0  0
    7.7455   -3.1157   24.9199 C   0  0  0  0  0  0  0  0  0  0  0  0
    6.1815    0.6234   18.4676 C   0  0  0  0  0  0  0  0  0  0  0  0
    6.3449    0.2824   19.8032 C   0  0  0  0  0  0  0  0  0  0  0  0
    9.2179   -2.4842   23.1115 C   0  0  0  0  0  0  0  0  0  0  0  0
    7.8160   -4.4478   24.5120 C   0  0  0  0  0  0  0  0  0  0  0  0
   11.0484    0.0280   23.8492 C   0  0  0  0  0  0  0  0  0  0  0  0
    9.3211   -0.7879   21.2869 C   0  0  0  0  0  0  0  0  0  0  0  0
   14.1827   -1.6568   22.7525 C   0  0  0  0  0  0  0  0  0  0  0  0
    9.2796    4.5748   24.0833 C   0  0  0  0  0  0  0  0  0  0  0  0
    8.4204    3.7383   25.0355 C   0  0  0  0  0  0  0  0  0  0  0  0
   13.5986   -0.4141   22.0896 C   0  0  0  0  0  0  0  0  0  0  0  0
   13.3503   -2.0961   23.9519 C   0  0  0  0  0  0  0  0  0  0  0  0
   10.0372    3.5765   23.2120 C   0  0  0  0  0  0  0  0  0  0  0  0
    8.7060    2.2793   24.6895 C   0  0  0  0  0  0  0  0  0  0  0  0
   12.1351   -0.6183   21.6968 C   0  0  0  0  0  0  0  0  0  0  0  0
   11.8843   -2.3121   23.5752 C   0  0  0  0  0  0  0  0  0  0  0  0
   10.0996    2.3216   24.0743 C   0  0  0  0  0  0  0  0  0  0  0  0
   11.2683   -1.0957   22.8709 C   0  0  0  0  0  0  0  0  0  0  0  0
    6.3631   -4.9781   26.3185 C   0  0  0  0  0  0  0  0  0  0  0  0
    7.9613   -1.3489   20.8956 C   0  0  0  0  0  0  0  0  0  0  0  0
    7.0747   -0.0824   17.7055 N   0  0  0  0  0  0  0  0  0  0  0  0
    7.7907   -0.8523   18.5178 N   0  0  0  0  0  0  0  0  0  0  0  0
    7.3554   -0.6346   19.7698 N   0  0  0  0  0  0  0  0  0  0  0  0
   10.4117    1.1285   23.3080 N   0  0  0  0  0  0  0  0  0  0  0  0
    9.9518   -1.4561   22.3784 N   0  0  0  0  0  0  0  0  0  0  0  0
   11.4273   -0.0968   25.0079 O   0  0  0  0  0  0  0  0  0  0  0  0
    9.7997    0.1504   20.6446 O   0  0  0  0  0  0  0  0  0  0  0  0
    7.1320   -5.4058   25.1953 O   0  0  0  0  0  0  0  0  0  0  0  0
    3.6646    2.8611   18.8762 H   0  0  0  0  0  0  0  0  0  0  0  0
    3.9954    2.2208   21.2357 H   0  0  0  0  0  0  0  0  0  0  0  0
    5.0525    1.8533   17.0757 H   0  0  0  0  0  0  0  0  0  0  0  0
    5.7323    0.5445   21.8723 H   0  0  0  0  0  0  0  0  0  0  0  0
    9.8862   -4.1005   21.8414 H   0  0  0  0  0  0  0  0  0  0  0  0
    8.3843   -1.0991   24.5466 H   0  0  0  0  0  0  0  0  0  0  0  0
    8.6461   -5.8340   23.0812 H   0  0  0  0  0  0  0  0  0  0  0  0
    7.1464   -2.8367   25.7824 H   0  0  0  0  0  0  0  0  0  0  0  0
   14.2295   -2.4732   22.0214 H   0  0  0  0  0  0  0  0  0  0  0  0
   15.2114   -1.4550   23.0719 H   0  0  0  0  0  0  0  0  0  0  0  0
    8.6723    5.2531   23.4755 H   0  0  0  0  0  0  0  0  0  0  0  0
    9.9819    5.1884   24.6594 H   0  0  0  0  0  0  0  0  0  0  0  0
    8.7052    3.9471   26.0732 H   0  0  0  0  0  0  0  0  0  0  0  0
    7.3556    3.9709   24.9341 H   0  0  0  0  0  0  0  0  0  0  0  0
   13.6822    0.4392   22.7736 H   0  0  0  0  0  0  0  0  0  0  0  0
   14.1849   -0.1634   21.1983 H   0  0  0  0  0  0  0  0  0  0  0  0
   13.7624   -3.0240   24.3648 H   0  0  0  0  0  0  0  0  0  0  0  0
   13.4208   -1.3396   24.7427 H   0  0  0  0  0  0  0  0  0  0  0  0
    9.4709    3.3914   22.2904 H   0  0  0  0  0  0  0  0  0  0  0  0
   11.0291    3.9451   22.9329 H   0  0  0  0  0  0  0  0  0  0  0  0
    8.6526    1.6302   25.5690 H   0  0  0  0  0  0  0  0  0  0  0  0
    7.9655    1.9263   23.9606 H   0  0  0  0  0  0  0  0  0  0  0  0
   11.7489    0.3222   21.2833 H   0  0  0  0  0  0  0  0  0  0  0  0
   12.0947   -1.3608   20.8883 H   0  0  0  0  0  0  0  0  0  0  0  0
   11.8234   -3.1861   22.9130 H   0  0  0  0  0  0  0  0  0  0  0  0
   11.3226   -2.5635   24.4838 H   0  0  0  0  0  0  0  0  0  0  0  0
   10.8598    2.4233   24.8528 H   0  0  0  0  0  0  0  0  0  0  0  0
    5.8687   -5.8406   26.7723 H   0  0  0  0  0  0  0  0  0  0  0  0
    5.6184   -4.2468   25.9942 H   0  0  0  0  0  0  0  0  0  0  0  0
    7.0297   -4.5163   27.0506 H   0  0  0  0  0  0  0  0  0  0  0  0
    8.0556   -2.3995   20.6004 H   0  0  0  0  0  0  0  0  0  0  0  0
    7.2653   -1.2693   21.7377 H   0  0  0  0  0  0  0  0  0  0  0  0
   10.1494    1.1015   22.3273 H   0  0  0  0  0  0  0  0  0  0  0  0
  1  2  1  0  0  0  0
  1  3  2  0  0  0  0
  2  4  2  0  0  0  0
  3  9  1  0  0  0  0
  4 10  1  0  0  0  0
  5  7  2  0  0  0  0
  5 11  1  0  0  0  0
  6  8  1  0  0  0  0
  6 11  2  0  0  0  0
  7 12  1  0  0  0  0
  8 12  2  0  0  0  0
  9 10  2  0  0  0  0
  9 28  1  0  0  0  0
 10 30  1  0  0  0  0
 11 32  1  0  0  0  0
 12 35  1  0  0  0  0
 13 25  1  0  0  0  0
 13 31  1  0  0  0  0
 13 33  2  0  0  0  0
 14 27  1  0  0  0  0
 14 32  1  0  0  0  0
 14 34  2  0  0  0  0
 15 18  1  0  0  0  0
 15 19  1  0  0  0  0
 16 17  1  0  0  0  0
 16 20  1  0  0  0  0
 17 21  1  0  0  0  0
 18 22  1  0  0  0  0
 19 23  1  0  0  0  0
 20 24  1  0  0  0  0
 21 24  1  0  0  0  0
 22 25  1  0  0  0  0
 23 25  1  0  0  0  0
 24 31  1  0  0  0  0
 25 32  1  0  0  0  0
 26 35  1  0  0  0  0
 27 30  1  0  0  0  0
 28 29  2  0  0  0  0
 29 30  1  0  0  0  0
  1 36  1  0  0  0  0
  2 37  1  0  0  0  0
  3 38  1  0  0  0  0
  4 39  1  0  0  0  0
  5 40  1  0  0  0  0
  6 41  1  0  0  0  0
  7 42  1  0  0  0  0
  8 43  1  0  0  0  0
 15 44  1  0  0  0  0
 15 45  1  0  0  0  0
 16 46  1  0  0  0  0
 16 47  1  0  0  0  0
 17 48  1  0  0  0  0
 17 49  1  0  0  0  0
 18 50  1  0  0  0  0
 18 51  1  0  0  0  0
 19 52  1  0  0  0  0
 19 53  1  0  0  0  0
 20 54  1  0  0  0  0
 20 55  1  0  0  0  0
 21 56  1  0  0  0  0
 21 57  1  0  0  0  0
 22 58  1  0  0  0  0
 22 59  1  0  0  0  0
 23 60  1  0  0  0  0
 23 61  1  0  0  0  0
 24 62  1  0  0  0  0
 26 63  1  0  0  0  0
 26 64  1  0  0  0  0
 26 65  1  0  0  0  0
 27 66  1  0  0  0  0
 27 67  1  0  0  0  0
 31 68  1  0  0  0  0
M  END
> <paper/assay>
https://pubchem.ncbi.nlm.nih.gov/bioassay/1890

> <IC50 (um)>
7.887

> <real_space>
FALSE

> <SCR>
FALSE

> <BB>
FALSE

> <molport_or_mcule>
FALSE

> <PDB>
FALSE

> <Hybrid2>
-9.619914

> <docked_fragment>
x0678

> <Mpro-_dock>
5.271349

> <site>
active-noncovalent

$$$$
1177253
  -OEChem-04162001263D

 36 38  0     0  0  0  0  0  0999 V2000
   10.6181    7.5565   24.4898 C   0  0  0  0  0  0  0  0  0  0  0  0
   11.7722    6.9259   24.9546 C   0  0  0  0  0  0  0  0  0  0  0  0
    9.6445    6.8199   23.8150 C   0  0  0  0  0  0  0  0  0  0  0  0
    6.8617   -4.7698   26.9287 C   0  0  0  0  0  0  0  0  0  0  0  0
   11.9528    5.5589   24.7445 C   0  0  0  0  0  0  0  0  0  0  0  0
    9.8251    5.4528   23.6049 C   0  0  0  0  0  0  0  0  0  0  0  0
    7.3939   -3.4869   26.6108 C   0  0  0  0  0  0  0  0  0  0  0  0
    7.6015   -5.7895   26.3714 C   0  0  0  0  0  0  0  0  0  0  0  0
   12.2481    2.9598   23.1337 C   0  0  0  0  0  0  0  0  0  0  0  0
   10.9793    4.8223   24.0696 C   0  0  0  0  0  0  0  0  0  0  0  0
   11.1651    3.4148   23.8530 C   0  0  0  0  0  0  0  0  0  0  0  0
   10.3366    2.3476   24.3057 C   0  0  0  0  0  0  0  0  0  0  0  0
    8.5205   -3.5749   25.8227 C   0  0  0  0  0  0  0  0  0  0  0  0
   10.8180    1.1174   23.9147 C   0  0  0  0  0  0  0  0  0  0  0  0
    9.3553   -2.4847   25.2879 C   0  0  0  0  0  0  0  0  0  0  0  0
   10.0574   -2.5533   24.1471 C   0  0  0  0  0  0  0  0  0  0  0  0
    9.0609    2.5376   25.1318 C   0  0  0  0  0  0  0  0  0  0  0  0
   10.8809   -1.3872   23.7029 C   0  0  0  0  0  0  0  0  0  0  0  0
   10.3417   -0.1468   24.1312 N   0  0  0  0  0  0  0  0  0  0  0  0
    8.4404    1.4888   25.4529 O   0  5  0  0  0  0  0  0  0  0  0  0
    8.7485    3.7252   25.4145 O   0  0  0  0  0  0  0  0  0  0  0  0
   11.9021   -1.5428   23.0437 O   0  0  0  0  0  0  0  0  0  0  0  0
    8.9319   -5.1992   25.4692 S   0  0  0  0  0  0  0  0  0  0  0  0
   12.2632    1.2522   23.0062 S   0  0  0  0  0  0  0  0  0  0  0  0
   10.4768    8.6207   24.6542 H   0  0  0  0  0  0  0  0  0  0  0  0
   12.5297    7.4990   25.4811 H   0  0  0  0  0  0  0  0  0  0  0  0
    8.7454    7.3108   23.4543 H   0  0  0  0  0  0  0  0  0  0  0  0
    5.9803   -4.9361   27.5344 H   0  0  0  0  0  0  0  0  0  0  0  0
   12.8580    5.0818   25.1129 H   0  0  0  0  0  0  0  0  0  0  0  0
    9.0568    4.8927   23.0770 H   0  0  0  0  0  0  0  0  0  0  0  0
    6.9650   -2.5513   26.9478 H   0  0  0  0  0  0  0  0  0  0  0  0
    7.4241   -6.8526   26.4504 H   0  0  0  0  0  0  0  0  0  0  0  0
   13.0369    3.5389   22.6719 H   0  0  0  0  0  0  0  0  0  0  0  0
    9.3912   -1.5874   25.9013 H   0  0  0  0  0  0  0  0  0  0  0  0
   10.0585   -3.4442   23.5281 H   0  0  0  0  0  0  0  0  0  0  0  0
    9.4647   -0.2067   24.6854 H   0  0  0  0  0  0  0  0  0  0  0  0
  1  2  1  0  0  0  0
  1  3  2  0  0  0  0
  2  5  2  0  0  0  0
  3  6  1  0  0  0  0
  4  7  1  0  0  0  0
  4  8  2  0  0  0  0
  5 10  1  0  0  0  0
  6 10  2  0  0  0  0
  7 13  2  0  0  0  0
  8 23  1  0  0  0  0
  9 11  2  0  0  0  0
  9 24  1  0  0  0  0
 10 11  1  0  0  0  0
 11 12  1  0  0  0  0
 12 14  2  0  0  0  0
 12 17  1  0  0  0  0
 13 15  1  0  0  0  0
 13 23  1  0  0  0  0
 14 19  1  0  0  0  0
 14 24  1  0  0  0  0
 15 16  2  0  0  0  0
 16 18  1  0  0  0  0
 17 20  1  0  0  0  0
 17 21  2  0  0  0  0
 18 19  1  0  0  0  0
 18 22  2  0  0  0  0
  1 25  1  0  0  0  0
  2 26  1  0  0  0  0
  3 27  1  0  0  0  0
  4 28  1  0  0  0  0
  5 29  1  0  0  0  0
  6 30  1  0  0  0  0
  7 31  1  0  0  0  0
  8 32  1  0  0  0  0
  9 33  1  0  0  0  0
 15 34  1  0  0  0  0
 16 35  1  0  0  0  0
 19 36  1  0  0  0  0
M  CHG  1  20  -1
M  END
> <paper/assay>
https://pubchem.ncbi.nlm.nih.gov/bioassay/1890

> <IC50 (um)>
5.219

> <real_space>
FALSE

> <SCR>
FALSE

> <BB>
EN300-804992

> <molport_or_mcule>
['https://www.molport.com/shop/molecule-link/MolPort-000-222-483', 'https://mcule.com/MCULE-7408784201/']

> <PDB>
FALSE

> <Hybrid2>
-9.529073

> <docked_fragment>
x0104

> <Mpro-_dock>
7.82874

> <site>
active-noncovalent

$$$$
MAC-5576
  -OEChem-04162001263D

 21 22  0     0  0  0  0  0  0999 V2000
   13.9680   -1.6641   21.7530 C   0  0  0  0  0  0  0  0  0  0  0  0
   12.6731   -1.4266   21.2081 C   0  0  0  0  0  0  0  0  0  0  0  0
    7.6304    0.1333   20.7364 C   0  0  0  0  0  0  0  0  0  0  0  0
    9.0467   -0.3144   18.8789 C   0  0  0  0  0  0  0  0  0  0  0  0
    6.9557    0.5567   18.4954 C   0  0  0  0  0  0  0  0  0  0  0  0
   14.2832   -0.7659   22.7487 C   0  0  0  0  0  0  0  0  0  0  0  0
    8.8492   -0.3266   20.2503 C   0  0  0  0  0  0  0  0  0  0  0  0
    6.6601    0.5851   19.8488 C   0  0  0  0  0  0  0  0  0  0  0  0
   12.0477   -0.3558   21.8084 C   0  0  0  0  0  0  0  0  0  0  0  0
   10.7029    0.2114   21.5330 C   0  0  0  0  0  0  0  0  0  0  0  0
    8.1282    0.1169   17.9858 N   0  0  0  0  0  0  0  0  0  0  0  0
   10.4306    1.3924   21.6883 O   0  0  0  0  0  0  0  0  0  0  0  0
    9.8134   -0.7744   21.0920 O   0  0  0  0  0  0  0  0  0  0  0  0
   13.0208    0.3581   23.0232 S   0  0  0  0  0  0  0  0  0  0  0  0
    4.9958    1.2139   20.4664 Br  0  0  0  0  0  0  0  0  0  0  0  0
   14.6348   -2.4530   21.4302 H   0  0  0  0  0  0  0  0  0  0  0  0
   12.2275   -2.0151   20.4160 H   0  0  0  0  0  0  0  0  0  0  0  0
    7.4457    0.1349   21.8079 H   0  0  0  0  0  0  0  0  0  0  0  0
    9.9791   -0.6612   18.4448 H   0  0  0  0  0  0  0  0  0  0  0  0
    6.2423    0.8956   17.7504 H   0  0  0  0  0  0  0  0  0  0  0  0
   15.1949   -0.7155   23.3272 H   0  0  0  0  0  0  0  0  0  0  0  0
  1  2  1  0  0  0  0
  1  6  2  0  0  0  0
  2  9  2  0  0  0  0
  3  7  2  0  0  0  0
  3  8  1  0  0  0  0
  4  7  1  0  0  0  0
  4 11  2  0  0  0  0
  5  8  2  0  0  0  0
  5 11  1  0  0  0  0
  6 14  1  0  0  0  0
  7 13  1  0  0  0  0
  8 15  1  0  0  0  0
  9 10  1  0  0  0  0
  9 14  1  0  0  0  0
 10 12  2  0  0  0  0
 10 13  1  0  0  0  0
  1 16  1  0  0  0  0
  2 17  1  0  0  0  0
  3 18  1  0  0  0  0
  4 19  1  0  0  0  0
  5 20  1  0  0  0  0
  6 21  1  0  0  0  0
M  END
> <paper/assay>
https://doi.org/10.1016/j.chembiol.2004.08.011

> <IC50 (um)>
0.5

> <real_space>
FALSE

> <SCR>
FALSE

> <BB>
FALSE

> <molport_or_mcule>
FALSE

> <PDB>
FALSE

> <Hybrid2>
-9.501300

> <docked_fragment>
x0678

> <Mpro-_dock>
-0.877993

> <site>
active-noncovalent

$$$$
2939288
  -OEChem-04162001263D

 45 48  0     1  0  0  0  0  0999 V2000
    7.0240    0.7106   18.6719 C   0  0  0  0  0  0  0  0  0  0  0  0
    5.6528   -3.2536   23.4931 C   0  0  0  0  0  0  0  0  0  0  0  0
    5.5971   -4.1989   24.5172 C   0  0  0  0  0  0  0  0  0  0  0  0
    7.3771    0.1167   19.9071 C   0  0  0  0  0  0  0  0  0  0  0  0
    7.8658   -3.6537   25.1438 C   0  0  0  0  0  0  0  0  0  0  0  0
    6.1382   -0.1538   18.0719 C   0  0  0  0  0  0  0  0  0  0  0  0
   10.9189   -1.1182   22.9955 C   0  0  0  0  0  0  0  0  0  0  0  0
   10.7974   -0.5947   24.3161 C   0  0  0  0  0  0  0  0  0  0  0  0
    7.9215   -2.7084   24.1197 C   0  0  0  0  0  0  0  0  0  0  0  0
    6.8150   -2.5084   23.2943 C   0  0  0  0  0  0  0  0  0  0  0  0
    6.7036   -4.3990   25.3426 C   0  0  0  0  0  0  0  0  0  0  0  0
    6.6817   -1.0682   19.9740 C   0  0  0  0  0  0  0  0  0  0  0  0
    9.8499   -1.9623   22.7892 C   0  0  0  0  0  0  0  0  0  0  0  0
    9.6607   -1.1415   24.8701 C   0  0  0  0  0  0  0  0  0  0  0  0
    6.6352   -2.1260   21.0155 C   0  0  0  0  0  0  0  0  0  0  0  0
   12.0174   -0.7407   22.0647 C   0  0  0  0  0  0  0  0  0  0  0  0
   11.7830    0.3470   24.9200 C   0  0  0  0  0  0  0  0  0  0  0  0
   13.1708   -0.0491   22.8126 C   0  0  0  0  0  0  0  0  0  0  0  0
   12.6976    0.9945   23.8528 C   0  0  1  0  0  0  0  0  0  0  0  0
   12.0140    2.1907   23.1823 C   0  0  0  0  0  0  0  0  0  0  0  0
    9.0944   -1.9689   23.9340 N   0  0  0  0  0  0  0  0  0  0  0  0
    6.4295   -3.3039   20.7637 O   0  0  0  0  0  0  0  0  0  0  0  0
    5.9240   -1.2405   18.8591 O   0  0  0  0  0  0  0  0  0  0  0  0
    9.5154   -2.6896   21.7298 O   0  0  0  0  0  0  0  0  0  0  0  0
    9.1163   -0.9716   26.0694 O   0  0  0  0  0  0  0  0  0  0  0  0
    6.8448   -1.5896   22.2871 O   0  0  0  0  0  0  0  0  0  0  0  0
    6.6332   -5.5647   26.6070 Cl  0  0  0  0  0  0  0  0  0  0  0  0
    7.3722    1.6507   18.2690 H   0  0  0  0  0  0  0  0  0  0  0  0
    4.7872   -3.1031   22.8535 H   0  0  0  0  0  0  0  0  0  0  0  0
    4.6853   -4.7730   24.6599 H   0  0  0  0  0  0  0  0  0  0  0  0
    8.0549    0.5072   20.6529 H   0  0  0  0  0  0  0  0  0  0  0  0
    8.7286   -3.8090   25.7887 H   0  0  0  0  0  0  0  0  0  0  0  0
    5.6001   -0.1419   17.1353 H   0  0  0  0  0  0  0  0  0  0  0  0
   12.3943   -1.6490   21.5794 H   0  0  0  0  0  0  0  0  0  0  0  0
   11.6438   -0.0782   21.2763 H   0  0  0  0  0  0  0  0  0  0  0  0
   11.2276    1.1276   25.4610 H   0  0  0  0  0  0  0  0  0  0  0  0
   12.4001   -0.1783   25.6628 H   0  0  0  0  0  0  0  0  0  0  0  0
   13.7898   -0.8207   23.3018 H   0  0  0  0  0  0  0  0  0  0  0  0
   13.8306    0.4479   22.0785 H   0  0  0  0  0  0  0  0  0  0  0  0
   13.6034    1.3769   24.3706 H   0  0  0  0  0  0  0  0  0  0  0  0
   11.1175    1.8591   22.6611 H   0  0  0  0  0  0  0  0  0  0  0  0
   12.6934    2.6503   22.4663 H   0  0  0  0  0  0  0  0  0  0  0  0
   11.7372    2.9272   23.9350 H   0  0  0  0  0  0  0  0  0  0  0  0
   10.1560   -2.5847   20.9922 H   0  0  0  0  0  0  0  0  0  0  0  0
    9.6341   -0.3486   26.6254 H   0  0  0  0  0  0  0  0  0  0  0  0
  1  4  1  0  0  0  0
  1  6  2  0  0  0  0
  2  3  2  0  0  0  0
  2 10  1  0  0  0  0
  3 11  1  0  0  0  0
  4 12  2  0  0  0  0
  5  9  1  0  0  0  0
  5 11  2  0  0  0  0
  6 23  1  0  0  0  0
  7  8  1  0  0  0  0
  7 13  2  0  0  0  0
  7 16  1  0  0  0  0
  8 14  2  0  0  0  0
  8 17  1  0  0  0  0
  9 10  2  0  0  0  0
  9 21  1  0  0  0  0
 10 26  1  0  0  0  0
 11 27  1  0  0  0  0
 12 15  1  0  0  0  0
 12 23  1  0  0  0  0
 13 21  1  0  0  0  0
 13 24  1  0  0  0  0
 14 21  1  0  0  0  0
 14 25  1  0  0  0  0
 15 22  2  0  0  0  0
 15 26  1  0  0  0  0
 16 18  1  0  0  0  0
 17 19  1  0  0  0  0
 18 19  1  0  0  0  0
 19 20  1  0  0  0  0
  1 28  1  0  0  0  0
  2 29  1  0  0  0  0
  3 30  1  0  0  0  0
  4 31  1  0  0  0  0
  5 32  1  0  0  0  0
  6 33  1  0  0  0  0
 16 34  1  0  0  0  0
 16 35  1  0  0  0  0
 17 36  1  0  0  0  0
 17 37  1  0  0  0  0
 18 38  1  0  0  0  0
 18 39  1  0  0  0  0
 19 40  1  0  0  0  0
 20 41  1  0  0  0  0
 20 42  1  0  0  0  0
 20 43  1  0  0  0  0
 24 44  1  0  0  0  0
 25 45  1  0  0  0  0
M  END
> <paper/assay>
https://pubchem.ncbi.nlm.nih.gov/bioassay/1890

> <IC50 (um)>
5.395

> <real_space>
FALSE

> <SCR>
FALSE

> <BB>
FALSE

> <molport_or_mcule>
FALSE

> <PDB>
FALSE

> <Hybrid2>
-9.458717

> <docked_fragment>
x1392

> <Mpro-_dock>
0.783482

> <site>
active-covalent

$$$$
135451179
  -OEChem-04162001263D

 37 40  0     0  0  0  0  0  0999 V2000
    8.9759   -4.3612   24.4543 C   0  0  0  0  0  0  0  0  0  0  0  0
    8.0889   -4.4327   23.3650 C   0  0  0  0  0  0  0  0  0  0  0  0
   11.8206    6.5174   25.4165 C   0  0  0  0  0  0  0  0  0  0  0  0
   10.5113    6.8750   25.0952 C   0  0  0  0  0  0  0  0  0  0  0  0
    9.8661   -3.2929   24.5844 C   0  0  0  0  0  0  0  0  0  0  0  0
    8.0749   -3.4367   22.3841 C   0  0  0  0  0  0  0  0  0  0  0  0
   12.3456    5.3085   24.9595 C   0  0  0  0  0  0  0  0  0  0  0  0
    9.7268    6.0238   24.3169 C   0  0  0  0  0  0  0  0  0  0  0  0
    9.8411   -2.3162   23.6079 C   0  0  0  0  0  0  0  0  0  0  0  0
    8.9580   -2.3777   22.5140 C   0  0  0  0  0  0  0  0  0  0  0  0
   11.5612    4.4573   24.1813 C   0  0  0  0  0  0  0  0  0  0  0  0
   10.2517    4.8149   23.8600 C   0  0  0  0  0  0  0  0  0  0  0  0
   10.0327   -0.5368   22.1363 C   0  0  0  0  0  0  0  0  0  0  0  0
   10.5852   -1.0895   23.3931 C   0  0  0  0  0  0  0  0  0  0  0  0
   12.1262    0.7313   23.6451 C   0  0  0  0  0  0  0  0  0  0  0  0
   13.1923    0.7741   22.8173 C   0  0  0  0  0  0  0  0  0  0  0  0
   11.4728    2.0081   24.0970 C   0  0  0  0  0  0  0  0  0  0  0  0
   13.2352    3.2364   22.8564 C   0  0  0  0  0  0  0  0  0  0  0  0
   11.5538   -0.5198   24.1078 C   0  0  0  0  0  0  0  0  0  0  0  0
    9.0905   -1.2795   21.6246 N   0  0  0  0  0  0  0  0  0  0  0  0
   13.6881    1.9980   22.4404 N   0  0  0  0  0  0  0  0  0  0  0  0
   12.1088    3.2036   23.7084 N   0  0  0  0  0  0  0  0  0  0  0  0
   13.8852   -0.1371   22.2873 O   0  5  0  0  0  0  0  0  0  0  0  0
   10.4072    1.9434   24.7131 O   0  0  0  0  0  0  0  0  0  0  0  0
   13.8445    4.2521   22.5097 O   0  0  0  0  0  0  0  0  0  0  0  0
    9.4884    4.0047   23.1126 F   0  0  0  0  0  0  0  0  0  0  0  0
    8.9671   -5.1491   25.2029 H   0  0  0  0  0  0  0  0  0  0  0  0
    7.4063   -5.2749   23.2862 H   0  0  0  0  0  0  0  0  0  0  0  0
   12.4307    7.1801   26.0231 H   0  0  0  0  0  0  0  0  0  0  0  0
   10.1023    7.8160   25.4513 H   0  0  0  0  0  0  0  0  0  0  0  0
   10.5481   -3.2421   25.4257 H   0  0  0  0  0  0  0  0  0  0  0  0
    7.3880   -3.4979   21.5469 H   0  0  0  0  0  0  0  0  0  0  0  0
   13.3672    5.0404   25.2166 H   0  0  0  0  0  0  0  0  0  0  0  0
    8.7076    6.3021   24.0670 H   0  0  0  0  0  0  0  0  0  0  0  0
   10.4085    0.4070   21.7174 H   0  0  0  0  0  0  0  0  0  0  0  0
   11.9320   -0.9560   25.0249 H   0  0  0  0  0  0  0  0  0  0  0  0
   14.4900    1.9816   21.8161 H   0  0  0  0  0  0  0  0  0  0  0  0
  1  2  1  0  0  0  0
  1  5  2  0  0  0  0
  2  6  2  0  0  0  0
  3  4  1  0  0  0  0
  3  7  2  0  0  0  0
  4  8  2  0  0  0  0
  5  9  1  0  0  0  0
  6 10  1  0  0  0  0
  7 11  1  0  0  0  0
  8 12  1  0  0  0  0
  9 10  2  0  0  0  0
  9 14  1  0  0  0  0
 10 20  1  0  0  0  0
 11 12  2  0  0  0  0
 11 22  1  0  0  0  0
 12 26  1  0  0  0  0
 13 14  1  0  0  0  0
 13 20  2  0  0  0  0
 14 19  2  0  0  0  0
 15 16  2  0  0  0  0
 15 17  1  0  0  0  0
 15 19  1  0  0  0  0
 16 21  1  0  0  0  0
 16 23  1  0  0  0  0
 17 22  1  0  0  0  0
 17 24  2  0  0  0  0
 18 21  1  0  0  0  0
 18 22  1  0  0  0  0
 18 25  2  0  0  0  0
  1 27  1  0  0  0  0
  2 28  1  0  0  0  0
  3 29  1  0  0  0  0
  4 30  1  0  0  0  0
  5 31  1  0  0  0  0
  6 32  1  0  0  0  0
  7 33  1  0  0  0  0
  8 34  1  0  0  0  0
 13 35  1  0  0  0  0
 19 36  1  0  0  0  0
 21 37  1  0  0  0  0
M  CHG  1  23  -1
M  END
> <paper/assay>
https://pubchem.ncbi.nlm.nih.gov/bioassay/1890

> <IC50 (um)>
9.466

> <real_space>
FALSE

> <SCR>
FALSE

> <BB>
FALSE

> <molport_or_mcule>
FALSE

> <PDB>
FALSE

> <Hybrid2>
-9.455291

> <docked_fragment>
x0946

> <Mpro-_dock>
1.79771

> <site>
active-noncovalent

$$$$
tideglusib
  -OEChem-04162001263D

 38 41  0     0  0  0  0  0  0999 V2000
   14.6493   -2.3028   23.0069 C   0  0  0  0  0  0  0  0  0  0  0  0
    3.8819    1.9539   20.7024 C   0  0  0  0  0  0  0  0  0  0  0  0
    4.6575    1.8123   21.8493 C   0  0  0  0  0  0  0  0  0  0  0  0
   14.3722   -1.7633   24.2629 C   0  0  0  0  0  0  0  0  0  0  0  0
   13.9557   -1.8496   21.8847 C   0  0  0  0  0  0  0  0  0  0  0  0
    7.4621    0.0115   18.0414 C   0  0  0  0  0  0  0  0  0  0  0  0
    4.3813    1.5428   19.4663 C   0  0  0  0  0  0  0  0  0  0  0  0
    5.9354    1.2591   21.7644 C   0  0  0  0  0  0  0  0  0  0  0  0
    6.1841    0.5646   18.1263 C   0  0  0  0  0  0  0  0  0  0  0  0
   13.4014   -0.7706   24.3969 C   0  0  0  0  0  0  0  0  0  0  0  0
   12.9850   -0.8569   22.0186 C   0  0  0  0  0  0  0  0  0  0  0  0
    8.2377   -0.1301   19.1883 C   0  0  0  0  0  0  0  0  0  0  0  0
    5.6655    0.9839   19.3622 C   0  0  0  0  0  0  0  0  0  0  0  0
    6.4542    0.8399   20.5285 C   0  0  0  0  0  0  0  0  0  0  0  0
   12.7078   -0.3174   23.2747 C   0  0  0  0  0  0  0  0  0  0  0  0
    7.7384    0.2810   20.4244 C   0  0  0  0  0  0  0  0  0  0  0  0
    9.8350    0.6930   21.7204 C   0  0  0  0  0  0  0  0  0  0  0  0
    9.5836   -0.5319   23.7458 C   0  0  0  0  0  0  0  0  0  0  0  0
   11.6627    0.7509   23.4182 C   0  0  0  0  0  0  0  0  0  0  0  0
    8.5627    0.1136   21.5437 N   0  0  0  0  0  0  0  0  0  0  0  0
   10.3579    0.2983   22.9695 N   0  0  0  0  0  0  0  0  0  0  0  0
   10.3999    1.4276   20.9131 O   0  0  0  0  0  0  0  0  0  0  0  0
    9.8225   -0.9997   24.8483 O   0  0  0  0  0  0  0  0  0  0  0  0
    8.0982   -0.8520   22.8768 S   0  0  0  0  0  0  0  0  0  0  0  0
   15.4061   -3.0748   22.9026 H   0  0  0  0  0  0  0  0  0  0  0  0
    2.8871    2.3848   20.7691 H   0  0  0  0  0  0  0  0  0  0  0  0
    4.2677    2.1325   22.8112 H   0  0  0  0  0  0  0  0  0  0  0  0
   14.9129   -2.1153   25.1367 H   0  0  0  0  0  0  0  0  0  0  0  0
   14.1720   -2.2686   20.9064 H   0  0  0  0  0  0  0  0  0  0  0  0
    7.8511   -0.3088   17.0792 H   0  0  0  0  0  0  0  0  0  0  0  0
    3.7575    1.6632   18.5829 H   0  0  0  0  0  0  0  0  0  0  0  0
    6.5092    1.1655   22.6836 H   0  0  0  0  0  0  0  0  0  0  0  0
    5.5954    0.6654   17.2169 H   0  0  0  0  0  0  0  0  0  0  0  0
   13.1920   -0.3562   25.3795 H   0  0  0  0  0  0  0  0  0  0  0  0
   12.4496   -0.5100   21.1387 H   0  0  0  0  0  0  0  0  0  0  0  0
    9.2317   -0.5629   19.1067 H   0  0  0  0  0  0  0  0  0  0  0  0
   11.5702    1.0625   24.4643 H   0  0  0  0  0  0  0  0  0  0  0  0
   11.9271    1.6400   22.8361 H   0  0  0  0  0  0  0  0  0  0  0  0
  1  4  1  0  0  0  0
  1  5  2  0  0  0  0
  2  3  1  0  0  0  0
  2  7  2  0  0  0  0
  3  8  2  0  0  0  0
  4 10  2  0  0  0  0
  5 11  1  0  0  0  0
  6  9  1  0  0  0  0
  6 12  2  0  0  0  0
  7 13  1  0  0  0  0
  8 14  1  0  0  0  0
  9 13  2  0  0  0  0
 10 15  1  0  0  0  0
 11 15  2  0  0  0  0
 12 16  1  0  0  0  0
 13 14  1  0  0  0  0
 14 16  2  0  0  0  0
 15 19  1  0  0  0  0
 16 20  1  0  0  0  0
 17 20  1  0  0  0  0
 17 21  1  0  0  0  0
 17 22  2  0  0  0  0
 18 21  1  0  0  0  0
 18 23  2  0  0  0  0
 18 24  1  0  0  0  0
 19 21  1  0  0  0  0
 20 24  1  0  0  0  0
  1 25  1  0  0  0  0
  2 26  1  0  0  0  0
  3 27  1  0  0  0  0
  4 28  1  0  0  0  0
  5 29  1  0  0  0  0
  6 30  1  0  0  0  0
  7 31  1  0  0  0  0
  8 32  1  0  0  0  0
  9 33  1  0  0  0  0
 10 34  1  0  0  0  0
 11 35  1  0  0  0  0
 12 36  1  0  0  0  0
 19 37  1  0  0  0  0
 19 38  1  0  0  0  0
M  END
> <paper/assay>
https://www.nature.com/articles/s41586-020-2223-y

> <IC50 (um)>
1.39

> <real_space>
FALSE

> <SCR>
FALSE

> <BB>
FALSE

> <molport_or_mcule>
['https://mcule.com/MCULE-3900652558/', 'https://mcule.com/MCULE-3900652558/', 'http://www.sigmaaldrich.com/catalog/search?term=SML0339
SIGMA&interface=All&N=0&mode=match%20partialmax&lang=en&region=US&focus=product', 'http://www.sigmaaldrich.com/catalog/search?term=SML0339&interface=All&N=0&mode=match%20partialmax&lang=en&region=US&focus=product', 'https://www.molport.com/shop/molecule-link/MolPort-028-599-952', 'https://www.molport.com/shop/molecule-link/MolPort-028-599-952']

> <PDB>
FALSE

> <Hybrid2>
-9.413855

> <docked_fragment>
x0678

> <Mpro-_dock>
0.786593

> <site>
active-noncovalent

$$$$
16A
  -OEChem-04162001263D

 51 54  0     0  0  0  0  0  0999 V2000
    4.5955    1.9125   18.3567 C   0  0  0  0  0  0  0  0  0  0  0  0
    4.6053    1.5765   19.7139 C   0  0  0  0  0  0  0  0  0  0  0  0
    5.6306    1.5077   17.5036 C   0  0  0  0  0  0  0  0  0  0  0  0
    5.6466    0.8251   20.2700 C   0  0  0  0  0  0  0  0  0  0  0  0
    9.2233   -4.1479   23.5376 C   0  0  0  0  0  0  0  0  0  0  0  0
    7.8345   -2.6596   24.8388 C   0  0  0  0  0  0  0  0  0  0  0  0
    9.8059   -3.0504   22.9039 C   0  0  0  0  0  0  0  0  0  0  0  0
    8.4172   -1.5620   24.2052 C   0  0  0  0  0  0  0  0  0  0  0  0
   13.2325   -1.2961   24.0421 C   0  0  0  0  0  0  0  0  0  0  0  0
   14.3596   -1.9060   23.5368 C   0  0  0  0  0  0  0  0  0  0  0  0
   12.9762   -0.9078   21.7649 C   0  0  0  0  0  0  0  0  0  0  0  0
   12.4310   -0.7180   23.0157 C   0  0  0  0  0  0  0  0  0  0  0  0
    6.6804    0.7541   18.0486 C   0  0  0  0  0  0  0  0  0  0  0  0
    6.6626    0.4358   19.3997 C   0  0  0  0  0  0  0  0  0  0  0  0
    8.2376   -3.9525   24.5050 C   0  0  0  0  0  0  0  0  0  0  0  0
    9.4029   -1.7574   23.2377 C   0  0  0  0  0  0  0  0  0  0  0  0
    6.6570   -5.0537   26.1271 C   0  0  0  0  0  0  0  0  0  0  0  0
    9.4631   -0.0847   21.3897 C   0  0  0  0  0  0  0  0  0  0  0  0
    5.2529   -6.5168   27.6416 C   0  0  0  0  0  0  0  0  0  0  0  0
   11.1443    0.0127   23.2699 C   0  0  0  0  0  0  0  0  0  0  0  0
    6.3051   -6.4728   26.5480 C   0  0  0  0  0  0  0  0  0  0  0  0
    8.3171   -0.8780   20.7779 C   0  0  0  0  0  0  0  0  0  0  0  0
    7.8064    0.2281   17.4723 N   0  0  0  0  0  0  0  0  0  0  0  0
    8.4930   -0.4077   18.4155 N   0  0  0  0  0  0  0  0  0  0  0  0
    7.8105   -0.2836   19.5659 N   0  0  0  0  0  0  0  0  0  0  0  0
    7.6545   -5.0502   25.1386 N   0  0  0  0  0  0  0  0  0  0  0  0
   10.0079   -0.6171   22.5797 N   0  0  0  0  0  0  0  0  0  0  0  0
    6.1083   -4.0739   26.6204 O   0  0  0  0  0  0  0  0  0  0  0  0
    9.8700    0.9322   20.8220 O   0  0  0  0  0  0  0  0  0  0  0  0
   14.4482   -1.7802   21.8313 S   0  0  0  0  0  0  0  0  0  0  0  0
    3.7716    2.4974   17.9558 H   0  0  0  0  0  0  0  0  0  0  0  0
    3.7876    1.9053   20.3507 H   0  0  0  0  0  0  0  0  0  0  0  0
    5.6146    1.7731   16.4517 H   0  0  0  0  0  0  0  0  0  0  0  0
    5.6557    0.5639   21.3218 H   0  0  0  0  0  0  0  0  0  0  0  0
    9.5454   -5.1508   23.2693 H   0  0  0  0  0  0  0  0  0  0  0  0
    7.0675   -2.4957   25.5914 H   0  0  0  0  0  0  0  0  0  0  0  0
   10.5729   -3.2151   22.1512 H   0  0  0  0  0  0  0  0  0  0  0  0
    8.0949   -0.5591   24.4726 H   0  0  0  0  0  0  0  0  0  0  0  0
   12.9982   -1.2681   25.0988 H   0  0  0  0  0  0  0  0  0  0  0  0
   15.1355   -2.4188   24.0874 H   0  0  0  0  0  0  0  0  0  0  0  0
   12.5845   -0.5767   20.8130 H   0  0  0  0  0  0  0  0  0  0  0  0
    5.5910   -5.9806   28.5344 H   0  0  0  0  0  0  0  0  0  0  0  0
    5.0404   -7.5523   27.9245 H   0  0  0  0  0  0  0  0  0  0  0  0
    4.3182   -6.0550   27.3067 H   0  0  0  0  0  0  0  0  0  0  0  0
   10.9179    0.0347   24.3415 H   0  0  0  0  0  0  0  0  0  0  0  0
   11.2085    1.0516   22.9297 H   0  0  0  0  0  0  0  0  0  0  0  0
    5.9407   -7.0159   25.6684 H   0  0  0  0  0  0  0  0  0  0  0  0
    7.2179   -6.9679   26.8988 H   0  0  0  0  0  0  0  0  0  0  0  0
    8.6489   -1.8916   20.5282 H   0  0  0  0  0  0  0  0  0  0  0  0
    7.4799   -0.9331   21.4821 H   0  0  0  0  0  0  0  0  0  0  0  0
    7.9932   -5.9753   24.8495 H   0  0  0  0  0  0  0  0  0  0  0  0
  1  2  1  0  0  0  0
  1  3  2  0  0  0  0
  2  4  2  0  0  0  0
  3 13  1  0  0  0  0
  4 14  1  0  0  0  0
  5  7  2  0  0  0  0
  5 15  1  0  0  0  0
  6  8  1  0  0  0  0
  6 15  2  0  0  0  0
  7 16  1  0  0  0  0
  8 16  2  0  0  0  0
  9 10  2  0  0  0  0
  9 12  1  0  0  0  0
 10 30  1  0  0  0  0
 11 12  2  0  0  0  0
 11 30  1  0  0  0  0
 12 20  1  0  0  0  0
 13 14  2  0  0  0  0
 13 23  1  0  0  0  0
 14 25  1  0  0  0  0
 15 26  1  0  0  0  0
 16 27  1  0  0  0  0
 17 21  1  0  0  0  0
 17 26  1  0  0  0  0
 17 28  2  0  0  0  0
 18 22  1  0  0  0  0
 18 27  1  0  0  0  0
 18 29  2  0  0  0  0
 19 21  1  0  0  0  0
 20 27  1  0  0  0  0
 22 25  1  0  0  0  0
 23 24  2  0  0  0  0
 24 25  1  0  0  0  0
  1 31  1  0  0  0  0
  2 32  1  0  0  0  0
  3 33  1  0  0  0  0
  4 34  1  0  0  0  0
  5 35  1  0  0  0  0
  6 36  1  0  0  0  0
  7 37  1  0  0  0  0
  8 38  1  0  0  0  0
  9 39  1  0  0  0  0
 10 40  1  0  0  0  0
 11 41  1  0  0  0  0
 19 42  1  0  0  0  0
 19 43  1  0  0  0  0
 19 44  1  0  0  0  0
 20 45  1  0  0  0  0
 20 46  1  0  0  0  0
 21 47  1  0  0  0  0
 21 48  1  0  0  0  0
 22 49  1  0  0  0  0
 22 50  1  0  0  0  0
 26 51  1  0  0  0  0
M  END
> <paper/assay>
http://dx.doi.org/10.1016/j.bmcl.2013.08.112

> <IC50 (um)>
2.9

> <real_space>
FALSE

> <SCR>
FALSE

> <BB>
FALSE

> <molport_or_mcule>
FALSE

> <PDB>
FALSE

> <Hybrid2>
-9.350317

> <docked_fragment>
x0678

> <Mpro-_dock>
3.430965

> <site>
active-noncovalent

$$$$
24817254
  -OEChem-04162001263D

 41 43  0     0  0  0  0  0  0999 V2000
   13.1837    0.7049   24.7203 C   0  0  0  0  0  0  0  0  0  0  0  0
   12.7314    0.2232   22.3964 C   0  0  0  0  0  0  0  0  0  0  0  0
   13.4213   -0.6494   24.9548 C   0  0  0  0  0  0  0  0  0  0  0  0
   12.9691   -1.1312   22.6309 C   0  0  0  0  0  0  0  0  0  0  0  0
   12.8387    1.1412   23.4411 C   0  0  0  0  0  0  0  0  0  0  0  0
   13.3140   -1.5674   23.9101 C   0  0  0  0  0  0  0  0  0  0  0  0
   12.0375    6.8827   24.5431 C   0  0  0  0  0  0  0  0  0  0  0  0
   10.7625    7.0863   25.2178 C   0  0  0  0  0  0  0  0  0  0  0  0
   12.4127    5.6821   24.0696 C   0  0  0  0  0  0  0  0  0  0  0  0
    9.8635    6.1078   25.4202 C   0  0  0  0  0  0  0  0  0  0  0  0
   11.5272    4.5732   24.2402 C   0  0  0  0  0  0  0  0  0  0  0  0
   11.5199    3.2670   23.9142 C   0  0  0  0  0  0  0  0  0  0  0  0
   10.2136    4.7722   24.9272 C   0  0  0  0  0  0  0  0  0  0  0  0
   12.5850    2.5884   23.1892 C   0  0  0  0  0  0  0  0  0  0  0  0
    9.2178    1.8657   21.6898 C   0  0  0  0  0  0  0  0  0  0  0  0
   13.5693   -3.0153   24.1612 C   0  0  0  0  0  0  0  0  0  0  0  0
    8.7761    1.2951   23.0253 C   0  0  0  0  0  0  0  0  0  0  0  0
    9.8740    1.3068   24.0800 C   0  0  0  0  0  0  0  0  0  0  0  0
   10.3616    2.6324   24.3424 N   0  0  0  0  0  0  0  0  0  0  0  0
    9.5379    3.6543   24.9776 N   0  0  0  0  0  0  0  0  0  0  0  0
    8.9986    3.2242   21.6036 N   0  0  0  0  0  0  0  0  0  0  0  0
   13.2940    3.1992   22.3831 O   0  0  0  0  0  0  0  0  0  0  0  0
    9.7229    1.1996   20.7910 O   0  0  0  0  0  0  0  0  0  0  0  0
    8.3895    3.4786   25.4787 O   0  0  0  0  0  0  0  0  0  0  0  0
   13.2700    1.4121   25.5411 H   0  0  0  0  0  0  0  0  0  0  0  0
   12.4632    0.5517   21.3956 H   0  0  0  0  0  0  0  0  0  0  0  0
   13.6899   -0.9804   25.9544 H   0  0  0  0  0  0  0  0  0  0  0  0
   12.8837   -1.8395   21.8109 H   0  0  0  0  0  0  0  0  0  0  0  0
   12.6854    7.7458   24.4311 H   0  0  0  0  0  0  0  0  0  0  0  0
   10.5510    8.0933   25.5641 H   0  0  0  0  0  0  0  0  0  0  0  0
   13.3635    5.5486   23.5683 H   0  0  0  0  0  0  0  0  0  0  0  0
    8.9196    6.2752   25.9212 H   0  0  0  0  0  0  0  0  0  0  0  0
   12.6401   -3.5228   24.4478 H   0  0  0  0  0  0  0  0  0  0  0  0
   13.9744   -3.5091   23.2684 H   0  0  0  0  0  0  0  0  0  0  0  0
   14.3050   -3.1567   24.9637 H   0  0  0  0  0  0  0  0  0  0  0  0
    8.4101    0.2735   22.8661 H   0  0  0  0  0  0  0  0  0  0  0  0
    7.9345    1.9031   23.3783 H   0  0  0  0  0  0  0  0  0  0  0  0
    9.5231    0.8893   25.0292 H   0  0  0  0  0  0  0  0  0  0  0  0
   10.7298    0.7158   23.7392 H   0  0  0  0  0  0  0  0  0  0  0  0
    8.5834    3.7040   22.3953 H   0  0  0  0  0  0  0  0  0  0  0  0
    9.2379    3.7614   20.7763 H   0  0  0  0  0  0  0  0  0  0  0  0
  1  3  2  0  0  0  0
  1  5  1  0  0  0  0
  2  4  1  0  0  0  0
  2  5  2  0  0  0  0
  3  6  1  0  0  0  0
  4  6  2  0  0  0  0
  5 14  1  0  0  0  0
  6 16  1  0  0  0  0
  7  8  1  0  0  0  0
  7  9  2  0  0  0  0
  8 10  2  0  0  0  0
  9 11  1  0  0  0  0
 10 13  1  0  0  0  0
 11 12  2  0  0  0  0
 11 13  1  0  0  0  0
 12 14  1  0  0  0  0
 12 19  1  0  0  0  0
 13 20  2  0  0  0  0
 14 22  2  0  0  0  0
 15 17  1  0  0  0  0
 15 21  1  0  0  0  0
 15 23  2  0  0  0  0
 17 18  1  0  0  0  0
 18 19  1  0  0  0  0
 19 20  1  0  0  0  0
 20 24  2  0  0  0  0
  1 25  1  0  0  0  0
  2 26  1  0  0  0  0
  3 27  1  0  0  0  0
  4 28  1  0  0  0  0
  7 29  1  0  0  0  0
  8 30  1  0  0  0  0
  9 31  1  0  0  0  0
 10 32  1  0  0  0  0
 16 33  1  0  0  0  0
 16 34  1  0  0  0  0
 16 35  1  0  0  0  0
 17 36  1  0  0  0  0
 17 37  1  0  0  0  0
 18 38  1  0  0  0  0
 18 39  1  0  0  0  0
 21 40  1  0  0  0  0
 21 41  1  0  0  0  0
M  END
> <paper/assay>
https://pubchem.ncbi.nlm.nih.gov/bioassay/1890

> <IC50 (um)>
9.357

> <real_space>
FALSE

> <SCR>
FALSE

> <BB>
FALSE

> <molport_or_mcule>
FALSE

> <PDB>
FALSE

> <Hybrid2>
-9.225680

> <docked_fragment>
x0161

> <Mpro-_dock>
0.842562

> <site>
active-noncovalent

$$$$
17584476
  -OEChem-04162001263D

 42 45  0     1  0  0  0  0  0999 V2000
   10.2533    5.8640   25.6729 C   0  0  0  0  0  0  0  0  0  0  0  0
   11.4479    6.5557   25.4715 C   0  0  0  0  0  0  0  0  0  0  0  0
   11.1835    0.0960   24.0817 C   0  0  0  0  0  0  0  0  0  0  0  0
   10.0138    4.6697   24.9931 C   0  0  0  0  0  0  0  0  0  0  0  0
   12.4106    6.0495   24.5977 C   0  0  0  0  0  0  0  0  0  0  0  0
   10.2362   -0.9318   24.1568 C   0  0  0  0  0  0  0  0  0  0  0  0
   11.6070   -2.3926   22.7651 C   0  0  0  0  0  0  0  0  0  0  0  0
   12.5220   -1.3629   22.7084 C   0  0  0  0  0  0  0  0  0  0  0  0
   12.3308   -0.1391   23.3466 C   0  0  0  0  0  0  0  0  0  0  0  0
   10.9697    4.1722   24.1071 C   0  0  0  0  0  0  0  0  0  0  0  0
   12.1763    4.8500   23.9242 C   0  0  0  0  0  0  0  0  0  0  0  0
   10.4461   -2.1633   23.5051 C   0  0  0  0  0  0  0  0  0  0  0  0
   13.8131   -1.2877   22.0300 C   0  0  0  0  0  0  0  0  0  0  0  0
   14.3780    0.0972   22.3223 C   0  0  0  0  0  0  0  0  0  0  0  0
   11.4978    2.8183   22.3089 C   0  0  0  0  0  0  0  0  0  0  0  0
   12.9680    3.0556   22.6326 C   0  0  2  0  0  0  0  0  0  0  0  0
    7.2380   -3.7473   23.1110 C   0  0  0  0  0  0  0  0  0  0  0  0
   13.5398    2.0553   23.6357 C   0  0  0  0  0  0  0  0  0  0  0  0
    8.1478   -2.7220   23.7533 C   0  0  0  0  0  0  0  0  0  0  0  0
   13.4266    0.7301   23.1215 N   0  0  0  0  0  0  0  0  0  0  0  0
   14.3692   -2.1235   21.3598 O   0  0  0  0  0  0  0  0  0  0  0  0
   15.4495    0.4679   21.8939 O   0  0  0  0  0  0  0  0  0  0  0  0
   10.6746    3.0004   23.4622 O   0  0  0  0  0  0  0  0  0  0  0  0
   13.1753    4.3928   23.1066 O   0  0  0  0  0  0  0  0  0  0  0  0
    9.5019   -3.1417   23.6001 O   0  0  0  0  0  0  0  0  0  0  0  0
    9.5105    6.2539   26.3626 H   0  0  0  0  0  0  0  0  0  0  0  0
   11.6269    7.4920   25.9920 H   0  0  0  0  0  0  0  0  0  0  0  0
   11.0078    1.0380   24.5887 H   0  0  0  0  0  0  0  0  0  0  0  0
    9.0873    4.1296   25.1672 H   0  0  0  0  0  0  0  0  0  0  0  0
   13.3339    6.6007   24.4392 H   0  0  0  0  0  0  0  0  0  0  0  0
    9.3247   -0.7730   24.7286 H   0  0  0  0  0  0  0  0  0  0  0  0
   11.7788   -3.3360   22.2599 H   0  0  0  0  0  0  0  0  0  0  0  0
   11.1517    3.5281   21.5434 H   0  0  0  0  0  0  0  0  0  0  0  0
   11.3246    1.8024   21.9167 H   0  0  0  0  0  0  0  0  0  0  0  0
   13.5704    2.9643   21.6784 H   0  0  0  0  0  0  0  0  0  0  0  0
    7.4539   -3.8464   22.0436 H   0  0  0  0  0  0  0  0  0  0  0  0
    7.3603   -4.7250   23.5887 H   0  0  0  0  0  0  0  0  0  0  0  0
    6.1879   -3.4622   23.2340 H   0  0  0  0  0  0  0  0  0  0  0  0
   14.5872    2.3128   23.7953 H   0  0  0  0  0  0  0  0  0  0  0  0
   12.9694    2.1545   24.5596 H   0  0  0  0  0  0  0  0  0  0  0  0
    7.9266   -2.6278   24.8207 H   0  0  0  0  0  0  0  0  0  0  0  0
    8.0249   -1.7460   23.2743 H   0  0  0  0  0  0  0  0  0  0  0  0
  1  2  1  0  0  0  0
  1  4  2  0  0  0  0
  2  5  2  0  0  0  0
  3  6  2  0  0  0  0
  3  9  1  0  0  0  0
  4 10  1  0  0  0  0
  5 11  1  0  0  0  0
  6 12  1  0  0  0  0
  7  8  1  0  0  0  0
  7 12  2  0  0  0  0
  8  9  2  0  0  0  0
  8 13  1  0  0  0  0
  9 20  1  0  0  0  0
 10 11  2  0  0  0  0
 10 23  1  0  0  0  0
 11 24  1  0  0  0  0
 12 25  1  0  0  0  0
 13 14  1  0  0  0  0
 13 21  2  0  0  0  0
 14 20  1  0  0  0  0
 14 22  2  0  0  0  0
 15 16  1  0  0  0  0
 15 23  1  0  0  0  0
 16 18  1  0  0  0  0
 16 24  1  0  0  0  0
 17 19  1  0  0  0  0
 18 20  1  0  0  0  0
 19 25  1  0  0  0  0
  1 26  1  0  0  0  0
  2 27  1  0  0  0  0
  3 28  1  0  0  0  0
  4 29  1  0  0  0  0
  5 30  1  0  0  0  0
  6 31  1  0  0  0  0
  7 32  1  0  0  0  0
 15 33  1  0  0  0  0
 15 34  1  0  0  0  0
 16 35  1  0  0  0  0
 17 36  1  0  0  0  0
 17 37  1  0  0  0  0
 17 38  1  0  0  0  0
 18 39  1  0  0  0  0
 18 40  1  0  0  0  0
 19 41  1  0  0  0  0
 19 42  1  0  0  0  0
M  END
> <paper/assay>
https://pubchem.ncbi.nlm.nih.gov/bioassay/1890

> <IC50 (um)>
4.293

> <real_space>
FALSE

> <SCR>
FALSE

> <BB>
FALSE

> <molport_or_mcule>
FALSE

> <PDB>
FALSE

> <Hybrid2>
-9.207936

> <docked_fragment>
x0195

> <Mpro-_dock>
1.212297

> <site>
active-noncovalent

$$$$
5734490
  -OEChem-04162001263D

 42 44  0     0  0  0  0  0  0999 V2000
   14.2669   -2.6275   26.1593 C   0  0  0  0  0  0  0  0  0  0  0  0
   14.1095   -1.2433   26.2284 C   0  0  0  0  0  0  0  0  0  0  0  0
    7.4433   -0.2704   19.6293 C   0  0  0  0  0  0  0  0  0  0  0  0
   13.3066   -3.4073   25.5146 C   0  0  0  0  0  0  0  0  0  0  0  0
   12.9919   -0.6389   25.6529 C   0  0  0  0  0  0  0  0  0  0  0  0
    5.2872   -4.0009   24.2969 C   0  0  0  0  0  0  0  0  0  0  0  0
    4.9520   -4.9678   25.2447 C   0  0  0  0  0  0  0  0  0  0  0  0
    7.4986   -0.9627   20.8625 C   0  0  0  0  0  0  0  0  0  0  0  0
    7.2486   -5.7165   25.2931 C   0  0  0  0  0  0  0  0  0  0  0  0
    6.5177   -0.9353   18.8591 C   0  0  0  0  0  0  0  0  0  0  0  0
   12.1890   -2.8029   24.9391 C   0  0  0  0  0  0  0  0  0  0  0  0
    7.5837   -4.7496   24.3452 C   0  0  0  0  0  0  0  0  0  0  0  0
   12.0316   -1.4186   25.0083 C   0  0  0  0  0  0  0  0  0  0  0  0
    6.6030   -3.8918   23.8471 C   0  0  0  0  0  0  0  0  0  0  0  0
    5.9327   -5.8256   25.7428 C   0  0  0  0  0  0  0  0  0  0  0  0
    6.6027   -2.0012   20.7581 C   0  0  0  0  0  0  0  0  0  0  0  0
   11.2005   -3.6391   24.2714 C   0  0  0  0  0  0  0  0  0  0  0  0
    9.9029   -3.7458   24.6309 C   0  0  0  0  0  0  0  0  0  0  0  0
    8.9882   -4.6504   23.8802 C   0  0  0  0  0  0  0  0  0  0  0  0
    6.2159   -3.0689   21.7153 C   0  0  0  0  0  0  0  0  0  0  0  0
   11.0656   -0.3831   23.0977 C   0  0  0  0  0  0  0  0  0  0  0  0
    9.3608   -5.3218   22.9243 O   0  0  0  0  0  0  0  0  0  0  0  0
    5.3877   -3.9297   21.4583 O   0  0  0  0  0  0  0  0  0  0  0  0
    6.0005   -1.9915   19.5399 O   0  0  0  0  0  0  0  0  0  0  0  0
    6.9104   -2.9413   22.9199 O   0  0  0  0  0  0  0  0  0  0  0  0
   10.9483   -0.8020   24.4553 O   0  0  0  0  0  0  0  0  0  0  0  0
    5.4781   -7.1352   27.0275 Br  0  0  0  0  0  0  0  0  0  0  0  0
   15.1366   -3.0979   26.6088 H   0  0  0  0  0  0  0  0  0  0  0  0
   14.8575   -0.6373   26.7307 H   0  0  0  0  0  0  0  0  0  0  0  0
    8.0080    0.6034   19.3379 H   0  0  0  0  0  0  0  0  0  0  0  0
   13.4443   -4.4852   25.4710 H   0  0  0  0  0  0  0  0  0  0  0  0
   12.8763    0.4402   25.7099 H   0  0  0  0  0  0  0  0  0  0  0  0
    4.5186   -3.3359   23.9122 H   0  0  0  0  0  0  0  0  0  0  0  0
    3.9221   -5.0394   25.5847 H   0  0  0  0  0  0  0  0  0  0  0  0
    8.1163   -0.7304   21.7183 H   0  0  0  0  0  0  0  0  0  0  0  0
    8.0168   -6.3833   25.6789 H   0  0  0  0  0  0  0  0  0  0  0  0
    6.1354   -0.7913   17.8592 H   0  0  0  0  0  0  0  0  0  0  0  0
   11.5655   -4.2291   23.4245 H   0  0  0  0  0  0  0  0  0  0  0  0
    9.5085   -3.2005   25.4802 H   0  0  0  0  0  0  0  0  0  0  0  0
   10.1344    0.0927   22.7806 H   0  0  0  0  0  0  0  0  0  0  0  0
   11.2786   -1.2488   22.4654 H   0  0  0  0  0  0  0  0  0  0  0  0
   11.8850    0.3351   23.0168 H   0  0  0  0  0  0  0  0  0  0  0  0
  1  2  1  0  0  0  0
  1  4  2  0  0  0  0
  2  5  2  0  0  0  0
  3  8  1  0  0  0  0
  3 10  2  0  0  0  0
  4 11  1  0  0  0  0
  5 13  1  0  0  0  0
  6  7  2  0  0  0  0
  6 14  1  0  0  0  0
  7 15  1  0  0  0  0
  8 16  2  0  0  0  0
  9 12  1  0  0  0  0
  9 15  2  0  0  0  0
 10 24  1  0  0  0  0
 11 13  2  0  0  0  0
 11 17  1  0  0  0  0
 12 14  2  0  0  0  0
 12 19  1  0  0  0  0
 13 26  1  0  0  0  0
 14 25  1  0  0  0  0
 15 27  1  0  0  0  0
 16 20  1  0  0  0  0
 16 24  1  0  0  0  0
 17 18  2  0  0  0  0
 18 19  1  0  0  0  0
 19 22  2  0  0  0  0
 20 23  2  0  0  0  0
 20 25  1  0  0  0  0
 21 26  1  0  0  0  0
  1 28  1  0  0  0  0
  2 29  1  0  0  0  0
  3 30  1  0  0  0  0
  4 31  1  0  0  0  0
  5 32  1  0  0  0  0
  6 33  1  0  0  0  0
  7 34  1  0  0  0  0
  8 35  1  0  0  0  0
  9 36  1  0  0  0  0
 10 37  1  0  0  0  0
 17 38  1  0  0  0  0
 18 39  1  0  0  0  0
 21 40  1  0  0  0  0
 21 41  1  0  0  0  0
 21 42  1  0  0  0  0
M  END
> <paper/assay>
https://pubchem.ncbi.nlm.nih.gov/bioassay/1890

> <IC50 (um)>
8.939

> <real_space>
FALSE

> <SCR>
FALSE

> <BB>
FALSE

> <molport_or_mcule>
['https://mcule.com/MCULE-6080442345/', 'https://www.molport.com/shop/molecule-link/MolPort-000-424-576']

> <PDB>
FALSE

> <Hybrid2>
-9.201124

> <docked_fragment>
x0749

> <Mpro-_dock>
2.231246

> <site>
active-covalent

$$$$
shikonin
  -OEChem-04162001263D

 35 36  0     1  0  0  0  0  0999 V2000
   12.4812   -1.6697   23.2620 C   0  0  0  0  0  0  0  0  0  0  0  0
   13.6668   -1.2930   22.6338 C   0  0  0  0  0  0  0  0  0  0  0  0
   11.8966    0.6594   23.5544 C   0  0  0  0  0  0  0  0  0  0  0  0
   13.0836    1.0385   22.9257 C   0  0  0  0  0  0  0  0  0  0  0  0
   11.5944   -0.6967   23.7232 C   0  0  0  0  0  0  0  0  0  0  0  0
   13.9706    0.0584   22.4643 C   0  0  0  0  0  0  0  0  0  0  0  0
   11.3150    3.0986   23.8444 C   0  0  0  0  0  0  0  0  0  0  0  0
   10.9541    1.6803   24.0443 C   0  0  0  0  0  0  0  0  0  0  0  0
   13.4159    2.4657   22.7409 C   0  0  0  0  0  0  0  0  0  0  0  0
   12.4486    3.4790   23.2440 C   0  0  0  0  0  0  0  0  0  0  0  0
   10.5217    6.0130   22.6900 C   0  0  0  0  0  0  0  0  0  0  0  0
    9.2464    6.2301   23.0640 C   0  0  0  0  0  0  0  0  0  0  0  0
    8.0751    6.3361   22.1290 C   0  0  0  0  0  0  0  0  0  0  0  0
    8.8936    6.3752   24.5204 C   0  0  0  0  0  0  0  0  0  0  0  0
   11.7373    5.8966   23.5733 C   0  0  0  0  0  0  0  0  0  0  0  0
   12.7995    4.9236   23.0480 C   0  0  2  0  0  0  0  0  0  0  0  0
   10.5248   -1.1251   24.2906 O   0  5  0  0  0  0  0  0  0  0  0  0
   15.0823    0.3185   21.8759 O   0  5  0  0  0  0  0  0  0  0  0  0
    9.8925    1.4355   24.6056 O   0  0  0  0  0  0  0  0  0  0  0  0
   14.4431    2.8573   22.1969 O   0  0  0  0  0  0  0  0  0  0  0  0
   13.0324    5.1484   21.6621 O   0  0  0  0  0  0  0  0  0  0  0  0
   12.2765   -2.7336   23.3774 H   0  0  0  0  0  0  0  0  0  0  0  0
   14.3359   -2.0795   22.2861 H   0  0  0  0  0  0  0  0  0  0  0  0
   10.6058    3.8336   24.2130 H   0  0  0  0  0  0  0  0  0  0  0  0
   10.7258    5.8804   21.6282 H   0  0  0  0  0  0  0  0  0  0  0  0
    7.5873    5.3798   21.9290 H   0  0  0  0  0  0  0  0  0  0  0  0
    8.3966    6.7554   21.1700 H   0  0  0  0  0  0  0  0  0  0  0  0
    7.3134    6.9979   22.5557 H   0  0  0  0  0  0  0  0  0  0  0  0
    8.9586    7.4253   24.8236 H   0  0  0  0  0  0  0  0  0  0  0  0
    9.5851    5.7915   25.1370 H   0  0  0  0  0  0  0  0  0  0  0  0
    7.8788    6.0281   24.7415 H   0  0  0  0  0  0  0  0  0  0  0  0
   12.1978    6.8783   23.7246 H   0  0  0  0  0  0  0  0  0  0  0  0
   11.3997    5.5713   24.5659 H   0  0  0  0  0  0  0  0  0  0  0  0
   13.7431    5.1068   23.5710 H   0  0  0  0  0  0  0  0  0  0  0  0
   13.7678    4.5693   21.4061 H   0  0  0  0  0  0  0  0  0  0  0  0
  1  2  1  0  0  0  0
  1  5  2  0  0  0  0
  2  6  2  0  0  0  0
  3  4  2  0  0  0  0
  3  5  1  0  0  0  0
  3  8  1  0  0  0  0
  4  6  1  0  0  0  0
  4  9  1  0  0  0  0
  5 17  1  0  0  0  0
  6 18  1  0  0  0  0
  7  8  1  0  0  0  0
  7 10  2  0  0  0  0
  8 19  2  0  0  0  0
  9 10  1  0  0  0  0
  9 20  2  0  0  0  0
 10 16  1  0  0  0  0
 11 12  2  0  0  0  0
 11 15  1  0  0  0  0
 12 13  1  0  0  0  0
 12 14  1  0  0  0  0
 15 16  1  0  0  0  0
 16 21  1  0  0  0  0
  1 22  1  0  0  0  0
  2 23  1  0  0  0  0
  7 24  1  0  0  0  0
 11 25  1  0  0  0  0
 13 26  1  0  0  0  0
 13 27  1  0  0  0  0
 13 28  1  0  0  0  0
 14 29  1  0  0  0  0
 14 30  1  0  0  0  0
 14 31  1  0  0  0  0
 15 32  1  0  0  0  0
 15 33  1  0  0  0  0
 16 34  1  0  0  0  0
 21 35  1  0  0  0  0
M  CHG  2  17  -1  18  -1
M  END
> <paper/assay>
https://www.nature.com/articles/s41586-020-2223-y

> <IC50 (um)>
15.75

> <real_space>
FALSE

> <SCR>
FALSE

> <BB>
FALSE

> <molport_or_mcule>
FALSE

> <PDB>
FALSE

> <Hybrid2>
-9.158545

> <docked_fragment>
x0195

> <Mpro-_dock>
-0.720244

> <site>
active-noncovalent

$$$$
1
  -OEChem-04162001263D

 21 22  0     0  0  0  0  0  0999 V2000
   13.3689   -1.5096   22.1676 C   0  0  0  0  0  0  0  0  0  0  0  0
   12.7615   -0.4836   21.4050 C   0  0  0  0  0  0  0  0  0  0  0  0
    6.9260    0.3196   20.5492 C   0  0  0  0  0  0  0  0  0  0  0  0
    8.5420   -0.1636   18.8723 C   0  0  0  0  0  0  0  0  0  0  0  0
    6.4755    0.6096   18.2320 C   0  0  0  0  0  0  0  0  0  0  0  0
   12.3511   -2.1270   22.8567 C   0  0  0  0  0  0  0  0  0  0  0  0
    8.2030   -0.1174   20.2150 C   0  0  0  0  0  0  0  0  0  0  0  0
    6.0396    0.6918   19.5447 C   0  0  0  0  0  0  0  0  0  0  0  0
   11.4157   -0.5473   21.6822 C   0  0  0  0  0  0  0  0  0  0  0  0
   10.2696    0.2610   21.1933 C   0  0  0  0  0  0  0  0  0  0  0  0
    7.7081    0.1900   17.8686 N   0  0  0  0  0  0  0  0  0  0  0  0
   10.3702    1.4336   20.8645 O   0  0  0  0  0  0  0  0  0  0  0  0
   11.1573   -1.5465   22.5662 O   0  0  0  0  0  0  0  0  0  0  0  0
    9.0881   -0.4881   21.1730 O   0  0  0  0  0  0  0  0  0  0  0  0
    4.3007    1.2872   19.9552 Br  0  0  0  0  0  0  0  0  0  0  0  0
   14.4175   -1.7664   22.2104 H   0  0  0  0  0  0  0  0  0  0  0  0
   13.2480    0.2136   20.7377 H   0  0  0  0  0  0  0  0  0  0  0  0
    6.6307    0.3656   21.5947 H   0  0  0  0  0  0  0  0  0  0  0  0
    9.5251   -0.4958   18.5545 H   0  0  0  0  0  0  0  0  0  0  0  0
    5.8331    0.8857   17.4013 H   0  0  0  0  0  0  0  0  0  0  0  0
   12.3131   -2.9491   23.5563 H   0  0  0  0  0  0  0  0  0  0  0  0
  1  2  1  0  0  0  0
  1  6  2  0  0  0  0
  2  9  2  0  0  0  0
  3  7  2  0  0  0  0
  3  8  1  0  0  0  0
  4  7  1  0  0  0  0
  4 11  2  0  0  0  0
  5  8  2  0  0  0  0
  5 11  1  0  0  0  0
  6 13  1  0  0  0  0
  7 14  1  0  0  0  0
  8 15  1  0  0  0  0
  9 10  1  0  0  0  0
  9 13  1  0  0  0  0
 10 12  2  0  0  0  0
 10 14  1  0  0  0  0
  1 16  1  0  0  0  0
  2 17  1  0  0  0  0
  3 18  1  0  0  0  0
  4 19  1  0  0  0  0
  5 20  1  0  0  0  0
  6 21  1  0  0  0  0
M  END
> <paper/assay>
https://doi.org/10.1021/jm061425k

> <IC50 (um)>
0.05

> <real_space>
FALSE

> <SCR>
FALSE

> <BB>
FALSE

> <molport_or_mcule>
FALSE

> <PDB>
FALSE

> <Hybrid2>
-9.152252

> <docked_fragment>
x0678

> <Mpro-_dock>
-0.224609

> <site>
active-noncovalent

$$$$
728528
  -OEChem-04162001263D

 30 32  0     0  0  0  0  0  0999 V2000
    8.9924    7.1520   23.3687 C   0  0  0  0  0  0  0  0  0  0  0  0
   13.9442    1.4627   22.4002 C   0  0  0  0  0  0  0  0  0  0  0  0
   13.7997    2.8502   22.2865 C   0  0  0  0  0  0  0  0  0  0  0  0
   10.0018    6.3290   22.8148 C   0  0  0  0  0  0  0  0  0  0  0  0
   11.5848    2.7084   23.2231 C   0  0  0  0  0  0  0  0  0  0  0  0
    9.4178    7.4781   24.6354 C   0  0  0  0  0  0  0  0  0  0  0  0
   12.9114    0.6758   22.9272 C   0  0  0  0  0  0  0  0  0  0  0  0
   11.7438    1.3256   23.3302 C   0  0  0  0  0  0  0  0  0  0  0  0
   12.6217    3.4719   22.6974 C   0  0  0  0  0  0  0  0  0  0  0  0
   10.9722    6.2109   23.7825 C   0  0  0  0  0  0  0  0  0  0  0  0
   11.9447   -1.4420   23.5925 C   0  0  0  0  0  0  0  0  0  0  0  0
   12.9919   -0.7836   23.0760 C   0  0  0  0  0  0  0  0  0  0  0  0
   10.7062   -0.7710   24.0221 C   0  0  0  0  0  0  0  0  0  0  0  0
   12.2654    5.4805   23.7973 C   0  0  0  0  0  0  0  0  0  0  0  0
   14.2340   -1.5110   22.6503 C   0  0  0  0  0  0  0  0  0  0  0  0
    9.7679   -1.4068   24.4897 O   0  0  0  0  0  0  0  0  0  0  0  0
   13.0224    5.4802   24.7565 O   0  0  0  0  0  0  0  0  0  0  0  0
   10.6238    6.9085   24.8954 O   0  0  0  0  0  0  0  0  0  0  0  0
   10.6589    0.6060   23.8698 O   0  0  0  0  0  0  0  0  0  0  0  0
   12.4883    4.8211   22.5857 O   0  0  0  0  0  0  0  0  0  0  0  0
    8.0699    7.4675   22.9032 H   0  0  0  0  0  0  0  0  0  0  0  0
   14.8793    1.0192   22.0680 H   0  0  0  0  0  0  0  0  0  0  0  0
   14.6150    3.4397   21.8753 H   0  0  0  0  0  0  0  0  0  0  0  0
   10.0162    5.8795   21.8320 H   0  0  0  0  0  0  0  0  0  0  0  0
   10.6628    3.1834   23.5468 H   0  0  0  0  0  0  0  0  0  0  0  0
    9.0000    8.0731   25.4344 H   0  0  0  0  0  0  0  0  0  0  0  0
   11.9697   -2.5206   23.7162 H   0  0  0  0  0  0  0  0  0  0  0  0
   14.9245   -1.5688   23.4881 H   0  0  0  0  0  0  0  0  0  0  0  0
   14.7023   -0.9770   21.8267 H   0  0  0  0  0  0  0  0  0  0  0  0
   13.9715   -2.5143   22.3228 H   0  0  0  0  0  0  0  0  0  0  0  0
  1  4  1  0  0  0  0
  1  6  2  0  0  0  0
  2  3  2  0  0  0  0
  2  7  1  0  0  0  0
  3  9  1  0  0  0  0
  4 10  2  0  0  0  0
  5  8  1  0  0  0  0
  5  9  2  0  0  0  0
  6 18  1  0  0  0  0
  7  8  2  0  0  0  0
  7 12  1  0  0  0  0
  8 19  1  0  0  0  0
  9 20  1  0  0  0  0
 10 14  1  0  0  0  0
 10 18  1  0  0  0  0
 11 12  2  0  0  0  0
 11 13  1  0  0  0  0
 12 15  1  0  0  0  0
 13 16  2  0  0  0  0
 13 19  1  0  0  0  0
 14 17  2  0  0  0  0
 14 20  1  0  0  0  0
  1 21  1  0  0  0  0
  2 22  1  0  0  0  0
  3 23  1  0  0  0  0
  4 24  1  0  0  0  0
  5 25  1  0  0  0  0
  6 26  1  0  0  0  0
 11 27  1  0  0  0  0
 15 28  1  0  0  0  0
 15 29  1  0  0  0  0
 15 30  1  0  0  0  0
M  END
> <paper/assay>
https://pubchem.ncbi.nlm.nih.gov/bioassay/1890

> <IC50 (um)>
3.341

> <real_space>
Z30906287

> <SCR>
FALSE

> <BB>
FALSE

> <molport_or_mcule>
['https://mcule.com/MCULE-9374158399/', 'https://www.molport.com/shop/molecule-link/MolPort-000-659-699', 'http://www.sigmaaldrich.com/catalog/search?term=S256617
ALDRICH&interface=All&N=0&mode=match%20partialmax&lang=en&region=US&focus=product', 'http://www.sigmaaldrich.com/catalog/search?term=S256617&interface=All&N=0&mode=match%20partialmax&lang=en&region=US&focus=product']

> <PDB>
FALSE

> <Hybrid2>
-9.151100

> <docked_fragment>
x0195

> <Mpro-_dock>
1.92332

> <site>
active-noncovalent

$$$$
2
  -OEChem-04162001263D

 21 22  0     0  0  0  0  0  0999 V2000
    5.9618    1.0456   19.3535 C   0  0  0  0  0  0  0  0  0  0  0  0
   12.6496   -1.8338   22.5046 C   0  0  0  0  0  0  0  0  0  0  0  0
    6.8549    0.7075   20.3641 C   0  0  0  0  0  0  0  0  0  0  0  0
   11.3158   -1.3666   22.4290 C   0  0  0  0  0  0  0  0  0  0  0  0
    6.3370    0.7907   18.0442 C   0  0  0  0  0  0  0  0  0  0  0  0
    8.3591   -0.0812   18.6993 C   0  0  0  0  0  0  0  0  0  0  0  0
   13.3565   -1.1259   21.5607 C   0  0  0  0  0  0  0  0  0  0  0  0
    8.0787    0.1330   20.0392 C   0  0  0  0  0  0  0  0  0  0  0  0
   11.3027   -0.4062   21.4443 C   0  0  0  0  0  0  0  0  0  0  0  0
   10.2060    0.4389   20.9066 C   0  0  0  0  0  0  0  0  0  0  0  0
    7.5169    0.2341   17.6898 N   0  0  0  0  0  0  0  0  0  0  0  0
   10.3863    1.5579   20.4501 O   0  0  0  0  0  0  0  0  0  0  0  0
   12.5428   -0.2534   20.9101 O   0  0  0  0  0  0  0  0  0  0  0  0
    8.9687   -0.2072   21.0037 O   0  0  0  0  0  0  0  0  0  0  0  0
    5.0025    1.4948   19.5837 H   0  0  0  0  0  0  0  0  0  0  0  0
   13.0460   -2.5923   23.1640 H   0  0  0  0  0  0  0  0  0  0  0  0
    6.5926    0.8942   21.4016 H   0  0  0  0  0  0  0  0  0  0  0  0
   10.4719   -1.6923   23.0204 H   0  0  0  0  0  0  0  0  0  0  0  0
    5.6751    1.0366   17.2202 H   0  0  0  0  0  0  0  0  0  0  0  0
    9.2992   -0.5259   18.3883 H   0  0  0  0  0  0  0  0  0  0  0  0
   14.3896   -1.1257   21.2450 H   0  0  0  0  0  0  0  0  0  0  0  0
  1  3  2  0  0  0  0
  1  5  1  0  0  0  0
  2  4  1  0  0  0  0
  2  7  2  0  0  0  0
  3  8  1  0  0  0  0
  4  9  2  0  0  0  0
  5 11  2  0  0  0  0
  6  8  2  0  0  0  0
  6 11  1  0  0  0  0
  7 13  1  0  0  0  0
  8 14  1  0  0  0  0
  9 10  1  0  0  0  0
  9 13  1  0  0  0  0
 10 12  2  0  0  0  0
 10 14  1  0  0  0  0
  1 15  1  0  0  0  0
  2 16  1  0  0  0  0
  3 17  1  0  0  0  0
  4 18  1  0  0  0  0
  5 19  1  0  0  0  0
  6 20  1  0  0  0  0
  7 21  1  0  0  0  0
M  END
> <paper/assay>
https://doi.org/10.1021/jm061425k

> <IC50 (um)>
7.9

> <real_space>
FALSE

> <SCR>
FALSE

> <BB>
BBV-104780793

> <molport_or_mcule>
['https://mcule.com/MCULE-1679850225/', 'https://mcule.com/MCULE-2233180961/', 'https://www.molport.com/shop/molecule-link/MolPort-000-734-579', 'https://www.molport.com/shop/molecule-link/MolPort-002-576-741']

> <PDB>
FALSE

> <Hybrid2>
-9.149232

> <docked_fragment>
x0678

> <Mpro-_dock>
0.070518

> <site>
active-noncovalent

$$$$
11a
  -OEChem-04162001263D

 34 37  0     1  0  0  0  0  0999 V2000
   13.5748   -1.8423   23.1211 C   0  0  0  0  0  0  0  0  0  0  0  0
   13.8276   -0.6936   23.8572 C   0  0  0  0  0  0  0  0  0  0  0  0
   12.2605   -2.2558   22.8878 C   0  0  0  0  0  0  0  0  0  0  0  0
   12.7764    0.0655   24.3749 C   0  0  0  0  0  0  0  0  0  0  0  0
    9.0182   -0.7624   23.9369 C   0  0  0  0  0  0  0  0  0  0  0  0
   11.1725   -1.5079   23.3994 C   0  0  0  0  0  0  0  0  0  0  0  0
    9.7578   -1.7267   23.2945 C   0  0  0  0  0  0  0  0  0  0  0  0
   11.4526   -0.3540   24.1379 C   0  0  0  0  0  0  0  0  0  0  0  0
    8.5757   -5.5965   25.8820 C   0  0  0  0  0  0  0  0  0  0  0  0
    8.8368   -4.5340   25.0979 C   0  0  0  0  0  0  0  0  0  0  0  0
    6.1207   -5.4876   25.2824 C   0  0  0  0  0  0  0  0  0  0  0  0
    6.4207   -4.4278   24.5258 C   0  0  0  0  0  0  0  0  0  0  0  0
    5.6700   -3.9987   23.3378 C   0  0  0  0  0  0  0  0  0  0  0  0
    6.6753   -3.3048   22.4454 C   0  0  0  0  0  0  0  0  0  0  0  0
    7.1720   -6.0832   26.1894 C   0  0  2  0  0  0  0  0  0  0  0  0
    7.7275   -3.6957   24.5424 C   0  0  2  0  0  0  0  0  0  0  0  0
    9.1379   -2.8823   22.5635 C   0  0  0  0  0  0  0  0  0  0  0  0
    7.8723   -3.2804   23.1509 N   0  0  0  0  0  0  0  0  0  0  0  0
    4.5105   -4.1762   23.0492 O   0  0  0  0  0  0  0  0  0  0  0  0
    6.3796   -2.9066   21.3379 O   0  0  0  0  0  0  0  0  0  0  0  0
   10.0055    0.4160   24.6729 S   0  0  0  0  0  0  0  0  0  0  0  0
    6.6929   -5.6166   28.2140 I   0  0  0  0  0  0  0  0  0  0  0  0
   14.4011   -2.4250   22.7238 H   0  0  0  0  0  0  0  0  0  0  0  0
   14.8529   -0.3794   24.0329 H   0  0  0  0  0  0  0  0  0  0  0  0
   12.0827   -3.1587   22.3086 H   0  0  0  0  0  0  0  0  0  0  0  0
   12.9843    0.9631   24.9500 H   0  0  0  0  0  0  0  0  0  0  0  0
    7.9415   -0.6926   24.0098 H   0  0  0  0  0  0  0  0  0  0  0  0
    9.4079   -6.1526   26.3066 H   0  0  0  0  0  0  0  0  0  0  0  0
    9.8677   -4.2346   24.9383 H   0  0  0  0  0  0  0  0  0  0  0  0
    5.1846   -6.0223   25.1507 H   0  0  0  0  0  0  0  0  0  0  0  0
    7.1612   -7.1701   26.0431 H   0  0  0  0  0  0  0  0  0  0  0  0
    7.6343   -2.7769   25.1354 H   0  0  0  0  0  0  0  0  0  0  0  0
    8.9563   -2.6231   21.5147 H   0  0  0  0  0  0  0  0  0  0  0  0
    9.8004   -3.7543   22.5729 H   0  0  0  0  0  0  0  0  0  0  0  0
  1  2  1  0  0  0  0
  1  3  2  0  0  0  0
  2  4  2  0  0  0  0
  3  6  1  0  0  0  0
  4  8  1  0  0  0  0
  5  7  2  0  0  0  0
  5 21  1  0  0  0  0
  6  7  1  0  0  0  0
  6  8  2  0  0  0  0
  7 17  1  0  0  0  0
  8 21  1  0  0  0  0
  9 10  2  0  0  0  0
  9 15  1  0  0  0  0
 10 16  1  0  0  0  0
 11 12  2  0  0  0  0
 11 15  1  0  0  0  0
 12 13  1  0  0  0  0
 12 16  1  0  0  0  0
 13 14  1  0  0  0  0
 13 19  2  0  0  0  0
 14 18  1  0  0  0  0
 14 20  2  0  0  0  0
 15 22  1  0  0  0  0
 16 18  1  0  0  0  0
 17 18  1  0  0  0  0
  1 23  1  0  0  0  0
  2 24  1  0  0  0  0
  3 25  1  0  0  0  0
  4 26  1  0  0  0  0
  5 27  1  0  0  0  0
  9 28  1  0  0  0  0
 10 29  1  0  0  0  0
 11 30  1  0  0  0  0
 15 31  1  0  0  0  0
 16 32  1  0  0  0  0
 17 33  1  0  0  0  0
 17 34  1  0  0  0  0
M  END
> <paper/assay>
http://dx.doi.org/10.1021/jm301580n

> <IC50 (um)>
0.95

> <real_space>
FALSE

> <SCR>
FALSE

> <BB>
FALSE

> <molport_or_mcule>
FALSE

> <PDB>
FALSE

> <Hybrid2>
-9.137547

> <docked_fragment>
x0072

> <Mpro-_dock>
0.117609

> <site>
active-noncovalent

$$$$
24817257
  -OEChem-04162001263D

 38 40  0     0  0  0  0  0  0999 V2000
    9.0377   -0.8595   22.3653 C   0  0  0  0  0  0  0  0  0  0  0  0
    9.0585   -1.3465   24.7316 C   0  0  0  0  0  0  0  0  0  0  0  0
    8.4292   -2.0899   22.1174 C   0  0  0  0  0  0  0  0  0  0  0  0
    8.4500   -2.5769   24.4838 C   0  0  0  0  0  0  0  0  0  0  0  0
    9.3524   -0.4878   23.6724 C   0  0  0  0  0  0  0  0  0  0  0  0
    8.1353   -2.9486   23.1766 C   0  0  0  0  0  0  0  0  0  0  0  0
   13.5018   -1.7965   22.7358 C   0  0  0  0  0  0  0  0  0  0  0  0
   14.5824   -1.0269   22.1337 C   0  0  0  0  0  0  0  0  0  0  0  0
   12.3713   -1.2185   23.1767 C   0  0  0  0  0  0  0  0  0  0  0  0
   14.5428    0.3062   21.9670 C   0  0  0  0  0  0  0  0  0  0  0  0
   12.2338    0.1984   23.0496 C   0  0  0  0  0  0  0  0  0  0  0  0
   11.2973    1.1211   23.3398 C   0  0  0  0  0  0  0  0  0  0  0  0
   13.3351    0.9975   22.4286 C   0  0  0  0  0  0  0  0  0  0  0  0
   10.0024    0.8272   23.9377 C   0  0  0  0  0  0  0  0  0  0  0  0
   10.9020    6.0318   23.8324 C   0  0  0  0  0  0  0  0  0  0  0  0
   11.6394    4.7049   23.8417 C   0  0  0  0  0  0  0  0  0  0  0  0
   10.9778    3.6402   22.9778 C   0  0  0  0  0  0  0  0  0  0  0  0
   11.7052    2.4013   22.9898 N   0  0  0  0  0  0  0  0  0  0  0  0
   13.0256    2.2668   22.3861 N   0  0  0  0  0  0  0  0  0  0  0  0
   10.8143    6.5723   22.5671 N   0  0  0  0  0  0  0  0  0  0  0  0
    9.4259    1.6593   24.6453 O   0  0  0  0  0  0  0  0  0  0  0  0
   10.4270    6.5611   24.8329 O   0  0  0  0  0  0  0  0  0  0  0  0
   13.7276    3.2082   21.9152 O   0  0  0  0  0  0  0  0  0  0  0  0
    7.3834   -4.4657   22.8709 Cl  0  0  0  0  0  0  0  0  0  0  0  0
    9.2628   -0.1983   21.5325 H   0  0  0  0  0  0  0  0  0  0  0  0
    9.2991   -1.0670   25.7541 H   0  0  0  0  0  0  0  0  0  0  0  0
    8.1889   -2.3665   21.0940 H   0  0  0  0  0  0  0  0  0  0  0  0
    8.2272   -3.2358   25.3191 H   0  0  0  0  0  0  0  0  0  0  0  0
   13.6395   -2.8697   22.8170 H   0  0  0  0  0  0  0  0  0  0  0  0
   15.4547   -1.5856   21.8088 H   0  0  0  0  0  0  0  0  0  0  0  0
   11.5766   -1.8060   23.6200 H   0  0  0  0  0  0  0  0  0  0  0  0
   15.3527    0.8635   21.5160 H   0  0  0  0  0  0  0  0  0  0  0  0
   11.7231    4.3578   24.8787 H   0  0  0  0  0  0  0  0  0  0  0  0
   12.6527    4.8915   23.4663 H   0  0  0  0  0  0  0  0  0  0  0  0
    9.9575    3.4282   23.3132 H   0  0  0  0  0  0  0  0  0  0  0  0
   10.9358    3.9731   21.9361 H   0  0  0  0  0  0  0  0  0  0  0  0
   11.2266    6.0673   21.7897 H   0  0  0  0  0  0  0  0  0  0  0  0
   10.3519    7.4575   22.3856 H   0  0  0  0  0  0  0  0  0  0  0  0
  1  3  2  0  0  0  0
  1  5  1  0  0  0  0
  2  4  1  0  0  0  0
  2  5  2  0  0  0  0
  3  6  1  0  0  0  0
  4  6  2  0  0  0  0
  5 14  1  0  0  0  0
  6 24  1  0  0  0  0
  7  8  1  0  0  0  0
  7  9  2  0  0  0  0
  8 10  2  0  0  0  0
  9 11  1  0  0  0  0
 10 13  1  0  0  0  0
 11 12  2  0  0  0  0
 11 13  1  0  0  0  0
 12 14  1  0  0  0  0
 12 18  1  0  0  0  0
 13 19  2  0  0  0  0
 14 21  2  0  0  0  0
 15 16  1  0  0  0  0
 15 20  1  0  0  0  0
 15 22  2  0  0  0  0
 16 17  1  0  0  0  0
 17 18  1  0  0  0  0
 18 19  1  0  0  0  0
 19 23  2  0  0  0  0
  1 25  1  0  0  0  0
  2 26  1  0  0  0  0
  3 27  1  0  0  0  0
  4 28  1  0  0  0  0
  7 29  1  0  0  0  0
  8 30  1  0  0  0  0
  9 31  1  0  0  0  0
 10 32  1  0  0  0  0
 16 33  1  0  0  0  0
 16 34  1  0  0  0  0
 17 35  1  0  0  0  0
 17 36  1  0  0  0  0
 20 37  1  0  0  0  0
 20 38  1  0  0  0  0
M  END
> <paper/assay>
https://pubchem.ncbi.nlm.nih.gov/bioassay/1890

> <IC50 (um)>
4.877

> <real_space>
FALSE

> <SCR>
FALSE

> <BB>
FALSE

> <molport_or_mcule>
FALSE

> <PDB>
FALSE

> <Hybrid2>
-9.136329

> <docked_fragment>
x0195

> <Mpro-_dock>
0.731771

> <site>
active-noncovalent

$$$$
16K
  -OEChem-04162001263D

 53 57  0     0  0  0  0  0  0999 V2000
    5.5265   -6.0370   23.5074 C   0  0  0  0  0  0  0  0  0  0  0  0
    8.7442    7.2422   23.2577 C   0  0  0  0  0  0  0  0  0  0  0  0
    8.6275    6.0111   22.6051 C   0  0  0  0  0  0  0  0  0  0  0  0
    4.8073   -5.3614   22.5216 C   0  0  0  0  0  0  0  0  0  0  0  0
    6.5170   -5.3703   24.2286 C   0  0  0  0  0  0  0  0  0  0  0  0
    9.8354    7.5183   24.0920 C   0  0  0  0  0  0  0  0  0  0  0  0
    9.5937    5.0109   22.7602 C   0  0  0  0  0  0  0  0  0  0  0  0
    5.0787   -4.0191   22.2568 C   0  0  0  0  0  0  0  0  0  0  0  0
    6.7884   -4.0280   23.9638 C   0  0  0  0  0  0  0  0  0  0  0  0
    7.4316    0.1413   23.0942 C   0  0  0  0  0  0  0  0  0  0  0  0
    8.7651   -1.8195   22.6312 C   0  0  0  0  0  0  0  0  0  0  0  0
    8.5930    0.9071   23.1960 C   0  0  0  0  0  0  0  0  0  0  0  0
    9.9265   -1.0536   22.7329 C   0  0  0  0  0  0  0  0  0  0  0  0
   13.7976   -1.4172   22.6575 C   0  0  0  0  0  0  0  0  0  0  0  0
   14.4454   -2.1467   23.6301 C   0  0  0  0  0  0  0  0  0  0  0  0
   13.1285   -0.3009   24.5832 C   0  0  0  0  0  0  0  0  0  0  0  0
   13.0348   -0.3478   23.2096 C   0  0  0  0  0  0  0  0  0  0  0  0
   10.8109    6.5240   24.2559 C   0  0  0  0  0  0  0  0  0  0  0  0
   10.6679    5.3117   23.5950 C   0  0  0  0  0  0  0  0  0  0  0  0
    6.0693   -3.3523   22.9779 C   0  0  0  0  0  0  0  0  0  0  0  0
    7.5177   -1.2221   22.8119 C   0  0  0  0  0  0  0  0  0  0  0  0
    9.8404    0.3097   23.0153 C   0  0  0  0  0  0  0  0  0  0  0  0
   11.1062    2.2358   23.9663 C   0  0  0  0  0  0  0  0  0  0  0  0
   12.2242    0.6131   22.3889 C   0  0  0  0  0  0  0  0  0  0  0  0
   12.1567    3.2754   23.6023 C   0  0  0  0  0  0  0  0  0  0  0  0
   11.9653    6.5065   24.9933 N   0  0  0  0  0  0  0  0  0  0  0  0
   12.5488    5.3260   24.8166 N   0  0  0  0  0  0  0  0  0  0  0  0
   11.7745    4.6127   23.9822 N   0  0  0  0  0  0  0  0  0  0  0  0
    6.3435   -1.9970   22.7109 N   0  0  0  0  0  0  0  0  0  0  0  0
   11.0468    1.1052   23.1209 N   0  0  0  0  0  0  0  0  0  0  0  0
   10.4022    2.4064   24.9650 O   0  0  0  0  0  0  0  0  0  0  0  0
   14.1330   -1.5422   25.2015 S   0  0  0  0  0  0  0  0  0  0  0  0
    5.3152   -7.0824   23.7134 H   0  0  0  0  0  0  0  0  0  0  0  0
    7.9761    7.9983   23.1160 H   0  0  0  0  0  0  0  0  0  0  0  0
    7.7689    5.8266   21.9640 H   0  0  0  0  0  0  0  0  0  0  0  0
    4.0364   -5.8806   21.9602 H   0  0  0  0  0  0  0  0  0  0  0  0
    7.0770   -5.8967   24.9963 H   0  0  0  0  0  0  0  0  0  0  0  0
    9.9176    8.4764   24.5944 H   0  0  0  0  0  0  0  0  0  0  0  0
    9.5047    4.0561   22.2550 H   0  0  0  0  0  0  0  0  0  0  0  0
    4.5128   -3.5017   21.4865 H   0  0  0  0  0  0  0  0  0  0  0  0
    7.5625   -3.5187   24.5323 H   0  0  0  0  0  0  0  0  0  0  0  0
    6.4650    0.6171   23.2379 H   0  0  0  0  0  0  0  0  0  0  0  0
    8.8438   -2.8810   22.4110 H   0  0  0  0  0  0  0  0  0  0  0  0
    8.5144    1.9685   23.4176 H   0  0  0  0  0  0  0  0  0  0  0  0
   10.8939   -1.5287   22.5915 H   0  0  0  0  0  0  0  0  0  0  0  0
   13.8700   -1.6437   21.6012 H   0  0  0  0  0  0  0  0  0  0  0  0
   15.0865   -3.0060   23.4931 H   0  0  0  0  0  0  0  0  0  0  0  0
   12.6559    0.4004   25.2570 H   0  0  0  0  0  0  0  0  0  0  0  0
   12.8286    1.4800   22.1005 H   0  0  0  0  0  0  0  0  0  0  0  0
   11.8713    0.1412   21.4659 H   0  0  0  0  0  0  0  0  0  0  0  0
   13.1021    3.0520   24.1083 H   0  0  0  0  0  0  0  0  0  0  0  0
   12.3178    3.2838   22.5189 H   0  0  0  0  0  0  0  0  0  0  0  0
    5.5377   -1.4736   22.3814 H   0  0  0  0  0  0  0  0  0  0  0  0
  1  4  1  0  0  0  0
  1  5  2  0  0  0  0
  2  3  1  0  0  0  0
  2  6  2  0  0  0  0
  3  7  2  0  0  0  0
  4  8  2  0  0  0  0
  5  9  1  0  0  0  0
  6 18  1  0  0  0  0
  7 19  1  0  0  0  0
  8 20  1  0  0  0  0
  9 20  2  0  0  0  0
 10 12  2  0  0  0  0
 10 21  1  0  0  0  0
 11 13  1  0  0  0  0
 11 21  2  0  0  0  0
 12 22  1  0  0  0  0
 13 22  2  0  0  0  0
 14 15  2  0  0  0  0
 14 17  1  0  0  0  0
 15 32  1  0  0  0  0
 16 17  2  0  0  0  0
 16 32  1  0  0  0  0
 17 24  1  0  0  0  0
 18 19  2  0  0  0  0
 18 26  1  0  0  0  0
 19 28  1  0  0  0  0
 20 29  1  0  0  0  0
 21 29  1  0  0  0  0
 22 30  1  0  0  0  0
 23 25  1  0  0  0  0
 23 30  1  0  0  0  0
 23 31  2  0  0  0  0
 24 30  1  0  0  0  0
 25 28  1  0  0  0  0
 26 27  2  0  0  0  0
 27 28  1  0  0  0  0
  1 33  1  0  0  0  0
  2 34  1  0  0  0  0
  3 35  1  0  0  0  0
  4 36  1  0  0  0  0
  5 37  1  0  0  0  0
  6 38  1  0  0  0  0
  7 39  1  0  0  0  0
  8 40  1  0  0  0  0
  9 41  1  0  0  0  0
 10 42  1  0  0  0  0
 11 43  1  0  0  0  0
 12 44  1  0  0  0  0
 13 45  1  0  0  0  0
 14 46  1  0  0  0  0
 15 47  1  0  0  0  0
 16 48  1  0  0  0  0
 24 49  1  0  0  0  0
 24 50  1  0  0  0  0
 25 51  1  0  0  0  0
 25 52  1  0  0  0  0
 29 53  1  0  0  0  0
M  END
> <paper/assay>
http://dx.doi.org/10.1016/j.bmcl.2013.08.112

> <IC50 (um)>
1.5

> <real_space>
FALSE

> <SCR>
FALSE

> <BB>
FALSE

> <molport_or_mcule>
FALSE

> <PDB>
FALSE

> <Hybrid2>
-9.090625

> <docked_fragment>
x0161

> <Mpro-_dock>
5.120904

> <site>
active-noncovalent

$$$$
3196509
  -OEChem-04162001263D

 61 64  0     1  0  0  0  0  0999 V2000
    5.7943    1.1756   19.7159 C   0  0  0  0  0  0  0  0  0  0  0  0
    9.4160    3.5754   24.7536 C   0  0  0  0  0  0  0  0  0  0  0  0
    6.3479    0.4336   20.7533 C   0  0  0  0  0  0  0  0  0  0  0  0
   12.2977   -1.0889   22.1027 C   0  0  0  0  0  0  0  0  0  0  0  0
   11.9353   -0.4379   24.4010 C   0  0  0  0  0  0  0  0  0  0  0  0
   10.9324   -0.9561   21.8498 C   0  0  0  0  0  0  0  0  0  0  0  0
   10.5700   -0.3050   24.1480 C   0  0  0  0  0  0  0  0  0  0  0  0
    8.4345    2.5628   24.8743 C   0  0  0  0  0  0  0  0  0  0  0  0
    6.3269    1.0145   18.4470 C   0  0  0  0  0  0  0  0  0  0  0  0
    7.8630   -0.5239   19.1899 C   0  0  0  0  0  0  0  0  0  0  0  0
   10.1056    3.3027   23.5950 C   0  0  0  0  0  0  0  0  0  0  0  0
   12.7991   -0.8299   23.3784 C   0  0  0  0  0  0  0  0  0  0  0  0
    7.4025   -0.4347   20.4937 C   0  0  0  0  0  0  0  0  0  0  0  0
   10.0686   -0.5641   22.8724 C   0  0  0  0  0  0  0  0  0  0  0  0
    8.5941    1.7437   23.7808 C   0  0  0  0  0  0  0  0  0  0  0  0
    7.8784    0.5353   23.3573 C   0  0  0  0  0  0  0  0  0  0  0  0
    7.0020   -2.1560   22.2804 C   0  0  0  0  0  0  0  0  0  0  0  0
    6.8414   -5.6163   25.7477 C   0  0  0  0  0  0  0  0  0  0  0  0
    5.8912   -4.5095   26.2131 C   0  0  0  0  0  0  0  0  0  0  0  0
    7.6901   -5.0037   24.6366 C   0  0  0  0  0  0  0  0  0  0  0  0
    6.2155   -3.2878   25.3573 C   0  0  0  0  0  0  0  0  0  0  0  0
    6.8118   -3.8854   24.0886 C   0  0  0  0  0  0  0  0  0  0  0  0
   14.5603   -2.0577   24.6992 C   0  0  0  0  0  0  0  0  0  0  0  0
   14.9121    0.3580   24.0700 C   0  0  0  0  0  0  0  0  0  0  0  0
    8.0253   -1.2553   21.5990 C   0  0  2  0  0  0  0  0  0  0  0  0
   14.2589   -0.9720   23.6487 C   0  0  0  0  0  0  0  0  0  0  0  0
    7.3507    0.1809   18.1563 N   0  0  0  0  0  0  0  0  0  0  0  0
    7.5592   -2.9154   23.3085 N   0  0  0  0  0  0  0  0  0  0  0  0
    8.6364   -0.4244   22.6073 N   0  0  0  0  0  0  0  0  0  0  0  0
    6.6831    0.4052   23.6283 O   0  0  0  0  0  0  0  0  0  0  0  0
    5.8277   -2.2209   21.9220 O   0  0  0  0  0  0  0  0  0  0  0  0
    9.6107    2.1879   22.9960 O   0  0  0  0  0  0  0  0  0  0  0  0
    4.9715    1.8584   19.8949 H   0  0  0  0  0  0  0  0  0  0  0  0
    9.5985    4.4002   25.4270 H   0  0  0  0  0  0  0  0  0  0  0  0
    5.9517    0.5380   21.7596 H   0  0  0  0  0  0  0  0  0  0  0  0
   12.9632   -1.3970   21.3006 H   0  0  0  0  0  0  0  0  0  0  0  0
   12.3172   -0.2347   25.3980 H   0  0  0  0  0  0  0  0  0  0  0  0
   10.5527   -1.1602   20.8518 H   0  0  0  0  0  0  0  0  0  0  0  0
    9.9055    0.0000   24.9525 H   0  0  0  0  0  0  0  0  0  0  0  0
    7.7037    2.4480   25.6622 H   0  0  0  0  0  0  0  0  0  0  0  0
    5.9303    1.5709   17.6042 H   0  0  0  0  0  0  0  0  0  0  0  0
    8.6834   -1.1845   18.9269 H   0  0  0  0  0  0  0  0  0  0  0  0
   10.9308    3.7793   23.0865 H   0  0  0  0  0  0  0  0  0  0  0  0
    7.4658   -5.9885   26.5662 H   0  0  0  0  0  0  0  0  0  0  0  0
    6.2632   -6.4642   25.3627 H   0  0  0  0  0  0  0  0  0  0  0  0
    4.8523   -4.8212   26.0550 H   0  0  0  0  0  0  0  0  0  0  0  0
    6.0100   -4.2922   27.2794 H   0  0  0  0  0  0  0  0  0  0  0  0
    8.6171   -4.6008   25.0639 H   0  0  0  0  0  0  0  0  0  0  0  0
    7.9598   -5.7396   23.8730 H   0  0  0  0  0  0  0  0  0  0  0  0
    5.3290   -2.6772   25.1599 H   0  0  0  0  0  0  0  0  0  0  0  0
    6.9502   -2.6620   25.8797 H   0  0  0  0  0  0  0  0  0  0  0  0
    6.0263   -4.2863   23.4447 H   0  0  0  0  0  0  0  0  0  0  0  0
   14.0813   -1.8343   25.6587 H   0  0  0  0  0  0  0  0  0  0  0  0
   15.6366   -2.1531   24.8793 H   0  0  0  0  0  0  0  0  0  0  0  0
   14.1895   -3.0313   24.3598 H   0  0  0  0  0  0  0  0  0  0  0  0
   14.4451    0.7406   24.9845 H   0  0  0  0  0  0  0  0  0  0  0  0
   14.8023    1.1221   23.2928 H   0  0  0  0  0  0  0  0  0  0  0  0
   15.9828    0.2366   24.2674 H   0  0  0  0  0  0  0  0  0  0  0  0
    8.8381   -1.8769   21.2043 H   0  0  0  0  0  0  0  0  0  0  0  0
   14.7823   -1.2882   22.7263 H   0  0  0  0  0  0  0  0  0  0  0  0
    8.5484   -2.7855   23.5263 H   0  0  0  0  0  0  0  0  0  0  0  0
  1  3  2  0  0  0  0
  1  9  1  0  0  0  0
  2  8  1  0  0  0  0
  2 11  2  0  0  0  0
  3 13  1  0  0  0  0
  4  6  2  0  0  0  0
  4 12  1  0  0  0  0
  5  7  1  0  0  0  0
  5 12  2  0  0  0  0
  6 14  1  0  0  0  0
  7 14  2  0  0  0  0
  8 15  2  0  0  0  0
  9 27  2  0  0  0  0
 10 13  2  0  0  0  0
 10 27  1  0  0  0  0
 11 32  1  0  0  0  0
 12 26  1  0  0  0  0
 13 25  1  0  0  0  0
 14 29  1  0  0  0  0
 15 16  1  0  0  0  0
 15 32  1  0  0  0  0
 16 29  1  0  0  0  0
 16 30  2  0  0  0  0
 17 25  1  0  0  0  0
 17 28  1  0  0  0  0
 17 31  2  0  0  0  0
 18 19  1  0  0  0  0
 18 20  1  0  0  0  0
 19 21  1  0  0  0  0
 20 22  1  0  0  0  0
 21 22  1  0  0  0  0
 22 28  1  0  0  0  0
 23 26  1  0  0  0  0
 24 26  1  0  0  0  0
 25 29  1  0  0  0  0
  1 33  1  0  0  0  0
  2 34  1  0  0  0  0
  3 35  1  0  0  0  0
  4 36  1  0  0  0  0
  5 37  1  0  0  0  0
  6 38  1  0  0  0  0
  7 39  1  0  0  0  0
  8 40  1  0  0  0  0
  9 41  1  0  0  0  0
 10 42  1  0  0  0  0
 11 43  1  0  0  0  0
 18 44  1  0  0  0  0
 18 45  1  0  0  0  0
 19 46  1  0  0  0  0
 19 47  1  0  0  0  0
 20 48  1  0  0  0  0
 20 49  1  0  0  0  0
 21 50  1  0  0  0  0
 21 51  1  0  0  0  0
 22 52  1  0  0  0  0
 23 53  1  0  0  0  0
 23 54  1  0  0  0  0
 23 55  1  0  0  0  0
 24 56  1  0  0  0  0
 24 57  1  0  0  0  0
 24 58  1  0  0  0  0
 25 59  1  0  0  0  0
 26 60  1  0  0  0  0
 28 61  1  0  0  0  0
M  END
> <paper/assay>
https://pubchem.ncbi.nlm.nih.gov/bioassay/1890

> <IC50 (um)>
5.926

> <real_space>
FALSE

> <SCR>
FALSE

> <BB>
FALSE

> <molport_or_mcule>
FALSE

> <PDB>
FALSE

> <Hybrid2>
-9.048825

> <docked_fragment>
x0678

> <Mpro-_dock>
4.240424

> <site>
active-noncovalent

$$$$
880528
  -OEChem-04162001263D

 37 39  0     0  0  0  0  0  0999 V2000
   13.9598   -1.5410   26.2369 C   0  0  0  0  0  0  0  0  0  0  0  0
   12.8405   -0.7106   26.2940 C   0  0  0  0  0  0  0  0  0  0  0  0
   13.9736   -2.6346   25.3711 C   0  0  0  0  0  0  0  0  0  0  0  0
   11.7349   -0.9739   25.4854 C   0  0  0  0  0  0  0  0  0  0  0  0
   12.8679   -2.8978   24.5625 C   0  0  0  0  0  0  0  0  0  0  0  0
   10.0108   -1.5626   22.8122 C   0  0  0  0  0  0  0  0  0  0  0  0
   11.7486   -2.0675   24.6196 C   0  0  0  0  0  0  0  0  0  0  0  0
    8.9190   -2.2994   22.2905 C   0  0  0  0  0  0  0  0  0  0  0  0
   10.6050   -2.3392   23.7824 C   0  0  0  0  0  0  0  0  0  0  0  0
    8.8791   -3.5038   22.9579 C   0  0  0  0  0  0  0  0  0  0  0  0
    8.0053   -1.8966   21.2593 C   0  0  0  0  0  0  0  0  0  0  0  0
    6.6051   -6.2880   21.9633 C   0  0  0  0  0  0  0  0  0  0  0  0
    6.7156   -6.5005   23.4595 C   0  0  0  0  0  0  0  0  0  0  0  0
    7.8252   -5.4278   21.6544 C   0  0  0  0  0  0  0  0  0  0  0  0
    7.1980   -5.1428   23.9573 C   0  0  0  0  0  0  0  0  0  0  0  0
    8.1948   -0.5366   20.6312 C   0  0  0  0  0  0  0  0  0  0  0  0
    9.9085   -3.5167   23.8626 N   0  0  0  0  0  0  0  0  0  0  0  0
    8.0237   -4.6181   22.8628 N   0  0  0  0  0  0  0  0  0  0  0  0
    7.0529   -2.5714   20.8299 O   0  0  0  0  0  0  0  0  0  0  0  0
   14.8210   -1.3356   26.8662 H   0  0  0  0  0  0  0  0  0  0  0  0
   12.8300    0.1407   26.9684 H   0  0  0  0  0  0  0  0  0  0  0  0
   14.8456   -3.2805   25.3258 H   0  0  0  0  0  0  0  0  0  0  0  0
   10.8710   -0.3157   25.5396 H   0  0  0  0  0  0  0  0  0  0  0  0
   12.8937   -3.7548   23.8936 H   0  0  0  0  0  0  0  0  0  0  0  0
   10.3282   -0.5728   22.5116 H   0  0  0  0  0  0  0  0  0  0  0  0
    6.6077   -7.2290   21.4062 H   0  0  0  0  0  0  0  0  0  0  0  0
    5.6848   -5.7432   21.7216 H   0  0  0  0  0  0  0  0  0  0  0  0
    5.7637   -6.7948   23.9102 H   0  0  0  0  0  0  0  0  0  0  0  0
    7.4603   -7.2739   23.6818 H   0  0  0  0  0  0  0  0  0  0  0  0
    8.7085   -6.0539   21.4831 H   0  0  0  0  0  0  0  0  0  0  0  0
    7.6559   -4.8045   20.7698 H   0  0  0  0  0  0  0  0  0  0  0  0
    6.3506   -4.4702   24.1327 H   0  0  0  0  0  0  0  0  0  0  0  0
    7.7687   -5.2428   24.8863 H   0  0  0  0  0  0  0  0  0  0  0  0
    8.8573   -0.5469   19.7513 H   0  0  0  0  0  0  0  0  0  0  0  0
    8.5930    0.2100   21.3356 H   0  0  0  0  0  0  0  0  0  0  0  0
    7.2606   -0.0862   20.2510 H   0  0  0  0  0  0  0  0  0  0  0  0
   10.1178   -4.2817   24.4895 H   0  0  0  0  0  0  0  0  0  0  0  0
  1  2  1  0  0  0  0
  1  3  2  0  0  0  0
  2  4  2  0  0  0  0
  3  5  1  0  0  0  0
  4  7  1  0  0  0  0
  5  7  2  0  0  0  0
  6  8  1  0  0  0  0
  6  9  2  0  0  0  0
  7  9  1  0  0  0  0
  8 10  2  0  0  0  0
  8 11  1  0  0  0  0
  9 17  1  0  0  0  0
 10 17  1  0  0  0  0
 10 18  1  0  0  0  0
 11 16  1  0  0  0  0
 11 19  2  0  0  0  0
 12 13  1  0  0  0  0
 12 14  1  0  0  0  0
 13 15  1  0  0  0  0
 14 18  1  0  0  0  0
 15 18  1  0  0  0  0
  1 20  1  0  0  0  0
  2 21  1  0  0  0  0
  3 22  1  0  0  0  0
  4 23  1  0  0  0  0
  5 24  1  0  0  0  0
  6 25  1  0  0  0  0
 12 26  1  0  0  0  0
 12 27  1  0  0  0  0
 13 28  1  0  0  0  0
 13 29  1  0  0  0  0
 14 30  1  0  0  0  0
 14 31  1  0  0  0  0
 15 32  1  0  0  0  0
 15 33  1  0  0  0  0
 16 34  1  0  0  0  0
 16 35  1  0  0  0  0
 16 36  1  0  0  0  0
 17 37  1  0  0  0  0
M  END
> <paper/assay>
https://pubchem.ncbi.nlm.nih.gov/bioassay/1890

> <IC50 (um)>
4.633

> <real_space>
FALSE

> <SCR>
FALSE

> <BB>
FALSE

> <molport_or_mcule>
['https://mcule.com/MCULE-7853098144/', 'https://www.molport.com/shop/molecule-link/MolPort-002-119-160']

> <PDB>
FALSE

> <Hybrid2>
-8.955803

> <docked_fragment>
x0749

> <Mpro-_dock>
-0.206602

> <site>
active-covalent

$$$$
2820775
  -OEChem-04162001263D

 37 39  0     0  0  0  0  0  0999 V2000
    9.4843    0.9726   24.6178 C   0  0  0  0  0  0  0  0  0  0  0  0
   11.1875    6.7942   25.1739 C   0  0  0  0  0  0  0  0  0  0  0  0
   11.1939    6.2701   23.8591 C   0  0  0  0  0  0  0  0  0  0  0  0
   12.4317    6.5290   25.6969 C   0  0  0  0  0  0  0  0  0  0  0  0
   10.7425    1.3970   24.0975 C   0  0  0  0  0  0  0  0  0  0  0  0
   12.9073    1.3141   23.2474 C   0  0  0  0  0  0  0  0  0  0  0  0
   11.7825    0.5696   23.7289 C   0  0  0  0  0  0  0  0  0  0  0  0
   12.4417    5.7222   23.6724 C   0  0  0  0  0  0  0  0  0  0  0  0
   12.6741    2.6722   23.2615 C   0  0  0  0  0  0  0  0  0  0  0  0
   14.1314    0.6731   22.7887 C   0  0  0  0  0  0  0  0  0  0  0  0
   11.8007   -0.9265   23.8065 C   0  0  0  0  0  0  0  0  0  0  0  0
   14.2013   -0.8431   22.9367 C   0  0  0  0  0  0  0  0  0  0  0  0
   12.8270   -1.5531   22.8235 C   0  0  0  0  0  0  0  0  0  0  0  0
   12.3049   -1.4761   21.3735 C   0  0  0  0  0  0  0  0  0  0  0  0
   13.0088   -3.0399   23.1835 C   0  0  0  0  0  0  0  0  0  0  0  0
   13.0909    5.0169   22.5169 C   0  0  0  0  0  0  0  0  0  0  0  0
    8.4605    0.6273   25.0413 N   0  0  0  0  0  0  0  0  0  0  0  0
   13.5135    3.6655   22.8698 N   0  0  0  0  0  0  0  0  0  0  0  0
   15.0872    1.3129   22.3565 O   0  0  0  0  0  0  0  0  0  0  0  0
   13.2023    5.8759   24.7880 O   0  0  0  0  0  0  0  0  0  0  0  0
   11.1147    3.0502   23.8588 S   0  0  0  0  0  0  0  0  0  0  0  0
   10.3773    7.3014   25.6774 H   0  0  0  0  0  0  0  0  0  0  0  0
   10.3876    6.2905   23.1399 H   0  0  0  0  0  0  0  0  0  0  0  0
   12.9001    6.7288   26.6494 H   0  0  0  0  0  0  0  0  0  0  0  0
   12.0204   -1.2571   24.8294 H   0  0  0  0  0  0  0  0  0  0  0  0
   10.7905   -1.2842   23.5656 H   0  0  0  0  0  0  0  0  0  0  0  0
   14.8798   -1.2049   22.1535 H   0  0  0  0  0  0  0  0  0  0  0  0
   14.6632   -1.0699   23.9054 H   0  0  0  0  0  0  0  0  0  0  0  0
   13.0373   -1.9188   20.7076 H   0  0  0  0  0  0  0  0  0  0  0  0
   12.1474   -0.4369   21.1068 H   0  0  0  0  0  0  0  0  0  0  0  0
   11.3690   -2.0192   21.3029 H   0  0  0  0  0  0  0  0  0  0  0  0
   13.7240   -3.4836   22.5012 H   0  0  0  0  0  0  0  0  0  0  0  0
   12.0537   -3.5438   23.0959 H   0  0  0  0  0  0  0  0  0  0  0  0
   13.3738   -3.1149   24.2009 H   0  0  0  0  0  0  0  0  0  0  0  0
   12.3987    4.9437   21.6710 H   0  0  0  0  0  0  0  0  0  0  0  0
   13.9736    5.5634   22.1686 H   0  0  0  0  0  0  0  0  0  0  0  0
   14.5221    3.4811   22.8071 H   0  0  0  0  0  0  0  0  0  0  0  0
  1  5  1  0  0  0  0
  1 17  3  0  0  0  0
  2  3  1  0  0  0  0
  2  4  2  0  0  0  0
  3  8  2  0  0  0  0
  4 20  1  0  0  0  0
  5  7  2  0  0  0  0
  5 21  1  0  0  0  0
  6  7  1  0  0  0  0
  6  9  2  0  0  0  0
  6 10  1  0  0  0  0
  7 11  1  0  0  0  0
  8 16  1  0  0  0  0
  8 20  1  0  0  0  0
  9 18  1  0  0  0  0
  9 21  1  0  0  0  0
 10 12  1  0  0  0  0
 10 19  2  0  0  0  0
 11 13  1  0  0  0  0
 12 13  1  0  0  0  0
 13 14  1  0  0  0  0
 13 15  1  0  0  0  0
 16 18  1  0  0  0  0
  2 22  1  0  0  0  0
  3 23  1  0  0  0  0
  4 24  1  0  0  0  0
 11 25  1  0  0  0  0
 11 26  1  0  0  0  0
 12 27  1  0  0  0  0
 12 28  1  0  0  0  0
 14 29  1  0  0  0  0
 14 30  1  0  0  0  0
 14 31  1  0  0  0  0
 15 32  1  0  0  0  0
 15 33  1  0  0  0  0
 15 34  1  0  0  0  0
 16 35  1  0  0  0  0
 16 36  1  0  0  0  0
 18 37  1  0  0  0  0
M  END
> <paper/assay>
https://pubchem.ncbi.nlm.nih.gov/bioassay/269112

> <IC50 (um)>
16

> <real_space>
FALSE

> <SCR>
FALSE

> <BB>
FALSE

> <molport_or_mcule>
['https://www.molport.com/shop/molecule-link/MolPort-002-906-885', 'https://mcule.com/MCULE-1435262227/']

> <PDB>
FALSE

> <Hybrid2>
-8.930847

> <docked_fragment>
x0195

> <Mpro-_dock>
0.311174

> <site>
active-noncovalent

$$$$
1008368
  -OEChem-04162001263D

 41 44  0     0  0  0  0  0  0999 V2000
    8.0876   -4.2057   26.9905 C   0  0  0  0  0  0  0  0  0  0  0  0
    6.3707   -3.7920   25.3418 C   0  0  0  0  0  0  0  0  0  0  0  0
    7.4727   -5.4113   27.3282 C   0  0  0  0  0  0  0  0  0  0  0  0
    5.7559   -4.9976   25.6795 C   0  0  0  0  0  0  0  0  0  0  0  0
   11.5524   -0.2693   22.6418 C   0  0  0  0  0  0  0  0  0  0  0  0
    9.7229    0.5311   24.6547 C   0  0  0  0  0  0  0  0  0  0  0  0
    7.5365   -3.3960   25.9973 C   0  0  0  0  0  0  0  0  0  0  0  0
   10.7191   -1.2158   23.2649 C   0  0  0  0  0  0  0  0  0  0  0  0
    9.8276   -0.8111   24.2592 C   0  0  0  0  0  0  0  0  0  0  0  0
   11.4672    1.0681   23.0415 C   0  0  0  0  0  0  0  0  0  0  0  0
   10.5498    1.4637   24.0162 C   0  0  0  0  0  0  0  0  0  0  0  0
    6.3069   -5.8073   26.6727 C   0  0  0  0  0  0  0  0  0  0  0  0
    9.7185   -2.9875   23.8854 C   0  0  0  0  0  0  0  0  0  0  0  0
    8.1869   -2.1205   25.6398 C   0  0  0  0  0  0  0  0  0  0  0  0
   12.4028    3.1933   23.1167 C   0  0  0  0  0  0  0  0  0  0  0  0
   11.0170    3.6796   23.4899 C   0  0  0  0  0  0  0  0  0  0  0  0
    4.5177   -7.3270   26.2922 C   0  0  0  0  0  0  0  0  0  0  0  0
    7.9390   -4.7371   22.7515 C   0  0  0  0  0  0  0  0  0  0  0  0
   10.6340   -2.5641   23.0469 N   0  0  0  0  0  0  0  0  0  0  0  0
    9.1741   -1.9756   24.6477 N   0  0  0  0  0  0  0  0  0  0  0  0
    7.8500   -1.1173   26.2602 O   0  0  0  0  0  0  0  0  0  0  0  0
   12.3163    1.9483   22.4192 O   0  0  0  0  0  0  0  0  0  0  0  0
   10.4084    2.7716   24.4113 O   0  0  0  0  0  0  0  0  0  0  0  0
    5.7067   -6.9836   27.0022 O   0  0  0  0  0  0  0  0  0  0  0  0
    9.2808   -4.6662   23.9706 S   0  0  0  0  0  0  0  0  0  0  0  0
    8.9959   -3.9076   27.5079 H   0  0  0  0  0  0  0  0  0  0  0  0
    5.9335   -3.1682   24.5663 H   0  0  0  0  0  0  0  0  0  0  0  0
    7.9067   -6.0376   28.1029 H   0  0  0  0  0  0  0  0  0  0  0  0
    4.8477   -5.3007   25.1656 H   0  0  0  0  0  0  0  0  0  0  0  0
   12.2561   -0.5775   21.8743 H   0  0  0  0  0  0  0  0  0  0  0  0
    9.0248    0.8584   25.4164 H   0  0  0  0  0  0  0  0  0  0  0  0
   12.8930    3.9129   22.4538 H   0  0  0  0  0  0  0  0  0  0  0  0
   13.0361    3.0560   24.0019 H   0  0  0  0  0  0  0  0  0  0  0  0
   11.0753    4.6584   23.9760 H   0  0  0  0  0  0  0  0  0  0  0  0
   10.3695    3.7720   22.6092 H   0  0  0  0  0  0  0  0  0  0  0  0
    4.1420   -8.2879   26.6524 H   0  0  0  0  0  0  0  0  0  0  0  0
    4.7351   -7.3865   25.2228 H   0  0  0  0  0  0  0  0  0  0  0  0
    3.7642   -6.5553   26.4664 H   0  0  0  0  0  0  0  0  0  0  0  0
    7.5482   -5.7556   22.6876 H   0  0  0  0  0  0  0  0  0  0  0  0
    8.3134   -4.4367   21.7698 H   0  0  0  0  0  0  0  0  0  0  0  0
    7.1321   -4.0626   23.0481 H   0  0  0  0  0  0  0  0  0  0  0  0
  1  3  2  0  0  0  0
  1  7  1  0  0  0  0
  2  4  1  0  0  0  0
  2  7  2  0  0  0  0
  3 12  1  0  0  0  0
  4 12  2  0  0  0  0
  5  8  1  0  0  0  0
  5 10  2  0  0  0  0
  6  9  1  0  0  0  0
  6 11  2  0  0  0  0
  7 14  1  0  0  0  0
  8  9  2  0  0  0  0
  8 19  1  0  0  0  0
  9 20  1  0  0  0  0
 10 11  1  0  0  0  0
 10 22  1  0  0  0  0
 11 23  1  0  0  0  0
 12 24  1  0  0  0  0
 13 19  2  0  0  0  0
 13 20  1  0  0  0  0
 13 25  1  0  0  0  0
 14 20  1  0  0  0  0
 14 21  2  0  0  0  0
 15 16  1  0  0  0  0
 15 22  1  0  0  0  0
 16 23  1  0  0  0  0
 17 24  1  0  0  0  0
 18 25  1  0  0  0  0
  1 26  1  0  0  0  0
  2 27  1  0  0  0  0
  3 28  1  0  0  0  0
  4 29  1  0  0  0  0
  5 30  1  0  0  0  0
  6 31  1  0  0  0  0
 15 32  1  0  0  0  0
 15 33  1  0  0  0  0
 16 34  1  0  0  0  0
 16 35  1  0  0  0  0
 17 36  1  0  0  0  0
 17 37  1  0  0  0  0
 17 38  1  0  0  0  0
 18 39  1  0  0  0  0
 18 40  1  0  0  0  0
 18 41  1  0  0  0  0
M  END
> <paper/assay>
https://pubchem.ncbi.nlm.nih.gov/bioassay/1890

> <IC50 (um)>
1.085

> <real_space>
FALSE

> <SCR>
FALSE

> <BB>
FALSE

> <molport_or_mcule>
['https://mcule.com/MCULE-8196340560/', 'https://www.molport.com/shop/molecule-link/MolPort-002-823-372']

> <PDB>
FALSE

> <Hybrid2>
-8.924468

> <docked_fragment>
x1077

> <Mpro-_dock>
2.011778

> <site>
active-noncovalent

$$$$
44415173
  -OEChem-04162001263D

 19 20  0     0  0  0  0  0  0999 V2000
    6.0045   -4.6989   22.5121 C   0  0  0  0  0  0  0  0  0  0  0  0
    5.7408    1.5235   18.0099 C   0  0  0  0  0  0  0  0  0  0  0  0
    7.3569   -4.5363   22.7285 C   0  0  0  0  0  0  0  0  0  0  0  0
    5.1627    1.6616   19.2544 C   0  0  0  0  0  0  0  0  0  0  0  0
    6.4874   -3.5318   20.7192 C   0  0  0  0  0  0  0  0  0  0  0  0
    6.4906   -0.3216   18.9283 C   0  0  0  0  0  0  0  0  0  0  0  0
    6.3076   -2.8409   19.4870 C   0  0  0  0  0  0  0  0  0  0  0  0
    7.2117   -1.6347   19.1095 C   0  0  0  0  0  0  0  0  0  0  0  0
    5.5041   -4.1232   21.3606 N   0  0  0  0  0  0  0  0  0  0  0  0
    6.5029    0.3871   17.8212 N   0  0  0  0  0  0  0  0  0  0  0  0
    5.4128   -3.1768   18.6596 O   0  0  0  0  0  0  0  0  0  0  0  0
    8.0401   -3.6290   21.4435 S   0  0  0  0  0  0  0  0  0  0  0  0
    5.5822    0.3191   20.2357 S   0  0  0  0  0  0  0  0  0  0  0  0
    5.3311   -5.2318   23.1701 H   0  0  0  0  0  0  0  0  0  0  0  0
    5.6366    2.2291   17.1966 H   0  0  0  0  0  0  0  0  0  0  0  0
    7.9555   -4.8963   23.5528 H   0  0  0  0  0  0  0  0  0  0  0  0
    4.5330    2.4598   19.6209 H   0  0  0  0  0  0  0  0  0  0  0  0
    7.7325   -1.8828   18.1771 H   0  0  0  0  0  0  0  0  0  0  0  0
    7.9649   -1.5186   19.8978 H   0  0  0  0  0  0  0  0  0  0  0  0
  1  3  2  0  0  0  0
  1  9  1  0  0  0  0
  2  4  2  0  0  0  0
  2 10  1  0  0  0  0
  3 12  1  0  0  0  0
  4 13  1  0  0  0  0
  5  7  1  0  0  0  0
  5  9  2  0  0  0  0
  5 12  1  0  0  0  0
  6  8  1  0  0  0  0
  6 10  2  0  0  0  0
  6 13  1  0  0  0  0
  7  8  1  0  0  0  0
  7 11  2  0  0  0  0
  1 14  1  0  0  0  0
  2 15  1  0  0  0  0
  3 16  1  0  0  0  0
  4 17  1  0  0  0  0
  8 18  1  0  0  0  0
  8 19  1  0  0  0  0
M  END
> <paper/assay>
https://pubchem.ncbi.nlm.nih.gov/bioassay/269112

> <IC50 (um)>
40

> <real_space>
FALSE

> <SCR>
FALSE

> <BB>
BBV-115932295

> <molport_or_mcule>
FALSE

> <PDB>
FALSE

> <Hybrid2>
-8.870080

> <docked_fragment>
x0397

> <Mpro-_dock>
-0.277991

> <site>
active-noncovalent

$$$$
44415162
  -OEChem-04162001263D

 37 39  0     0  0  0  0  0  0999 V2000
    9.5450   -1.7553   25.3767 C   0  0  0  0  0  0  0  0  0  0  0  0
   10.1300   -0.5301   25.0572 C   0  0  0  0  0  0  0  0  0  0  0  0
    8.4077   -2.1847   24.6927 C   0  0  0  0  0  0  0  0  0  0  0  0
   14.2961   -2.0686   23.7805 C   0  0  0  0  0  0  0  0  0  0  0  0
    9.5776    0.2659   24.0537 C   0  0  0  0  0  0  0  0  0  0  0  0
    7.8553   -1.3887   23.6892 C   0  0  0  0  0  0  0  0  0  0  0  0
   13.5325   -2.2563   22.5923 C   0  0  0  0  0  0  0  0  0  0  0  0
   14.2724   -0.7598   24.2095 C   0  0  0  0  0  0  0  0  0  0  0  0
    8.4403   -0.1634   23.3697 C   0  0  0  0  0  0  0  0  0  0  0  0
    8.4972    0.3976   20.5704 C   0  0  0  0  0  0  0  0  0  0  0  0
   12.9540   -1.0837   22.1585 C   0  0  0  0  0  0  0  0  0  0  0  0
    7.9446    0.4565   19.2770 C   0  0  0  0  0  0  0  0  0  0  0  0
    9.7700   -0.0817   20.3785 C   0  0  0  0  0  0  0  0  0  0  0  0
   12.0973   -0.8564   20.9820 C   0  0  0  0  0  0  0  0  0  0  0  0
    6.0165   -0.0054   17.3843 C   0  0  0  0  0  0  0  0  0  0  0  0
    8.7966    0.0475   18.3331 N   0  0  0  0  0  0  0  0  0  0  0  0
    9.8976   -0.2729   19.0341 N   0  0  0  0  0  0  0  0  0  0  0  0
   10.7876   -0.3558   21.2492 N   0  0  0  0  0  0  0  0  0  0  0  0
   12.4950   -1.1204   19.8493 O   0  0  0  0  0  0  0  0  0  0  0  0
    6.3370    0.4796   22.0414 O   0  0  0  0  0  0  0  0  0  0  0  0
    8.1332    2.2215   22.3429 O   0  0  0  0  0  0  0  0  0  0  0  0
   13.3322    0.2362   23.1817 S   0  0  0  0  0  0  0  0  0  0  0  0
    6.3334    0.9921   18.8638 S   0  0  0  0  0  0  0  0  0  0  0  0
    7.7473    0.8348   22.1160 S   0  0  0  0  0  0  0  0  0  0  0  0
    9.9742   -2.3754   26.1584 H   0  0  0  0  0  0  0  0  0  0  0  0
   11.0149   -0.1949   25.5902 H   0  0  0  0  0  0  0  0  0  0  0  0
    7.9521   -3.1384   24.9422 H   0  0  0  0  0  0  0  0  0  0  0  0
   14.8363   -2.8535   24.2936 H   0  0  0  0  0  0  0  0  0  0  0  0
   10.0408    1.2192   23.8134 H   0  0  0  0  0  0  0  0  0  0  0  0
    6.9685   -1.7324   23.1638 H   0  0  0  0  0  0  0  0  0  0  0  0
   13.4165   -3.2062   22.0856 H   0  0  0  0  0  0  0  0  0  0  0  0
   14.7630   -0.3410   25.0768 H   0  0  0  0  0  0  0  0  0  0  0  0
    5.0212    0.2173   16.9920 H   0  0  0  0  0  0  0  0  0  0  0  0
    6.0715   -1.0678   17.6343 H   0  0  0  0  0  0  0  0  0  0  0  0
    6.7617    0.2205   16.6178 H   0  0  0  0  0  0  0  0  0  0  0  0
   10.7039   -0.6192   18.5293 H   0  0  0  0  0  0  0  0  0  0  0  0
   10.5772   -0.1734   22.2501 H   0  0  0  0  0  0  0  0  0  0  0  0
  1  2  1  0  0  0  0
  1  3  2  0  0  0  0
  2  5  2  0  0  0  0
  3  6  1  0  0  0  0
  4  7  1  0  0  0  0
  4  8  2  0  0  0  0
  5  9  1  0  0  0  0
  6  9  2  0  0  0  0
  7 11  2  0  0  0  0
  8 22  1  0  0  0  0
  9 24  1  0  0  0  0
 10 12  1  0  0  0  0
 10 13  2  0  0  0  0
 10 24  1  0  0  0  0
 11 14  1  0  0  0  0
 11 22  1  0  0  0  0
 12 16  2  0  0  0  0
 12 23  1  0  0  0  0
 13 17  1  0  0  0  0
 13 18  1  0  0  0  0
 14 18  1  0  0  0  0
 14 19  2  0  0  0  0
 15 23  1  0  0  0  0
 16 17  1  0  0  0  0
 20 24  2  0  0  0  0
 21 24  2  0  0  0  0
  1 25  1  0  0  0  0
  2 26  1  0  0  0  0
  3 27  1  0  0  0  0
  4 28  1  0  0  0  0
  5 29  1  0  0  0  0
  6 30  1  0  0  0  0
  7 31  1  0  0  0  0
  8 32  1  0  0  0  0
 15 33  1  0  0  0  0
 15 34  1  0  0  0  0
 15 35  1  0  0  0  0
 17 36  1  0  0  0  0
 18 37  1  0  0  0  0
M  END
> <paper/assay>
https://pubchem.ncbi.nlm.nih.gov/bioassay/269112

> <IC50 (um)>
15

> <real_space>
FALSE

> <SCR>
FALSE

> <BB>
FALSE

> <molport_or_mcule>
FALSE

> <PDB>
FALSE

> <Hybrid2>
-8.833296

> <docked_fragment>
x0678

> <Mpro-_dock>
2.022812

> <site>
active-noncovalent

$$$$
4868361
  -OEChem-04162001263D

 35 36  0     0  0  0  0  0  0999 V2000
   13.8834   -0.5954   23.9336 C   0  0  0  0  0  0  0  0  0  0  0  0
    5.4024    1.5053   17.7214 C   0  0  0  0  0  0  0  0  0  0  0  0
   13.7228   -1.6655   23.0534 C   0  0  0  0  0  0  0  0  0  0  0  0
   12.8735    0.3578   24.0642 C   0  0  0  0  0  0  0  0  0  0  0  0
    5.0510    2.0749   18.9452 C   0  0  0  0  0  0  0  0  0  0  0  0
    6.2326    0.3848   17.6865 C   0  0  0  0  0  0  0  0  0  0  0  0
   12.5524   -1.7822   22.3036 C   0  0  0  0  0  0  0  0  0  0  0  0
   11.7031    0.2411   23.3145 C   0  0  0  0  0  0  0  0  0  0  0  0
    5.5297    1.5243   20.1340 C   0  0  0  0  0  0  0  0  0  0  0  0
    6.7113   -0.1658   18.8753 C   0  0  0  0  0  0  0  0  0  0  0  0
   11.5425   -0.8289   22.4342 C   0  0  0  0  0  0  0  0  0  0  0  0
    6.3599    0.4039   20.0990 C   0  0  0  0  0  0  0  0  0  0  0  0
    6.1139   -0.0835   22.5219 C   0  0  0  0  0  0  0  0  0  0  0  0
    9.2485   -0.0960   21.6743 C   0  0  0  0  0  0  0  0  0  0  0  0
    6.7804   -0.7361   23.7278 C   0  0  0  0  0  0  0  0  0  0  0  0
   10.3562   -0.9475   21.6743 N   0  0  0  0  0  0  0  0  0  0  0  0
    8.0871   -0.8191   21.3803 N   0  0  0  0  0  0  0  0  0  0  0  0
    6.8534   -0.1640   21.3253 N   0  0  0  0  0  0  0  0  0  0  0  0
    5.0252    0.4797   22.6424 O   0  0  0  0  0  0  0  0  0  0  0  0
    9.2516    1.1132   21.8935 O   0  0  0  0  0  0  0  0  0  0  0  0
    7.8270    0.4219   24.5737 Cl  0  0  0  0  0  0  0  0  0  0  0  0
   14.7943   -0.5046   24.5181 H   0  0  0  0  0  0  0  0  0  0  0  0
    5.0292    1.9333   16.7956 H   0  0  0  0  0  0  0  0  0  0  0  0
   14.5085   -2.4083   22.9520 H   0  0  0  0  0  0  0  0  0  0  0  0
   12.9984    1.1904   24.7505 H   0  0  0  0  0  0  0  0  0  0  0  0
    4.4039    2.9467   18.9728 H   0  0  0  0  0  0  0  0  0  0  0  0
    6.5053   -0.0592   16.7334 H   0  0  0  0  0  0  0  0  0  0  0  0
   12.4384   -2.6205   21.6209 H   0  0  0  0  0  0  0  0  0  0  0  0
   10.9227    0.9901   23.4246 H   0  0  0  0  0  0  0  0  0  0  0  0
    5.2490    1.9767   21.0818 H   0  0  0  0  0  0  0  0  0  0  0  0
    7.3576   -1.0392   18.8358 H   0  0  0  0  0  0  0  0  0  0  0  0
    7.4074   -1.5730   23.4098 H   0  0  0  0  0  0  0  0  0  0  0  0
    6.0262   -1.0735   24.4425 H   0  0  0  0  0  0  0  0  0  0  0  0
   10.3027   -1.7501   21.0520 H   0  0  0  0  0  0  0  0  0  0  0  0
    8.1404   -1.8173   21.2072 H   0  0  0  0  0  0  0  0  0  0  0  0
  1  3  1  0  0  0  0
  1  4  2  0  0  0  0
  2  5  1  0  0  0  0
  2  6  2  0  0  0  0
  3  7  2  0  0  0  0
  4  8  1  0  0  0  0
  5  9  2  0  0  0  0
  6 10  1  0  0  0  0
  7 11  1  0  0  0  0
  8 11  2  0  0  0  0
  9 12  1  0  0  0  0
 10 12  2  0  0  0  0
 11 16  1  0  0  0  0
 12 18  1  0  0  0  0
 13 15  1  0  0  0  0
 13 18  1  0  0  0  0
 13 19  2  0  0  0  0
 14 16  1  0  0  0  0
 14 17  1  0  0  0  0
 14 20  2  0  0  0  0
 15 21  1  0  0  0  0
 17 18  1  0  0  0  0
  1 22  1  0  0  0  0
  2 23  1  0  0  0  0
  3 24  1  0  0  0  0
  4 25  1  0  0  0  0
  5 26  1  0  0  0  0
  6 27  1  0  0  0  0
  7 28  1  0  0  0  0
  8 29  1  0  0  0  0
  9 30  1  0  0  0  0
 10 31  1  0  0  0  0
 15 32  1  0  0  0  0
 15 33  1  0  0  0  0
 16 34  1  0  0  0  0
 17 35  1  0  0  0  0
M  END
> <paper/assay>
https://pubchem.ncbi.nlm.nih.gov/bioassay/1890

> <IC50 (um)>
9.636

> <real_space>
FALSE

> <SCR>
Z90664842

> <BB>
EN300-11002

> <molport_or_mcule>
['https://www.molport.com/shop/molecule-link/MolPort-002-467-502', 'https://www.molport.com/shop/molecule-link/MolPort-002-467-502', 'https://mcule.com/MCULE-3217386714/']

> <PDB>
FALSE

> <Hybrid2>
-8.824375

> <docked_fragment>
x1093

> <Mpro-_dock>
0.582783

> <site>
active-noncovalent

$$$$
5509654
  -OEChem-04162001263D

 46 48  0     0  0  0  0  0  0999 V2000
    7.8086    0.9956   19.0137 C   0  0  0  0  0  0  0  0  0  0  0  0
    8.1248    0.7639   20.3559 C   0  0  0  0  0  0  0  0  0  0  0  0
    6.9986    0.1049   18.2971 C   0  0  0  0  0  0  0  0  0  0  0  0
    7.6454   -0.3633   21.0323 C   0  0  0  0  0  0  0  0  0  0  0  0
   11.3252   -1.1715   23.8176 C   0  0  0  0  0  0  0  0  0  0  0  0
    9.4044   -0.7819   25.2302 C   0  0  0  0  0  0  0  0  0  0  0  0
   10.2279   -1.6606   24.5264 C   0  0  0  0  0  0  0  0  0  0  0  0
    6.5116   -1.0289   18.9636 C   0  0  0  0  0  0  0  0  0  0  0  0
    6.8424   -1.2321   20.2963 C   0  0  0  0  0  0  0  0  0  0  0  0
   11.5990    0.1962   23.8126 C   0  0  0  0  0  0  0  0  0  0  0  0
    9.6781    0.5859   25.2252 C   0  0  0  0  0  0  0  0  0  0  0  0
   10.7754    1.0749   24.5164 C   0  0  0  0  0  0  0  0  0  0  0  0
    7.4838   -3.8623   22.1395 C   0  0  0  0  0  0  0  0  0  0  0  0
   13.4640   -0.3039   22.4243 C   0  0  0  0  0  0  0  0  0  0  0  0
    7.7661    0.8519   26.6142 C   0  0  0  0  0  0  0  0  0  0  0  0
   10.4410    3.1884   23.4785 C   0  0  0  0  0  0  0  0  0  0  0  0
    9.9325   -3.1343   24.5316 C   0  0  0  0  0  0  0  0  0  0  0  0
    6.1983   -3.1040   21.8597 C   0  0  0  0  0  0  0  0  0  0  0  0
    5.7138   -2.0553   18.5315 N   0  0  0  0  0  0  0  0  0  0  0  0
    5.5343   -2.8928   19.5472 N   0  0  0  0  0  0  0  0  0  0  0  0
    8.0693   -3.4508   23.3200 N   0  0  0  0  0  0  0  0  0  0  0  0
    9.3105   -3.5692   23.2821 N   0  0  0  0  0  0  0  0  0  0  0  0
    6.2081   -2.4018   20.6005 N   0  0  0  0  0  0  0  0  0  0  0  0
    7.9140   -4.7293   21.3809 O   0  0  0  0  0  0  0  0  0  0  0  0
   12.6739    0.6609   23.1164 O   0  0  0  0  0  0  0  0  0  0  0  0
    8.8658    1.4334   25.9165 O   0  0  0  0  0  0  0  0  0  0  0  0
   11.0431    2.4118   24.5115 O   0  0  0  0  0  0  0  0  0  0  0  0
    8.1973    1.8811   18.5172 H   0  0  0  0  0  0  0  0  0  0  0  0
    8.7560    1.4736   20.8853 H   0  0  0  0  0  0  0  0  0  0  0  0
    6.7585    0.2928   17.2558 H   0  0  0  0  0  0  0  0  0  0  0  0
    7.8896   -0.5443   22.0726 H   0  0  0  0  0  0  0  0  0  0  0  0
   11.9686   -1.8545   23.2681 H   0  0  0  0  0  0  0  0  0  0  0  0
    8.5483   -1.1605   25.7835 H   0  0  0  0  0  0  0  0  0  0  0  0
   14.2874    0.1989   21.9112 H   0  0  0  0  0  0  0  0  0  0  0  0
   12.8406   -0.8358   21.7013 H   0  0  0  0  0  0  0  0  0  0  0  0
   13.8688   -1.0162   23.1471 H   0  0  0  0  0  0  0  0  0  0  0  0
    7.2003    1.6364   27.1225 H   0  0  0  0  0  0  0  0  0  0  0  0
    8.1379    0.1262   27.3420 H   0  0  0  0  0  0  0  0  0  0  0  0
    7.1174    0.3450   25.8959 H   0  0  0  0  0  0  0  0  0  0  0  0
   10.7352    4.2349   23.5899 H   0  0  0  0  0  0  0  0  0  0  0  0
    9.3537    3.0961   23.5388 H   0  0  0  0  0  0  0  0  0  0  0  0
   10.7831    2.8172   22.5095 H   0  0  0  0  0  0  0  0  0  0  0  0
   10.8549   -3.7030   24.6977 H   0  0  0  0  0  0  0  0  0  0  0  0
    9.2667   -3.3808   25.3665 H   0  0  0  0  0  0  0  0  0  0  0  0
    6.0296   -2.3912   22.6762 H   0  0  0  0  0  0  0  0  0  0  0  0
    5.3635   -3.8154   21.8771 H   0  0  0  0  0  0  0  0  0  0  0  0
  1  2  1  0  0  0  0
  1  3  2  0  0  0  0
  2  4  2  0  0  0  0
  3  8  1  0  0  0  0
  4  9  1  0  0  0  0
  5  7  2  0  0  0  0
  5 10  1  0  0  0  0
  6  7  1  0  0  0  0
  6 11  2  0  0  0  0
  7 17  1  0  0  0  0
  8  9  2  0  0  0  0
  8 19  1  0  0  0  0
  9 23  1  0  0  0  0
 10 12  2  0  0  0  0
 10 25  1  0  0  0  0
 11 12  1  0  0  0  0
 11 26  1  0  0  0  0
 12 27  1  0  0  0  0
 13 18  1  0  0  0  0
 13 21  1  0  0  0  0
 13 24  2  0  0  0  0
 14 25  1  0  0  0  0
 15 26  1  0  0  0  0
 16 27  1  0  0  0  0
 17 22  1  0  0  0  0
 18 23  1  0  0  0  0
 19 20  2  0  0  0  0
 20 23  1  0  0  0  0
 21 22  2  0  0  0  0
  1 28  1  0  0  0  0
  2 29  1  0  0  0  0
  3 30  1  0  0  0  0
  4 31  1  0  0  0  0
  5 32  1  0  0  0  0
  6 33  1  0  0  0  0
 14 34  1  0  0  0  0
 14 35  1  0  0  0  0
 14 36  1  0  0  0  0
 15 37  1  0  0  0  0
 15 38  1  0  0  0  0
 15 39  1  0  0  0  0
 16 40  1  0  0  0  0
 16 41  1  0  0  0  0
 16 42  1  0  0  0  0
 17 43  1  0  0  0  0
 17 44  1  0  0  0  0
 18 45  1  0  0  0  0
 18 46  1  0  0  0  0
M  END
> <paper/assay>
https://pubchem.ncbi.nlm.nih.gov/bioassay/1890

> <IC50 (um)>
5.179

> <real_space>
FALSE

> <SCR>
FALSE

> <BB>
FALSE

> <molport_or_mcule>
['https://www.molport.com/shop/molecule-link/MolPort-002-168-005']

> <PDB>
FALSE

> <Hybrid2>
-8.804478

> <docked_fragment>
x0831

> <Mpro-_dock>
3.426866

> <site>
active-covalent

$$$$
13d
  -OEChem-04162001263D

 33 35  0     0  0  0  0  0  0999 V2000
   13.6204   -0.5265   24.2488 C   0  0  0  0  0  0  0  0  0  0  0  0
   13.2059   -0.8197   21.8868 C   0  0  0  0  0  0  0  0  0  0  0  0
   14.6662   -1.4469   24.1796 C   0  0  0  0  0  0  0  0  0  0  0  0
   14.2518   -1.7400   21.8175 C   0  0  0  0  0  0  0  0  0  0  0  0
   11.5540    1.8404   23.9562 C   0  0  0  0  0  0  0  0  0  0  0  0
   10.3058    2.3495   23.5248 C   0  0  0  0  0  0  0  0  0  0  0  0
    6.0370    0.7249   19.7621 C   0  0  0  0  0  0  0  0  0  0  0  0
    8.0690    0.2984   18.6021 C   0  0  0  0  0  0  0  0  0  0  0  0
    6.1739    0.7599   17.3881 C   0  0  0  0  0  0  0  0  0  0  0  0
   12.8901   -0.2130   23.1025 C   0  0  0  0  0  0  0  0  0  0  0  0
    7.3924    0.4178   19.8053 C   0  0  0  0  0  0  0  0  0  0  0  0
   14.9819   -2.0536   22.9639 C   0  0  0  0  0  0  0  0  0  0  0  0
    5.4085    0.9007   18.5344 C   0  0  0  0  0  0  0  0  0  0  0  0
   11.8084    0.7386   23.1730 C   0  0  0  0  0  0  0  0  0  0  0  0
    9.8866    1.5228   22.5086 C   0  0  0  0  0  0  0  0  0  0  0  0
    8.7149    1.5397   21.7011 C   0  0  0  0  0  0  0  0  0  0  0  0
    8.1076    0.2209   21.1254 C   0  0  0  0  0  0  0  0  0  0  0  0
    7.4926    0.4621   17.3902 N   0  0  0  0  0  0  0  0  0  0  0  0
    8.1099    2.6193   21.4497 O   0  0  0  0  0  0  0  0  0  0  0  0
   10.7969    0.5383   22.2879 O   0  0  0  0  0  0  0  0  0  0  0  0
    7.2722   -0.3162   22.0662 F   0  0  0  0  0  0  0  0  0  0  0  0
    9.1134   -0.6973   20.9921 F   0  0  0  0  0  0  0  0  0  0  0  0
   16.2737   -3.1874   22.8775 Cl  0  0  0  0  0  0  0  0  0  0  0  0
    3.5745    1.3149   18.4342 Br  0  0  0  0  0  0  0  0  0  0  0  0
   13.3863   -0.0620   25.2036 H   0  0  0  0  0  0  0  0  0  0  0  0
   12.6459   -0.5853   20.9843 H   0  0  0  0  0  0  0  0  0  0  0  0
   15.2264   -1.6819   25.0812 H   0  0  0  0  0  0  0  0  0  0  0  0
   14.4863   -2.2055   20.8637 H   0  0  0  0  0  0  0  0  0  0  0  0
   12.1851    2.2310   24.7418 H   0  0  0  0  0  0  0  0  0  0  0  0
    9.7804    3.2118   23.9104 H   0  0  0  0  0  0  0  0  0  0  0  0
    5.4774    0.8260   20.6891 H   0  0  0  0  0  0  0  0  0  0  0  0
    9.1279    0.0604   18.5731 H   0  0  0  0  0  0  0  0  0  0  0  0
    5.7439    0.8830   16.3985 H   0  0  0  0  0  0  0  0  0  0  0  0
  1  3  2  0  0  0  0
  1 10  1  0  0  0  0
  2  4  1  0  0  0  0
  2 10  2  0  0  0  0
  3 12  1  0  0  0  0
  4 12  2  0  0  0  0
  5  6  1  0  0  0  0
  5 14  2  0  0  0  0
  6 15  2  0  0  0  0
  7 11  2  0  0  0  0
  7 13  1  0  0  0  0
  8 11  1  0  0  0  0
  8 18  2  0  0  0  0
  9 13  2  0  0  0  0
  9 18  1  0  0  0  0
 10 14  1  0  0  0  0
 11 17  1  0  0  0  0
 12 23  1  0  0  0  0
 13 24  1  0  0  0  0
 14 20  1  0  0  0  0
 15 16  1  0  0  0  0
 15 20  1  0  0  0  0
 16 17  1  0  0  0  0
 16 19  2  0  0  0  0
 17 21  1  0  0  0  0
 17 22  1  0  0  0  0
  1 25  1  0  0  0  0
  2 26  1  0  0  0  0
  3 27  1  0  0  0  0
  4 28  1  0  0  0  0
  5 29  1  0  0  0  0
  6 30  1  0  0  0  0
  7 31  1  0  0  0  0
  8 32  1  0  0  0  0
  9 33  1  0  0  0  0
M  END
> <paper/assay>
https://doi.org/10.1016/j.bioorg.2008.01.001

> <IC50 (um)>
57

> <real_space>
FALSE

> <SCR>
FALSE

> <BB>
FALSE

> <molport_or_mcule>
FALSE

> <PDB>
FALSE

> <Hybrid2>
-8.795322

> <docked_fragment>
x0678

> <Mpro-_dock>
2.418372

> <site>
active-noncovalent

$$$$
MAC-8120
  -OEChem-04162001263D

 32 34  0     0  0  0  0  0  0999 V2000
   11.1747   -1.2531   25.1141 C   0  0  0  0  0  0  0  0  0  0  0  0
   12.5416   -3.2452   25.1111 C   0  0  0  0  0  0  0  0  0  0  0  0
    7.5256   -6.4422   22.1478 C   0  0  0  0  0  0  0  0  0  0  0  0
    8.6593   -6.2543   22.9438 C   0  0  0  0  0  0  0  0  0  0  0  0
   12.1744   -0.5681   25.8047 C   0  0  0  0  0  0  0  0  0  0  0  0
   13.5414   -2.5603   25.8017 C   0  0  0  0  0  0  0  0  0  0  0  0
   11.3582   -2.5917   24.7674 C   0  0  0  0  0  0  0  0  0  0  0  0
    6.8334   -5.3507   21.6351 C   0  0  0  0  0  0  0  0  0  0  0  0
    9.1054   -4.9457   23.2296 C   0  0  0  0  0  0  0  0  0  0  0  0
   13.3577   -1.2217   26.1485 C   0  0  0  0  0  0  0  0  0  0  0  0
    8.3932   -3.8640   22.7029 C   0  0  0  0  0  0  0  0  0  0  0  0
    7.2536   -4.0454   21.9028 C   0  0  0  0  0  0  0  0  0  0  0  0
   10.3234   -3.3007   24.0527 C   0  0  0  0  0  0  0  0  0  0  0  0
    5.6281   -5.6191   20.7905 C   0  0  0  0  0  0  0  0  0  0  0  0
   10.2083   -4.6071   24.0001 N   0  0  0  0  0  0  0  0  0  0  0  0
   14.3687   -0.5292   26.8467 N   0  0  0  0  0  0  0  0  0  0  0  0
    5.0016   -2.8823   21.8019 O   0  5  0  0  0  0  0  0  0  0  0  0
    7.0314   -1.4912   21.6912 O   0  0  0  0  0  0  0  0  0  0  0  0
    6.4299   -2.9223   19.7803 O   0  0  0  0  0  0  0  0  0  0  0  0
    9.1471   -2.3959   23.2021 S   0  0  0  0  0  0  0  0  0  0  0  0
    6.3390   -2.6995   21.2275 S   0  0  0  0  0  0  0  0  0  0  0  0
   10.2578   -0.7298   24.8533 H   0  0  0  0  0  0  0  0  0  0  0  0
   12.6996   -4.2884   24.8478 H   0  0  0  0  0  0  0  0  0  0  0  0
    7.1929   -7.4554   21.9354 H   0  0  0  0  0  0  0  0  0  0  0  0
    9.1926   -7.1142   23.3392 H   0  0  0  0  0  0  0  0  0  0  0  0
   12.0210    0.4748   26.0702 H   0  0  0  0  0  0  0  0  0  0  0  0
   14.4596   -3.0794   26.0645 H   0  0  0  0  0  0  0  0  0  0  0  0
    4.7314   -5.6682   21.4174 H   0  0  0  0  0  0  0  0  0  0  0  0
    5.4899   -4.8322   20.0401 H   0  0  0  0  0  0  0  0  0  0  0  0
    5.7304   -6.5661   20.2480 H   0  0  0  0  0  0  0  0  0  0  0  0
   14.2448    0.4424   27.0480 H   0  0  0  0  0  0  0  0  0  0  0  0
   15.2308   -0.9952   27.0457 H   0  0  0  0  0  0  0  0  0  0  0  0
  1  5  2  0  0  0  0
  1  7  1  0  0  0  0
  2  6  1  0  0  0  0
  2  7  2  0  0  0  0
  3  4  2  0  0  0  0
  3  8  1  0  0  0  0
  4  9  1  0  0  0  0
  5 10  1  0  0  0  0
  6 10  2  0  0  0  0
  7 13  1  0  0  0  0
  8 12  2  0  0  0  0
  8 14  1  0  0  0  0
  9 11  2  0  0  0  0
  9 15  1  0  0  0  0
 10 16  1  0  0  0  0
 11 12  1  0  0  0  0
 11 20  1  0  0  0  0
 12 21  1  0  0  0  0
 13 15  2  0  0  0  0
 13 20  1  0  0  0  0
 17 21  1  0  0  0  0
 18 21  2  0  0  0  0
 19 21  2  0  0  0  0
  1 22  1  0  0  0  0
  2 23  1  0  0  0  0
  3 24  1  0  0  0  0
  4 25  1  0  0  0  0
  5 26  1  0  0  0  0
  6 27  1  0  0  0  0
 14 28  1  0  0  0  0
 14 29  1  0  0  0  0
 14 30  1  0  0  0  0
 16 31  1  0  0  0  0
 16 32  1  0  0  0  0
M  CHG  1  17  -1
M  END
> <paper/assay>
https://doi.org/10.1016/j.chembiol.2004.08.011

> <IC50 (um)>
4.3

> <real_space>
FALSE

> <SCR>
FALSE

> <BB>
FALSE

> <molport_or_mcule>
['https://mcule.com/MCULE-2155765180/', 'https://www.molport.com/shop/molecule-link/MolPort-000-730-331', 'https://www.molport.com/shop/molecule-link/MolPort-002-133-796', 'https://www.molport.com/shop/molecule-link/MolPort-000-142-064', 'https://www.molport.com/shop/molecule-link/MolPort-002-570-557']

> <PDB>
FALSE

> <Hybrid2>
-8.717568

> <docked_fragment>
x0749

> <Mpro-_dock>
1.554171

> <site>
active-covalent

$$$$
17583883
  -OEChem-04162001263D

 39 42  0     1  0  0  0  0  0999 V2000
   10.0539    6.0151   25.9137 C   0  0  0  0  0  0  0  0  0  0  0  0
   11.2490    6.7145   25.7441 C   0  0  0  0  0  0  0  0  0  0  0  0
   11.0249    0.2857   24.2108 C   0  0  0  0  0  0  0  0  0  0  0  0
    9.8278    4.8351   25.2049 C   0  0  0  0  0  0  0  0  0  0  0  0
   12.2253    6.2302   24.8731 C   0  0  0  0  0  0  0  0  0  0  0  0
   10.0800   -0.7462   24.2503 C   0  0  0  0  0  0  0  0  0  0  0  0
   11.4748   -2.1723   22.8465 C   0  0  0  0  0  0  0  0  0  0  0  0
   12.3871   -1.1390   22.8250 C   0  0  0  0  0  0  0  0  0  0  0  0
   12.1831    0.0701   23.4869 C   0  0  0  0  0  0  0  0  0  0  0  0
   10.7976    4.3598   24.3218 C   0  0  0  0  0  0  0  0  0  0  0  0
   12.0044    5.0450   24.1705 C   0  0  0  0  0  0  0  0  0  0  0  0
   10.3029   -1.9626   23.5750 C   0  0  0  0  0  0  0  0  0  0  0  0
   13.6873   -1.0452   22.1666 C   0  0  0  0  0  0  0  0  0  0  0  0
   14.2435    0.3347   22.4967 C   0  0  0  0  0  0  0  0  0  0  0  0
   11.3550    3.0469   22.5021 C   0  0  0  0  0  0  0  0  0  0  0  0
   12.8198    3.2814   22.8515 C   0  0  2  0  0  0  0  0  0  0  0  0
    8.1860   -2.6705   24.3956 C   0  0  0  0  0  0  0  0  0  0  0  0
   13.3809    2.2613   23.8405 C   0  0  0  0  0  0  0  0  0  0  0  0
   13.2791    0.9472   23.2961 N   0  0  0  0  0  0  0  0  0  0  0  0
   14.2554   -1.8646   21.4862 O   0  0  0  0  0  0  0  0  0  0  0  0
   15.3197    0.7177   22.0915 O   0  0  0  0  0  0  0  0  0  0  0  0
   10.5153    3.2015   23.6475 O   0  0  0  0  0  0  0  0  0  0  0  0
   13.0162    4.6086   23.3572 O   0  0  0  0  0  0  0  0  0  0  0  0
    9.3607   -2.9457   23.6356 O   0  0  0  0  0  0  0  0  0  0  0  0
    9.3003    6.3876   26.6013 H   0  0  0  0  0  0  0  0  0  0  0  0
   11.4177    7.6398   26.2873 H   0  0  0  0  0  0  0  0  0  0  0  0
   10.8392    1.2160   24.7357 H   0  0  0  0  0  0  0  0  0  0  0  0
    8.9007    4.2886   25.3542 H   0  0  0  0  0  0  0  0  0  0  0  0
   13.1490    6.7875   24.7395 H   0  0  0  0  0  0  0  0  0  0  0  0
    9.1602   -0.6026   24.8127 H   0  0  0  0  0  0  0  0  0  0  0  0
   11.6567   -3.1040   22.3235 H   0  0  0  0  0  0  0  0  0  0  0  0
   11.0173    3.7721   21.7474 H   0  0  0  0  0  0  0  0  0  0  0  0
   11.1906    2.0392   22.0855 H   0  0  0  0  0  0  0  0  0  0  0  0
   13.4357    3.2127   21.9040 H   0  0  0  0  0  0  0  0  0  0  0  0
    7.5185   -3.5350   24.3618 H   0  0  0  0  0  0  0  0  0  0  0  0
    7.6826   -1.7917   23.9847 H   0  0  0  0  0  0  0  0  0  0  0  0
    8.4711   -2.4734   25.4317 H   0  0  0  0  0  0  0  0  0  0  0  0
   14.4251    2.5183   24.0203 H   0  0  0  0  0  0  0  0  0  0  0  0
   12.7973    2.3386   24.7583 H   0  0  0  0  0  0  0  0  0  0  0  0
  1  2  1  0  0  0  0
  1  4  2  0  0  0  0
  2  5  2  0  0  0  0
  3  6  2  0  0  0  0
  3  9  1  0  0  0  0
  4 10  1  0  0  0  0
  5 11  1  0  0  0  0
  6 12  1  0  0  0  0
  7  8  1  0  0  0  0
  7 12  2  0  0  0  0
  8  9  2  0  0  0  0
  8 13  1  0  0  0  0
  9 19  1  0  0  0  0
 10 11  2  0  0  0  0
 10 22  1  0  0  0  0
 11 23  1  0  0  0  0
 12 24  1  0  0  0  0
 13 14  1  0  0  0  0
 13 20  2  0  0  0  0
 14 19  1  0  0  0  0
 14 21  2  0  0  0  0
 15 16  1  0  0  0  0
 15 22  1  0  0  0  0
 16 18  1  0  0  0  0
 16 23  1  0  0  0  0
 17 24  1  0  0  0  0
 18 19  1  0  0  0  0
  1 25  1  0  0  0  0
  2 26  1  0  0  0  0
  3 27  1  0  0  0  0
  4 28  1  0  0  0  0
  5 29  1  0  0  0  0
  6 30  1  0  0  0  0
  7 31  1  0  0  0  0
 15 32  1  0  0  0  0
 15 33  1  0  0  0  0
 16 34  1  0  0  0  0
 17 35  1  0  0  0  0
 17 36  1  0  0  0  0
 17 37  1  0  0  0  0
 18 38  1  0  0  0  0
 18 39  1  0  0  0  0
M  END
> <paper/assay>
https://pubchem.ncbi.nlm.nih.gov/bioassay/1890

> <IC50 (um)>
9.737

> <real_space>
FALSE

> <SCR>
FALSE

> <BB>
FALSE

> <molport_or_mcule>
FALSE

> <PDB>
FALSE

> <Hybrid2>
-8.695367

> <docked_fragment>
x0195

> <Mpro-_dock>
0.459177

> <site>
active-noncovalent

$$$$
2822496
  -OEChem-04162001263D

 33 35  0     0  0  0  0  0  0999 V2000
   10.2369   -1.8338   24.0854 C   0  0  0  0  0  0  0  0  0  0  0  0
   10.8738   -0.8660   23.7677 C   0  0  0  0  0  0  0  0  0  0  0  0
    7.9998   -5.2324   25.2005 C   0  0  0  0  0  0  0  0  0  0  0  0
    7.9022   -4.7278   23.9038 C   0  0  0  0  0  0  0  0  0  0  0  0
    8.8371   -4.6133   26.1286 C   0  0  0  0  0  0  0  0  0  0  0  0
    8.6419   -3.6043   23.5351 C   0  0  0  0  0  0  0  0  0  0  0  0
    9.5769   -3.4897   25.7599 C   0  0  0  0  0  0  0  0  0  0  0  0
   12.7644    0.4341   22.6222 C   0  0  0  0  0  0  0  0  0  0  0  0
   13.0482    1.8205   22.6034 C   0  0  0  0  0  0  0  0  0  0  0  0
    9.4793   -2.9852   24.4631 C   0  0  0  0  0  0  0  0  0  0  0  0
   11.6322    0.2863   23.3892 C   0  0  0  0  0  0  0  0  0  0  0  0
   12.0690    2.4212   23.3601 C   0  0  0  0  0  0  0  0  0  0  0  0
    7.8283    1.8673   22.2273 C   0  0  0  0  0  0  0  0  0  0  0  0
    9.1687    3.2499   23.0329 C   0  0  0  0  0  0  0  0  0  0  0  0
   11.8399    3.7853   23.6942 C   0  0  0  0  0  0  0  0  0  0  0  0
    6.7728    0.8503   22.1541 C   0  0  0  0  0  0  0  0  0  0  0  0
    8.2353    2.4087   23.4130 N   0  0  0  0  0  0  0  0  0  0  0  0
    8.4513    2.3206   21.1374 N   0  0  0  0  0  0  0  0  0  0  0  0
    9.3034    3.2035   21.6803 N   0  0  0  0  0  0  0  0  0  0  0  0
   12.7704    4.6235   23.8033 O   0  0  0  0  0  0  0  0  0  0  0  0
   11.2019    1.4928   23.8426 O   0  0  0  0  0  0  0  0  0  0  0  0
    6.2364    0.4950   23.3701 F   0  0  0  0  0  0  0  0  0  0  0  0
    5.6808    1.2144   21.4009 F   0  0  0  0  0  0  0  0  0  0  0  0
    7.1915   -0.3367   21.6025 F   0  0  0  0  0  0  0  0  0  0  0  0
   10.1673    4.3329   24.0381 S   0  0  0  0  0  0  0  0  0  0  0  0
    7.4223   -6.1063   25.4879 H   0  0  0  0  0  0  0  0  0  0  0  0
    7.2494   -5.2090   23.1814 H   0  0  0  0  0  0  0  0  0  0  0  0
    8.9129   -5.0051   27.1387 H   0  0  0  0  0  0  0  0  0  0  0  0
    8.5549   -3.2228   22.5205 H   0  0  0  0  0  0  0  0  0  0  0  0
   10.2249   -3.0178   26.4945 H   0  0  0  0  0  0  0  0  0  0  0  0
   13.3203   -0.3548   22.1351 H   0  0  0  0  0  0  0  0  0  0  0  0
   13.8660    2.3160   22.0995 H   0  0  0  0  0  0  0  0  0  0  0  0
    9.9302    3.7238   21.0785 H   0  0  0  0  0  0  0  0  0  0  0  0
  1  2  3  0  0  0  0
  1 10  1  0  0  0  0
  2 11  1  0  0  0  0
  3  4  1  0  0  0  0
  3  5  2  0  0  0  0
  4  6  2  0  0  0  0
  5  7  1  0  0  0  0
  6 10  1  0  0  0  0
  7 10  2  0  0  0  0
  8  9  1  0  0  0  0
  8 11  2  0  0  0  0
  9 12  2  0  0  0  0
 11 21  1  0  0  0  0
 12 15  1  0  0  0  0
 12 21  1  0  0  0  0
 13 16  1  0  0  0  0
 13 17  1  0  0  0  0
 13 18  2  0  0  0  0
 14 17  2  0  0  0  0
 14 19  1  0  0  0  0
 14 25  1  0  0  0  0
 15 20  2  0  0  0  0
 15 25  1  0  0  0  0
 16 22  1  0  0  0  0
 16 23  1  0  0  0  0
 16 24  1  0  0  0  0
 18 19  1  0  0  0  0
  3 26  1  0  0  0  0
  4 27  1  0  0  0  0
  5 28  1  0  0  0  0
  6 29  1  0  0  0  0
  7 30  1  0  0  0  0
  8 31  1  0  0  0  0
  9 32  1  0  0  0  0
 19 33  1  0  0  0  0
M  END
> <paper/assay>
https://pubchem.ncbi.nlm.nih.gov/bioassay/269112

> <IC50 (um)>
3

> <real_space>
FALSE

> <SCR>
FALSE

> <BB>
FALSE

> <molport_or_mcule>
FALSE

> <PDB>
FALSE

> <Hybrid2>
-8.662864

> <docked_fragment>
x0874

> <Mpro-_dock>
0.330947

> <site>
active-noncovalent

$$$$
15
  -OEChem-04162001263D

 33 35  0     0  0  0  0  0  0999 V2000
   10.2369   -1.8338   24.0854 C   0  0  0  0  0  0  0  0  0  0  0  0
   10.8738   -0.8660   23.7677 C   0  0  0  0  0  0  0  0  0  0  0  0
    7.9998   -5.2324   25.2005 C   0  0  0  0  0  0  0  0  0  0  0  0
    7.9022   -4.7278   23.9038 C   0  0  0  0  0  0  0  0  0  0  0  0
    8.8371   -4.6133   26.1286 C   0  0  0  0  0  0  0  0  0  0  0  0
    8.6419   -3.6043   23.5351 C   0  0  0  0  0  0  0  0  0  0  0  0
    9.5769   -3.4897   25.7599 C   0  0  0  0  0  0  0  0  0  0  0  0
   12.7644    0.4341   22.6222 C   0  0  0  0  0  0  0  0  0  0  0  0
   13.0482    1.8205   22.6034 C   0  0  0  0  0  0  0  0  0  0  0  0
    9.4793   -2.9852   24.4631 C   0  0  0  0  0  0  0  0  0  0  0  0
   11.6322    0.2863   23.3892 C   0  0  0  0  0  0  0  0  0  0  0  0
   12.0690    2.4212   23.3601 C   0  0  0  0  0  0  0  0  0  0  0  0
    7.8283    1.8673   22.2273 C   0  0  0  0  0  0  0  0  0  0  0  0
    9.1687    3.2499   23.0329 C   0  0  0  0  0  0  0  0  0  0  0  0
   11.8399    3.7853   23.6942 C   0  0  0  0  0  0  0  0  0  0  0  0
    6.7728    0.8503   22.1541 C   0  0  0  0  0  0  0  0  0  0  0  0
    8.2353    2.4087   23.4130 N   0  0  0  0  0  0  0  0  0  0  0  0
    8.4513    2.3206   21.1374 N   0  0  0  0  0  0  0  0  0  0  0  0
    9.3034    3.2035   21.6803 N   0  0  0  0  0  0  0  0  0  0  0  0
   12.7704    4.6235   23.8033 O   0  0  0  0  0  0  0  0  0  0  0  0
   11.2019    1.4928   23.8426 O   0  0  0  0  0  0  0  0  0  0  0  0
    6.2364    0.4950   23.3701 F   0  0  0  0  0  0  0  0  0  0  0  0
    5.6808    1.2144   21.4009 F   0  0  0  0  0  0  0  0  0  0  0  0
    7.1915   -0.3367   21.6025 F   0  0  0  0  0  0  0  0  0  0  0  0
   10.1673    4.3329   24.0381 S   0  0  0  0  0  0  0  0  0  0  0  0
    7.4223   -6.1063   25.4879 H   0  0  0  0  0  0  0  0  0  0  0  0
    7.2494   -5.2090   23.1814 H   0  0  0  0  0  0  0  0  0  0  0  0
    8.9129   -5.0051   27.1387 H   0  0  0  0  0  0  0  0  0  0  0  0
    8.5549   -3.2228   22.5205 H   0  0  0  0  0  0  0  0  0  0  0  0
   10.2249   -3.0178   26.4945 H   0  0  0  0  0  0  0  0  0  0  0  0
   13.3203   -0.3548   22.1351 H   0  0  0  0  0  0  0  0  0  0  0  0
   13.8660    2.3160   22.0995 H   0  0  0  0  0  0  0  0  0  0  0  0
    9.9302    3.7238   21.0785 H   0  0  0  0  0  0  0  0  0  0  0  0
  1  2  3  0  0  0  0
  1 10  1  0  0  0  0
  2 11  1  0  0  0  0
  3  4  1  0  0  0  0
  3  5  2  0  0  0  0
  4  6  2  0  0  0  0
  5  7  1  0  0  0  0
  6 10  1  0  0  0  0
  7 10  2  0  0  0  0
  8  9  1  0  0  0  0
  8 11  2  0  0  0  0
  9 12  2  0  0  0  0
 11 21  1  0  0  0  0
 12 15  1  0  0  0  0
 12 21  1  0  0  0  0
 13 16  1  0  0  0  0
 13 17  1  0  0  0  0
 13 18  2  0  0  0  0
 14 17  2  0  0  0  0
 14 19  1  0  0  0  0
 14 25  1  0  0  0  0
 15 20  2  0  0  0  0
 15 25  1  0  0  0  0
 16 22  1  0  0  0  0
 16 23  1  0  0  0  0
 16 24  1  0  0  0  0
 18 19  1  0  0  0  0
  3 26  1  0  0  0  0
  4 27  1  0  0  0  0
  5 28  1  0  0  0  0
  6 29  1  0  0  0  0
  7 30  1  0  0  0  0
  8 31  1  0  0  0  0
  9 32  1  0  0  0  0
 19 33  1  0  0  0  0
M  END
> <paper/assay>
https://doi.org/10.1021/jm060207o

> <IC50 (um)>
3

> <real_space>
FALSE

> <SCR>
FALSE

> <BB>
FALSE

> <molport_or_mcule>
FALSE

> <PDB>
2GZ8

> <Hybrid2>
-8.662864

> <docked_fragment>
x0874

> <Mpro-_dock>
0.330947

> <site>
active-noncovalent

$$$$
3555173
  -OEChem-04162001263D

 45 48  0     1  0  0  0  0  0999 V2000
    9.2273   -2.2560   25.1141 C   0  0  0  0  0  0  0  0  0  0  0  0
    8.9931   -3.1662   24.0853 C   0  0  0  0  0  0  0  0  0  0  0  0
    9.9358   -1.0726   24.8760 C   0  0  0  0  0  0  0  0  0  0  0  0
    9.5682    5.9491   23.7788 C   0  0  0  0  0  0  0  0  0  0  0  0
    8.7931    3.9254   22.7107 C   0  0  0  0  0  0  0  0  0  0  0  0
    9.4575   -2.9244   22.7892 C   0  0  0  0  0  0  0  0  0  0  0  0
    8.5052    6.6542   23.2144 C   0  0  0  0  0  0  0  0  0  0  0  0
    7.7301    4.6305   22.1463 C   0  0  0  0  0  0  0  0  0  0  0  0
   11.3278   -0.0362   21.6591 C   0  0  0  0  0  0  0  0  0  0  0  0
   10.4138   -0.8072   23.5774 C   0  0  0  0  0  0  0  0  0  0  0  0
    9.7121    4.5847   23.5270 C   0  0  0  0  0  0  0  0  0  0  0  0
   11.1486    0.2608   22.9905 C   0  0  0  0  0  0  0  0  0  0  0  0
   10.1642   -1.7373   22.5660 C   0  0  0  0  0  0  0  0  0  0  0  0
    7.5862    5.9949   22.3981 C   0  0  0  0  0  0  0  0  0  0  0  0
   10.5756    2.3566   24.3131 C   0  0  0  0  0  0  0  0  0  0  0  0
   12.9145    4.7901   23.0632 C   0  0  0  0  0  0  0  0  0  0  0  0
   10.8600    3.8228   24.1372 C   0  0  1  0  0  0  0  0  0  0  0  0
   11.6478    1.4987   23.6912 C   0  0  2  0  0  0  0  0  0  0  0  0
    5.6458    5.9470   21.0240 C   0  0  0  0  0  0  0  0  0  0  0  0
   13.6218    4.7933   21.7287 C   0  0  0  0  0  0  0  0  0  0  0  0
   10.7303   -1.2432   21.4125 N   0  0  0  0  0  0  0  0  0  0  0  0
   12.3295    2.4445   22.8016 N   0  0  0  0  0  0  0  0  0  0  0  0
   12.0527    3.7301   23.2960 N   0  0  0  0  0  0  0  0  0  0  0  0
    9.6139    1.9179   24.9336 O   0  0  0  0  0  0  0  0  0  0  0  0
   13.1151    5.6983   23.8724 O   0  0  0  0  0  0  0  0  0  0  0  0
    6.5483    6.6828   21.8485 O   0  0  0  0  0  0  0  0  0  0  0  0
   12.3664    4.8062   20.4963 Cl  0  0  0  0  0  0  0  0  0  0  0  0
    8.8557   -2.4660   26.1134 H   0  0  0  0  0  0  0  0  0  0  0  0
    8.4406   -4.0791   24.2925 H   0  0  0  0  0  0  0  0  0  0  0  0
   10.1093   -0.3728   25.6885 H   0  0  0  0  0  0  0  0  0  0  0  0
   10.2795    6.4708   24.4135 H   0  0  0  0  0  0  0  0  0  0  0  0
    8.8974    2.8624   22.5089 H   0  0  0  0  0  0  0  0  0  0  0  0
    9.2756   -3.6340   21.9893 H   0  0  0  0  0  0  0  0  0  0  0  0
    8.3983    7.7170   23.4146 H   0  0  0  0  0  0  0  0  0  0  0  0
    7.0175    4.1112   21.5117 H   0  0  0  0  0  0  0  0  0  0  0  0
   11.8250    0.5027   20.8644 H   0  0  0  0  0  0  0  0  0  0  0  0
   11.1520    4.2755   25.1120 H   0  0  0  0  0  0  0  0  0  0  0  0
   12.3531    1.2030   24.5306 H   0  0  0  0  0  0  0  0  0  0  0  0
    4.8658    6.6148   20.6501 H   0  0  0  0  0  0  0  0  0  0  0  0
    5.1987    5.1363   21.6048 H   0  0  0  0  0  0  0  0  0  0  0  0
    6.1976    5.5266   20.1800 H   0  0  0  0  0  0  0  0  0  0  0  0
   14.2164    3.8916   21.6471 H   0  0  0  0  0  0  0  0  0  0  0  0
   14.2259    5.6893   21.6566 H   0  0  0  0  0  0  0  0  0  0  0  0
   10.7078   -1.7053   20.5140 H   0  0  0  0  0  0  0  0  0  0  0  0
   13.3335    2.2813   22.8669 H   0  0  0  0  0  0  0  0  0  0  0  0
  1  2  1  0  0  0  0
  1  3  2  0  0  0  0
  2  6  2  0  0  0  0
  3 10  1  0  0  0  0
  4  7  2  0  0  0  0
  4 11  1  0  0  0  0
  5  8  1  0  0  0  0
  5 11  2  0  0  0  0
  6 13  1  0  0  0  0
  7 14  1  0  0  0  0
  8 14  2  0  0  0  0
  9 12  2  0  0  0  0
  9 21  1  0  0  0  0
 10 12  1  0  0  0  0
 10 13  2  0  0  0  0
 11 17  1  0  0  0  0
 12 18  1  0  0  0  0
 13 21  1  0  0  0  0
 14 26  1  0  0  0  0
 15 17  1  0  0  0  0
 15 18  1  0  0  0  0
 15 24  2  0  0  0  0
 16 20  1  0  0  0  0
 16 23  1  0  0  0  0
 16 25  2  0  0  0  0
 17 23  1  0  0  0  0
 18 22  1  0  0  0  0
 19 26  1  0  0  0  0
 20 27  1  0  0  0  0
 22 23  1  0  0  0  0
  1 28  1  0  0  0  0
  2 29  1  0  0  0  0
  3 30  1  0  0  0  0
  4 31  1  0  0  0  0
  5 32  1  0  0  0  0
  6 33  1  0  0  0  0
  7 34  1  0  0  0  0
  8 35  1  0  0  0  0
  9 36  1  0  0  0  0
 17 37  1  0  0  0  0
 18 38  1  0  0  0  0
 19 39  1  0  0  0  0
 19 40  1  0  0  0  0
 19 41  1  0  0  0  0
 20 42  1  0  0  0  0
 20 43  1  0  0  0  0
 21 44  1  0  0  0  0
 22 45  1  0  0  0  0
M  END
> <paper/assay>
https://pubchem.ncbi.nlm.nih.gov/bioassay/1890

> <IC50 (um)>
3.583

> <real_space>
FALSE

> <SCR>
Z56347140

> <BB>
EN300-10060

> <molport_or_mcule>
FALSE

> <PDB>
FALSE

> <Hybrid2>
-8.618880

> <docked_fragment>
x0104

> <Mpro-_dock>
2.789324

> <site>
active-noncovalent

$$$$
4961646
  -OEChem-04162001263D

 33 35  0     1  0  0  0  0  0999 V2000
    4.5102   -5.5136   24.8779 C   0  0  0  0  0  0  0  0  0  0  0  0
   11.5615   -3.8378   25.0967 C   0  0  0  0  0  0  0  0  0  0  0  0
    5.1567   -5.5481   23.6193 C   0  0  0  0  0  0  0  0  0  0  0  0
   12.5252   -2.8811   25.4958 C   0  0  0  0  0  0  0  0  0  0  0  0
    5.4528   -5.0775   25.7797 C   0  0  0  0  0  0  0  0  0  0  0  0
   10.6630   -3.1659   24.3010 C   0  0  0  0  0  0  0  0  0  0  0  0
    6.4483   -5.1304   23.8417 C   0  0  0  0  0  0  0  0  0  0  0  0
   12.1469   -1.6928   24.9154 C   0  0  0  0  0  0  0  0  0  0  0  0
    9.4460   -3.6222   23.5943 C   0  0  0  0  0  0  0  0  0  0  0  0
    6.7983   -3.0833   21.4412 C   0  0  0  0  0  0  0  0  0  0  0  0
    8.9780   -5.0553   23.6640 C   0  0  0  0  0  0  0  0  0  0  0  0
    7.6482   -4.9410   22.9333 C   0  0  2  0  0  0  0  0  0  0  0  0
   12.7155   -0.3377   24.9369 C   0  0  0  0  0  0  0  0  0  0  0  0
    7.0361   -1.6502   21.0325 C   0  0  0  0  0  0  0  0  0  0  0  0
    8.7199   -2.8414   22.8529 N   0  0  0  0  0  0  0  0  0  0  0  0
    7.6759   -3.5846   22.3841 N   0  0  0  0  0  0  0  0  0  0  0  0
    5.8752   -3.7310   20.9453 O   0  0  0  0  0  0  0  0  0  0  0  0
    6.6369   -4.8416   25.1561 O   0  0  0  0  0  0  0  0  0  0  0  0
   11.0127   -1.8579   24.1853 O   0  0  0  0  0  0  0  0  0  0  0  0
    5.8260   -1.2681   19.8134 Cl  0  0  0  0  0  0  0  0  0  0  0  0
    3.4856   -5.7743   25.1001 H   0  0  0  0  0  0  0  0  0  0  0  0
   11.5287   -4.8858   25.3585 H   0  0  0  0  0  0  0  0  0  0  0  0
    4.7314   -5.8418   22.6702 H   0  0  0  0  0  0  0  0  0  0  0  0
   13.3867   -3.0406   26.1286 H   0  0  0  0  0  0  0  0  0  0  0  0
    5.4397   -4.8924   26.8438 H   0  0  0  0  0  0  0  0  0  0  0  0
    9.6900   -5.6791   23.1137 H   0  0  0  0  0  0  0  0  0  0  0  0
    8.9076   -5.3921   24.7024 H   0  0  0  0  0  0  0  0  0  0  0  0
    7.5710   -5.6702   22.0983 H   0  0  0  0  0  0  0  0  0  0  0  0
   13.4379   -0.1900   24.1144 H   0  0  0  0  0  0  0  0  0  0  0  0
   11.9403    0.4448   24.8394 H   0  0  0  0  0  0  0  0  0  0  0  0
   13.2441   -0.1190   25.8833 H   0  0  0  0  0  0  0  0  0  0  0  0
    8.0304   -1.5671   20.6099 H   0  0  0  0  0  0  0  0  0  0  0  0
    6.9067   -1.0130   21.8993 H   0  0  0  0  0  0  0  0  0  0  0  0
  1  3  1  0  0  0  0
  1  5  2  0  0  0  0
  2  4  1  0  0  0  0
  2  6  2  0  0  0  0
  3  7  2  0  0  0  0
  4  8  2  0  0  0  0
  5 18  1  0  0  0  0
  6  9  1  0  0  0  0
  6 19  1  0  0  0  0
  7 12  1  0  0  0  0
  7 18  1  0  0  0  0
  8 13  1  0  0  0  0
  8 19  1  0  0  0  0
  9 11  1  0  0  0  0
  9 15  2  0  0  0  0
 10 14  1  0  0  0  0
 10 16  1  0  0  0  0
 10 17  2  0  0  0  0
 11 12  1  0  0  0  0
 12 16  1  0  0  0  0
 14 20  1  0  0  0  0
 15 16  1  0  0  0  0
  1 21  1  0  0  0  0
  2 22  1  0  0  0  0
  3 23  1  0  0  0  0
  4 24  1  0  0  0  0
  5 25  1  0  0  0  0
 11 26  1  0  0  0  0
 11 27  1  0  0  0  0
 12 28  1  0  0  0  0
 13 29  1  0  0  0  0
 13 30  1  0  0  0  0
 13 31  1  0  0  0  0
 14 32  1  0  0  0  0
 14 33  1  0  0  0  0
M  END
> <paper/assay>
https://pubchem.ncbi.nlm.nih.gov/bioassay/1890

> <IC50 (um)>
5.195

> <real_space>
FALSE

> <SCR>
Z57054220

> <BB>
EN300-11589

> <molport_or_mcule>
FALSE

> <PDB>
FALSE

> <Hybrid2>
-8.600817

> <docked_fragment>
x0749

> <Mpro-_dock>
-0.334646

> <site>
active-covalent

$$$$
24817255
  -OEChem-04162001263D

 40 42  0     0  0  0  0  0  0999 V2000
    8.9895   -0.6204   23.4015 C   0  0  0  0  0  0  0  0  0  0  0  0
    9.4183   -1.4981   25.6112 C   0  0  0  0  0  0  0  0  0  0  0  0
    9.5845   -0.4945   24.6568 C   0  0  0  0  0  0  0  0  0  0  0  0
    8.0622   -2.7535   24.0550 C   0  0  0  0  0  0  0  0  0  0  0  0
    8.2283   -1.7499   23.1006 C   0  0  0  0  0  0  0  0  0  0  0  0
    8.6572   -2.6276   25.3103 C   0  0  0  0  0  0  0  0  0  0  0  0
   13.3303   -1.8896   22.6999 C   0  0  0  0  0  0  0  0  0  0  0  0
   14.3443   -1.1003   22.0134 C   0  0  0  0  0  0  0  0  0  0  0  0
   12.3668   -1.3231   23.4463 C   0  0  0  0  0  0  0  0  0  0  0  0
   14.4026    0.2415   22.0639 C   0  0  0  0  0  0  0  0  0  0  0  0
   12.3451    0.1008   23.5679 C   0  0  0  0  0  0  0  0  0  0  0  0
   11.5755    1.0194   24.1816 C   0  0  0  0  0  0  0  0  0  0  0  0
   13.3787    0.9210   22.8635 C   0  0  0  0  0  0  0  0  0  0  0  0
   10.3974    0.7124   24.9805 C   0  0  0  0  0  0  0  0  0  0  0  0
   10.1324    5.5703   23.3952 C   0  0  0  0  0  0  0  0  0  0  0  0
   10.7842    4.2373   23.0746 C   0  0  0  0  0  0  0  0  0  0  0  0
   11.4375    3.5787   24.2817 C   0  0  0  0  0  0  0  0  0  0  0  0
   12.0304    2.3115   23.9549 N   0  0  0  0  0  0  0  0  0  0  0  0
   13.1909    2.1965   23.0797 N   0  0  0  0  0  0  0  0  0  0  0  0
    7.2888   -3.9000   23.7499 N   0  0  0  0  0  0  0  0  0  0  0  0
   11.0358    6.4896   23.8849 N   0  0  0  0  0  0  0  0  0  0  0  0
   10.0507    1.4483   25.9100 O   0  0  0  0  0  0  0  0  0  0  0  0
    8.9401    5.8100   23.2287 O   0  0  0  0  0  0  0  0  0  0  0  0
   13.8771    3.1568   22.6240 O   0  0  0  0  0  0  0  0  0  0  0  0
    7.5081   -1.8599   21.5332 Cl  0  0  0  0  0  0  0  0  0  0  0  0
    8.4790   -3.8437   26.5252 Cl  0  0  0  0  0  0  0  0  0  0  0  0
    9.1211    0.1663   22.6617 H   0  0  0  0  0  0  0  0  0  0  0  0
    9.8856   -1.3954   26.5884 H   0  0  0  0  0  0  0  0  0  0  0  0
   13.3766   -2.9677   22.5863 H   0  0  0  0  0  0  0  0  0  0  0  0
   15.0798   -1.6509   21.4350 H   0  0  0  0  0  0  0  0  0  0  0  0
   11.6190   -1.9248   23.9484 H   0  0  0  0  0  0  0  0  0  0  0  0
   15.1608    0.8139   21.5467 H   0  0  0  0  0  0  0  0  0  0  0  0
   11.5216    4.3906   22.2772 H   0  0  0  0  0  0  0  0  0  0  0  0
   10.0009    3.5754   22.6861 H   0  0  0  0  0  0  0  0  0  0  0  0
   12.2228    4.2112   24.7080 H   0  0  0  0  0  0  0  0  0  0  0  0
   10.6896    3.3882   25.0575 H   0  0  0  0  0  0  0  0  0  0  0  0
    6.8315   -3.9515   22.8653 H   0  0  0  0  0  0  0  0  0  0  0  0
    7.1417   -4.5848   24.4596 H   0  0  0  0  0  0  0  0  0  0  0  0
   12.0073    6.2152   23.9851 H   0  0  0  0  0  0  0  0  0  0  0  0
   10.7633    7.4311   24.1486 H   0  0  0  0  0  0  0  0  0  0  0  0
  1  3  1  0  0  0  0
  1  5  2  0  0  0  0
  2  3  2  0  0  0  0
  2  6  1  0  0  0  0
  3 14  1  0  0  0  0
  4  5  1  0  0  0  0
  4  6  2  0  0  0  0
  4 20  1  0  0  0  0
  5 25  1  0  0  0  0
  6 26  1  0  0  0  0
  7  8  1  0  0  0  0
  7  9  2  0  0  0  0
  8 10  2  0  0  0  0
  9 11  1  0  0  0  0
 10 13  1  0  0  0  0
 11 12  2  0  0  0  0
 11 13  1  0  0  0  0
 12 14  1  0  0  0  0
 12 18  1  0  0  0  0
 13 19  2  0  0  0  0
 14 22  2  0  0  0  0
 15 16  1  0  0  0  0
 15 21  1  0  0  0  0
 15 23  2  0  0  0  0
 16 17  1  0  0  0  0
 17 18  1  0  0  0  0
 18 19  1  0  0  0  0
 19 24  2  0  0  0  0
  1 27  1  0  0  0  0
  2 28  1  0  0  0  0
  7 29  1  0  0  0  0
  8 30  1  0  0  0  0
  9 31  1  0  0  0  0
 10 32  1  0  0  0  0
 16 33  1  0  0  0  0
 16 34  1  0  0  0  0
 17 35  1  0  0  0  0
 17 36  1  0  0  0  0
 20 37  1  0  0  0  0
 20 38  1  0  0  0  0
 21 39  1  0  0  0  0
 21 40  1  0  0  0  0
M  END
> <paper/assay>
https://pubchem.ncbi.nlm.nih.gov/bioassay/1890

> <IC50 (um)>
9.811

> <real_space>
FALSE

> <SCR>
FALSE

> <BB>
FALSE

> <molport_or_mcule>
FALSE

> <PDB>
FALSE

> <Hybrid2>
-8.584827

> <docked_fragment>
x0195

> <Mpro-_dock>
1.325969

> <site>
active-noncovalent

$$$$
carmofur
  -OEChem-04162001263D

 34 34  0     0  0  0  0  0  0999 V2000
   11.1309    4.2778   24.1078 C   0  0  0  0  0  0  0  0  0  0  0  0
   11.0573    5.4480   24.7372 C   0  0  0  0  0  0  0  0  0  0  0  0
   12.1969    6.3659   24.7655 C   0  0  0  0  0  0  0  0  0  0  0  0
   13.4327    4.6536   23.4228 C   0  0  0  0  0  0  0  0  0  0  0  0
   12.1626    2.5354   22.8179 C   0  0  0  0  0  0  0  0  0  0  0  0
   10.1113   -2.7944   22.8190 C   0  0  0  0  0  0  0  0  0  0  0  0
   11.5300   -2.3878   23.1866 C   0  0  0  0  0  0  0  0  0  0  0  0
   11.6100   -1.0551   23.9341 C   0  0  0  0  0  0  0  0  0  0  0  0
   13.0317   -0.6852   24.3645 C   0  0  0  0  0  0  0  0  0  0  0  0
   13.9547   -0.5333   23.1507 C   0  0  0  0  0  0  0  0  0  0  0  0
   13.4504    0.5116   22.1601 C   0  0  0  0  0  0  0  0  0  0  0  0
   13.3047    5.8807   24.0924 N   0  0  0  0  0  0  0  0  0  0  0  0
   12.2662    3.8279   23.4343 N   0  0  0  0  0  0  0  0  0  0  0  0
   13.3609    1.8311   22.7422 N   0  0  0  0  0  0  0  0  0  0  0  0
   12.1403    7.4476   25.3392 O   0  0  0  0  0  0  0  0  0  0  0  0
   14.5042    4.3617   22.8864 O   0  0  0  0  0  0  0  0  0  0  0  0
   11.1058    2.0624   22.3867 O   0  0  0  0  0  0  0  0  0  0  0  0
    9.9441    5.8527   25.3756 F   0  0  0  0  0  0  0  0  0  0  0  0
   10.2622    3.6282   24.1083 H   0  0  0  0  0  0  0  0  0  0  0  0
    9.4743   -2.8458   23.7075 H   0  0  0  0  0  0  0  0  0  0  0  0
    9.6626   -2.0916   22.1109 H   0  0  0  0  0  0  0  0  0  0  0  0
   10.1146   -3.7823   22.3469 H   0  0  0  0  0  0  0  0  0  0  0  0
   12.1439   -2.3446   22.2795 H   0  0  0  0  0  0  0  0  0  0  0  0
   11.9614   -3.1691   23.8238 H   0  0  0  0  0  0  0  0  0  0  0  0
   11.1933   -0.2567   23.3082 H   0  0  0  0  0  0  0  0  0  0  0  0
   10.9723   -1.1238   24.8243 H   0  0  0  0  0  0  0  0  0  0  0  0
   13.4305   -1.4573   25.0313 H   0  0  0  0  0  0  0  0  0  0  0  0
   13.0115    0.2548   24.9290 H   0  0  0  0  0  0  0  0  0  0  0  0
   14.9645   -0.2687   23.4881 H   0  0  0  0  0  0  0  0  0  0  0  0
   14.0293   -1.4970   22.6324 H   0  0  0  0  0  0  0  0  0  0  0  0
   12.4594    0.2463   21.7784 H   0  0  0  0  0  0  0  0  0  0  0  0
   14.1362    0.5845   21.3102 H   0  0  0  0  0  0  0  0  0  0  0  0
   14.1224    6.4843   24.0818 H   0  0  0  0  0  0  0  0  0  0  0  0
   14.2223    2.2653   23.0608 H   0  0  0  0  0  0  0  0  0  0  0  0
  1  2  2  0  0  0  0
  1 13  1  0  0  0  0
  2  3  1  0  0  0  0
  2 18  1  0  0  0  0
  3 12  1  0  0  0  0
  3 15  2  0  0  0  0
  4 12  1  0  0  0  0
  4 13  1  0  0  0  0
  4 16  2  0  0  0  0
  5 13  1  0  0  0  0
  5 14  1  0  0  0  0
  5 17  2  0  0  0  0
  6  7  1  0  0  0  0
  7  8  1  0  0  0  0
  8  9  1  0  0  0  0
  9 10  1  0  0  0  0
 10 11  1  0  0  0  0
 11 14  1  0  0  0  0
  1 19  1  0  0  0  0
  6 20  1  0  0  0  0
  6 21  1  0  0  0  0
  6 22  1  0  0  0  0
  7 23  1  0  0  0  0
  7 24  1  0  0  0  0
  8 25  1  0  0  0  0
  8 26  1  0  0  0  0
  9 27  1  0  0  0  0
  9 28  1  0  0  0  0
 10 29  1  0  0  0  0
 10 30  1  0  0  0  0
 11 31  1  0  0  0  0
 11 32  1  0  0  0  0
 12 33  1  0  0  0  0
 14 34  1  0  0  0  0
M  END
> <paper/assay>
https://www.nature.com/articles/s41586-020-2223-y

> <IC50 (um)>
1.82

> <real_space>
FALSE

> <SCR>
FALSE

> <BB>
FALSE

> <molport_or_mcule>
['https://mcule.com/MCULE-1900295059/', 'https://mcule.com/MCULE-1900295059/', 'http://www.sigmaaldrich.com/catalog/search?term=C1494
SIGMA&interface=All&N=0&mode=match%20partialmax&lang=en&region=US&focus=product', 'http://www.sigmaaldrich.com/catalog/search?term=C1494&interface=All&N=0&mode=match%20partialmax&lang=en&region=US&focus=product', 'https://www.molport.com/shop/molecule-link/MolPort-001-771-501', 'https://www.molport.com/shop/molecule-link/MolPort-001-771-501']

> <PDB>
FALSE

> <Hybrid2>
-8.581223

> <docked_fragment>
x0195

> <Mpro-_dock>
-0.387295

> <site>
active-noncovalent

$$$$
7
  -OEChem-04162001263D

 44 47  0     0  0  0  0  0  0999 V2000
    9.7040   -0.0234   24.7437 C   0  0  0  0  0  0  0  0  0  0  0  0
    7.2165    5.3869   23.4549 C   0  0  0  0  0  0  0  0  0  0  0  0
    8.7224    6.7466   22.1432 C   0  0  0  0  0  0  0  0  0  0  0  0
   10.0070    1.3401   24.7983 C   0  0  0  0  0  0  0  0  0  0  0  0
    8.3062    4.8030   24.1007 C   0  0  0  0  0  0  0  0  0  0  0  0
    9.8121    6.1627   22.7891 C   0  0  0  0  0  0  0  0  0  0  0  0
   12.4439    1.8530   22.1822 C   0  0  0  0  0  0  0  0  0  0  0  0
   11.2466   -0.3515   22.8971 C   0  0  0  0  0  0  0  0  0  0  0  0
    7.4392   -3.6268   24.4527 C   0  0  0  0  0  0  0  0  0  0  0  0
    9.0033   -5.0070   25.5950 C   0  0  0  0  0  0  0  0  0  0  0  0
    6.9501   -5.8780   25.0436 C   0  0  0  0  0  0  0  0  0  0  0  0
   12.3346    3.1313   22.6792 C   0  0  0  0  0  0  0  0  0  0  0  0
   11.5680    1.0200   22.9331 C   0  0  0  0  0  0  0  0  0  0  0  0
   10.3131   -0.8580   23.8086 C   0  0  0  0  0  0  0  0  0  0  0  0
    7.4245    6.3586   22.4760 C   0  0  0  0  0  0  0  0  0  0  0  0
   10.9420    1.8325   23.8809 C   0  0  0  0  0  0  0  0  0  0  0  0
    8.6940   -3.7795   25.0316 C   0  0  0  0  0  0  0  0  0  0  0  0
    9.6040    5.1909   23.7679 C   0  0  0  0  0  0  0  0  0  0  0  0
    6.5445   -4.6912   24.4546 C   0  0  0  0  0  0  0  0  0  0  0  0
    9.9762   -2.2730   23.7778 C   0  0  0  0  0  0  0  0  0  0  0  0
    6.2597    6.9826   21.7847 C   0  0  0  0  0  0  0  0  0  0  0  0
    8.1607   -6.0640   25.6159 N   0  0  0  0  0  0  0  0  0  0  0  0
   11.4266    3.1088   23.7037 N   0  0  0  0  0  0  0  0  0  0  0  0
   10.0002   -2.9754   22.7576 O   0  0  0  0  0  0  0  0  0  0  0  0
   12.1261    5.3663   24.4964 O   0  0  0  0  0  0  0  0  0  0  0  0
   10.4970    4.0018   25.8954 O   0  0  0  0  0  0  0  0  0  0  0  0
    9.6147   -2.7282   25.0437 O   0  0  0  0  0  0  0  0  0  0  0  0
   10.9901    4.4500   24.5909 S   0  0  0  0  0  0  0  0  0  0  0  0
    4.9880   -4.5396   23.7504 Cl  0  0  0  0  0  0  0  0  0  0  0  0
    8.9795   -0.4272   25.4478 H   0  0  0  0  0  0  0  0  0  0  0  0
    6.2089    5.0781   23.7205 H   0  0  0  0  0  0  0  0  0  0  0  0
    8.8941    7.5026   21.3815 H   0  0  0  0  0  0  0  0  0  0  0  0
    9.5281    1.9834   25.5287 H   0  0  0  0  0  0  0  0  0  0  0  0
    8.1329    4.0464   24.8615 H   0  0  0  0  0  0  0  0  0  0  0  0
   10.8191    6.4721   22.5217 H   0  0  0  0  0  0  0  0  0  0  0  0
   13.0864    1.5511   21.3664 H   0  0  0  0  0  0  0  0  0  0  0  0
   11.7204   -1.0042   22.1684 H   0  0  0  0  0  0  0  0  0  0  0  0
    7.1651   -2.6759   24.0023 H   0  0  0  0  0  0  0  0  0  0  0  0
    9.9681   -5.1831   26.0604 H   0  0  0  0  0  0  0  0  0  0  0  0
    6.2983   -6.7458   25.0766 H   0  0  0  0  0  0  0  0  0  0  0  0
   12.8288    4.0483   22.3876 H   0  0  0  0  0  0  0  0  0  0  0  0
    5.9265    7.8754   22.3280 H   0  0  0  0  0  0  0  0  0  0  0  0
    6.5155    7.2753   20.7581 H   0  0  0  0  0  0  0  0  0  0  0  0
    5.4164    6.2830   21.7147 H   0  0  0  0  0  0  0  0  0  0  0  0
  1  4  2  0  0  0  0
  1 14  1  0  0  0  0
  2  5  2  0  0  0  0
  2 15  1  0  0  0  0
  3  6  1  0  0  0  0
  3 15  2  0  0  0  0
  4 16  1  0  0  0  0
  5 18  1  0  0  0  0
  6 18  2  0  0  0  0
  7 12  2  0  0  0  0
  7 13  1  0  0  0  0
  8 13  1  0  0  0  0
  8 14  2  0  0  0  0
  9 17  2  0  0  0  0
  9 19  1  0  0  0  0
 10 17  1  0  0  0  0
 10 22  2  0  0  0  0
 11 19  2  0  0  0  0
 11 22  1  0  0  0  0
 12 23  1  0  0  0  0
 13 16  2  0  0  0  0
 14 20  1  0  0  0  0
 15 21  1  0  0  0  0
 16 23  1  0  0  0  0
 17 27  1  0  0  0  0
 18 28  1  0  0  0  0
 19 29  1  0  0  0  0
 20 24  2  0  0  0  0
 20 27  1  0  0  0  0
 23 28  1  0  0  0  0
 25 28  2  0  0  0  0
 26 28  2  0  0  0  0
  1 30  1  0  0  0  0
  2 31  1  0  0  0  0
  3 32  1  0  0  0  0
  4 33  1  0  0  0  0
  5 34  1  0  0  0  0
  6 35  1  0  0  0  0
  7 36  1  0  0  0  0
  8 37  1  0  0  0  0
  9 38  1  0  0  0  0
 10 39  1  0  0  0  0
 11 40  1  0  0  0  0
 12 41  1  0  0  0  0
 21 42  1  0  0  0  0
 21 43  1  0  0  0  0
 21 44  1  0  0  0  0
M  END
> <paper/assay>
http://10.1016/j.bmcl.2008.08.082

> <IC50 (um)>
0.37

> <real_space>
FALSE

> <SCR>
FALSE

> <BB>
FALSE

> <molport_or_mcule>
FALSE

> <PDB>
FALSE

> <Hybrid2>
-8.578849

> <docked_fragment>
x0104

> <Mpro-_dock>
5.226169

> <site>
active-noncovalent

$$$$
13
  -OEChem-04162001263D

 64 66  0     0  0  0  0  0  0999 V2000
   10.0561   -5.3403   24.8809 C   0  0  0  0  0  0  0  0  0  0  0  0
   11.1884   -4.5384   24.7383 C   0  0  0  0  0  0  0  0  0  0  0  0
    7.9377    2.2221   21.3670 C   0  0  0  0  0  0  0  0  0  0  0  0
    9.1771    0.1574   21.1726 C   0  0  0  0  0  0  0  0  0  0  0  0
    6.7992    1.5853   20.8732 C   0  0  0  0  0  0  0  0  0  0  0  0
    8.0386   -0.4795   20.6788 C   0  0  0  0  0  0  0  0  0  0  0  0
    8.7848   -4.7699   24.8152 C   0  0  0  0  0  0  0  0  0  0  0  0
   13.5687   -2.5880   24.3973 C   0  0  0  0  0  0  0  0  0  0  0  0
   14.1982   -1.3367   24.1942 C   0  0  0  0  0  0  0  0  0  0  0  0
    9.7783   -2.5958   24.4644 C   0  0  0  0  0  0  0  0  0  0  0  0
   11.0495   -3.1661   24.5301 C   0  0  0  0  0  0  0  0  0  0  0  0
    9.1267    1.5082   21.5167 C   0  0  0  0  0  0  0  0  0  0  0  0
    6.8496    0.2345   20.5292 C   0  0  0  0  0  0  0  0  0  0  0  0
    8.6459   -3.3977   24.6070 C   0  0  0  0  0  0  0  0  0  0  0  0
   12.2156   -2.3417   24.3831 C   0  0  0  0  0  0  0  0  0  0  0  0
   13.1848   -0.4150   24.0701 C   0  0  0  0  0  0  0  0  0  0  0  0
   13.3183    1.0317   23.8455 C   0  0  0  0  0  0  0  0  0  0  0  0
   10.3397    2.1854   22.0429 C   0  0  0  0  0  0  0  0  0  0  0  0
   12.4276    1.8147   23.2117 C   0  0  0  0  0  0  0  0  0  0  0  0
   12.7635    3.2692   23.0737 C   0  0  0  0  0  0  0  0  0  0  0  0
    5.6316   -0.4464   20.0023 C   0  0  0  0  0  0  0  0  0  0  0  0
    7.6194    6.6177   24.2291 C   0  0  0  0  0  0  0  0  0  0  0  0
    8.7827    6.4417   26.4374 C   0  0  0  0  0  0  0  0  0  0  0  0
   11.4335    6.2069   24.9440 C   0  0  0  0  0  0  0  0  0  0  0  0
   10.0663    6.0471   24.2678 C   0  0  0  0  0  0  0  0  0  0  0  0
   12.5434    5.4741   24.1957 C   0  0  0  0  0  0  0  0  0  0  0  0
    8.9424    6.8341   24.9679 C   0  0  0  0  0  0  0  0  0  0  0  0
   11.2461    1.3622   22.6936 N   0  0  0  0  0  0  0  0  0  0  0  0
   12.3141    4.0576   24.1254 N   0  0  0  0  0  0  0  0  0  0  0  0
    7.3513   -2.8181   24.5405 N   0  0  0  0  0  0  0  0  0  0  0  0
   10.4815    3.3911   21.8559 O   0  0  0  0  0  0  0  0  0  0  0  0
   13.3945    3.6935   22.1080 O   0  0  0  0  0  0  0  0  0  0  0  0
    6.3464   -3.5581   24.6714 O   0  0  0  0  0  0  0  0  0  0  0  0
    7.2475   -1.5818   24.3529 O   0  0  0  0  0  0  0  0  0  0  0  0
   11.9731   -1.0195   24.1841 O   0  0  0  0  0  0  0  0  0  0  0  0
   10.1642   -6.4088   25.0432 H   0  0  0  0  0  0  0  0  0  0  0  0
   12.1727   -4.9981   24.7918 H   0  0  0  0  0  0  0  0  0  0  0  0
    7.8879    3.2750   21.6323 H   0  0  0  0  0  0  0  0  0  0  0  0
   10.0980   -0.4088   21.2849 H   0  0  0  0  0  0  0  0  0  0  0  0
    5.8771    2.1491   20.7602 H   0  0  0  0  0  0  0  0  0  0  0  0
    8.0867   -1.5325   20.4137 H   0  0  0  0  0  0  0  0  0  0  0  0
    7.9107   -5.4067   24.9280 H   0  0  0  0  0  0  0  0  0  0  0  0
   14.0469   -3.5475   24.5361 H   0  0  0  0  0  0  0  0  0  0  0  0
   15.2605   -1.1410   24.1455 H   0  0  0  0  0  0  0  0  0  0  0  0
    9.6674   -1.5248   24.3024 H   0  0  0  0  0  0  0  0  0  0  0  0
   14.2261    1.4577   24.2685 H   0  0  0  0  0  0  0  0  0  0  0  0
    5.5923   -0.3664   18.9091 H   0  0  0  0  0  0  0  0  0  0  0  0
    5.6207   -1.5098   20.2740 H   0  0  0  0  0  0  0  0  0  0  0  0
    4.7168   -0.0032   20.4169 H   0  0  0  0  0  0  0  0  0  0  0  0
    7.3332    5.5608   24.2444 H   0  0  0  0  0  0  0  0  0  0  0  0
    6.8090    7.1958   24.6866 H   0  0  0  0  0  0  0  0  0  0  0  0
    7.7044    6.9237   23.1809 H   0  0  0  0  0  0  0  0  0  0  0  0
    8.5428    5.3781   26.5405 H   0  0  0  0  0  0  0  0  0  0  0  0
    9.6960    6.6426   27.0052 H   0  0  0  0  0  0  0  0  0  0  0  0
    7.9773    7.0166   26.9073 H   0  0  0  0  0  0  0  0  0  0  0  0
   11.6897    7.2720   24.9908 H   0  0  0  0  0  0  0  0  0  0  0  0
   11.3891    5.8357   25.9742 H   0  0  0  0  0  0  0  0  0  0  0  0
    9.7973    4.9843   24.2242 H   0  0  0  0  0  0  0  0  0  0  0  0
   10.1458    6.3943   23.2296 H   0  0  0  0  0  0  0  0  0  0  0  0
   12.6479    5.8484   23.1725 H   0  0  0  0  0  0  0  0  0  0  0  0
   13.4991    5.6183   24.7097 H   0  0  0  0  0  0  0  0  0  0  0  0
    9.1809    7.9043   24.9222 H   0  0  0  0  0  0  0  0  0  0  0  0
   11.0226    0.3803   22.7896 H   0  0  0  0  0  0  0  0  0  0  0  0
   11.7982    3.6108   24.8817 H   0  0  0  0  0  0  0  0  0  0  0  0
  1  2  2  0  0  0  0
  1  7  1  0  0  0  0
  2 11  1  0  0  0  0
  3  5  2  0  0  0  0
  3 12  1  0  0  0  0
  4  6  1  0  0  0  0
  4 12  2  0  0  0  0
  5 13  1  0  0  0  0
  6 13  2  0  0  0  0
  7 14  2  0  0  0  0
  8  9  1  0  0  0  0
  8 15  2  0  0  0  0
  9 16  2  0  0  0  0
 10 11  2  0  0  0  0
 10 14  1  0  0  0  0
 11 15  1  0  0  0  0
 12 18  1  0  0  0  0
 13 21  1  0  0  0  0
 14 30  1  0  0  0  0
 15 35  1  0  0  0  0
 16 17  1  0  0  0  0
 16 35  1  0  0  0  0
 17 19  2  0  0  0  0
 18 28  1  0  0  0  0
 18 31  2  0  0  0  0
 19 20  1  0  0  0  0
 19 28  1  0  0  0  0
 20 29  1  0  0  0  0
 20 32  2  0  0  0  0
 22 27  1  0  0  0  0
 23 27  1  0  0  0  0
 24 25  1  0  0  0  0
 24 26  1  0  0  0  0
 25 27  1  0  0  0  0
 26 29  1  0  0  0  0
 30 33  2  0  0  0  0
 30 34  2  0  0  0  0
  1 36  1  0  0  0  0
  2 37  1  0  0  0  0
  3 38  1  0  0  0  0
  4 39  1  0  0  0  0
  5 40  1  0  0  0  0
  6 41  1  0  0  0  0
  7 42  1  0  0  0  0
  8 43  1  0  0  0  0
  9 44  1  0  0  0  0
 10 45  1  0  0  0  0
 17 46  1  0  0  0  0
 21 47  1  0  0  0  0
 21 48  1  0  0  0  0
 21 49  1  0  0  0  0
 22 50  1  0  0  0  0
 22 51  1  0  0  0  0
 22 52  1  0  0  0  0
 23 53  1  0  0  0  0
 23 54  1  0  0  0  0
 23 55  1  0  0  0  0
 24 56  1  0  0  0  0
 24 57  1  0  0  0  0
 25 58  1  0  0  0  0
 25 59  1  0  0  0  0
 26 60  1  0  0  0  0
 26 61  1  0  0  0  0
 27 62  1  0  0  0  0
 28 63  1  0  0  0  0
 29 64  1  0  0  0  0
M  END
> <paper/assay>
http://dx.doi.org/10.1021/jm301580n

> <IC50 (um)>
9.1

> <real_space>
FALSE

> <SCR>
FALSE

> <BB>
FALSE

> <molport_or_mcule>
FALSE

> <PDB>
FALSE

> <Hybrid2>
-8.577428

> <docked_fragment>
x0161

> <Mpro-_dock>
6.876286

> <site>
active-noncovalent

$$$$
24761173
  -OEChem-04162001263D

 44 46  0     0  0  0  0  0  0999 V2000
   13.0268   -0.7842   23.5919 C   0  0  0  0  0  0  0  0  0  0  0  0
   14.2082   -0.6411   22.8587 C   0  0  0  0  0  0  0  0  0  0  0  0
   13.7466    1.7101   22.4639 C   0  0  0  0  0  0  0  0  0  0  0  0
   12.5505    1.5900   23.1990 C   0  0  0  0  0  0  0  0  0  0  0  0
   12.2189    0.3481   23.7449 C   0  0  0  0  0  0  0  0  0  0  0  0
   11.5097    2.4933   23.5534 C   0  0  0  0  0  0  0  0  0  0  0  0
   14.5646    0.5859   22.3026 C   0  0  0  0  0  0  0  0  0  0  0  0
   10.5834    1.7953   24.2935 C   0  0  0  0  0  0  0  0  0  0  0  0
   10.4026    4.7513   23.5631 C   0  0  0  0  0  0  0  0  0  0  0  0
    7.6588   -1.0956   23.4134 C   0  0  0  0  0  0  0  0  0  0  0  0
    9.2649   -2.1677   21.8419 C   0  0  0  0  0  0  0  0  0  0  0  0
    6.9515   -2.4374   23.5026 C   0  0  0  0  0  0  0  0  0  0  0  0
    8.4735   -3.4534   22.0136 C   0  0  0  0  0  0  0  0  0  0  0  0
   10.6758    6.1287   23.0130 C   0  0  0  0  0  0  0  0  0  0  0  0
   10.3149   -0.5589   25.1147 C   0  0  0  0  0  0  0  0  0  0  0  0
    9.9563   -1.7500   24.2359 C   0  0  0  0  0  0  0  0  0  0  0  0
   11.0200    0.5024   24.4039 N   0  0  0  0  0  0  0  0  0  0  0  0
   11.4184    3.8286   23.2288 N   0  0  0  0  0  0  0  0  0  0  0  0
    9.1149   -1.3046   23.0720 N   0  3  0  0  0  0  0  0  0  0  0  0
    9.3926    4.5272   24.2224 O   0  0  0  0  0  0  0  0  0  0  0  0
    7.1013   -3.1658   22.2836 O   0  0  0  0  0  0  0  0  0  0  0  0
    9.4424    2.1826   24.8508 O   0  0  0  0  0  0  0  0  0  0  0  0
   15.7030    0.6922   21.6036 F   0  0  0  0  0  0  0  0  0  0  0  0
   12.7542   -1.7421   24.0221 H   0  0  0  0  0  0  0  0  0  0  0  0
   14.8590   -1.5008   22.7211 H   0  0  0  0  0  0  0  0  0  0  0  0
   14.0384    2.6593   22.0240 H   0  0  0  0  0  0  0  0  0  0  0  0
    7.2180   -0.4636   22.6275 H   0  0  0  0  0  0  0  0  0  0  0  0
    7.6276   -0.5584   24.3749 H   0  0  0  0  0  0  0  0  0  0  0  0
   10.3413   -2.3692   21.7207 H   0  0  0  0  0  0  0  0  0  0  0  0
    8.9023   -1.5875   20.9797 H   0  0  0  0  0  0  0  0  0  0  0  0
    7.3983   -3.0369   24.3023 H   0  0  0  0  0  0  0  0  0  0  0  0
    5.8861   -2.3207   23.7361 H   0  0  0  0  0  0  0  0  0  0  0  0
    8.5499   -4.0988   21.1302 H   0  0  0  0  0  0  0  0  0  0  0  0
    8.8666   -4.0164   22.8663 H   0  0  0  0  0  0  0  0  0  0  0  0
   10.2373    6.2226   22.0155 H   0  0  0  0  0  0  0  0  0  0  0  0
   11.7550    6.2918   22.9425 H   0  0  0  0  0  0  0  0  0  0  0  0
   10.2466    6.8868   23.6747 H   0  0  0  0  0  0  0  0  0  0  0  0
    9.4015   -0.1103   25.5239 H   0  0  0  0  0  0  0  0  0  0  0  0
   10.9277   -0.8667   25.9703 H   0  0  0  0  0  0  0  0  0  0  0  0
   10.8559   -2.2038   23.8102 H   0  0  0  0  0  0  0  0  0  0  0  0
    9.3814   -2.5127   24.7694 H   0  0  0  0  0  0  0  0  0  0  0  0
   12.1864    4.2327   22.6653 H   0  0  0  0  0  0  0  0  0  0  0  0
    9.4889   -0.3523   22.8042 H   0  0  0  0  0  0  0  0  0  0  0  0
    9.2561    3.1338   24.6895 H   0  0  0  0  0  0  0  0  0  0  0  0
  1  2  2  0  0  0  0
  1  5  1  0  0  0  0
  2  7  1  0  0  0  0
  3  4  1  0  0  0  0
  3  7  2  0  0  0  0
  4  5  2  0  0  0  0
  4  6  1  0  0  0  0
  5 17  1  0  0  0  0
  6  8  2  0  0  0  0
  6 18  1  0  0  0  0
  7 23  1  0  0  0  0
  8 17  1  0  0  0  0
  8 22  1  0  0  0  0
  9 14  1  0  0  0  0
  9 18  1  0  0  0  0
  9 20  2  0  0  0  0
 10 12  1  0  0  0  0
 10 19  1  0  0  0  0
 11 13  1  0  0  0  0
 11 19  1  0  0  0  0
 12 21  1  0  0  0  0
 13 21  1  0  0  0  0
 15 16  1  0  0  0  0
 15 17  1  0  0  0  0
 16 19  1  0  0  0  0
  1 24  1  0  0  0  0
  2 25  1  0  0  0  0
  3 26  1  0  0  0  0
 10 27  1  0  0  0  0
 10 28  1  0  0  0  0
 11 29  1  0  0  0  0
 11 30  1  0  0  0  0
 12 31  1  0  0  0  0
 12 32  1  0  0  0  0
 13 33  1  0  0  0  0
 13 34  1  0  0  0  0
 14 35  1  0  0  0  0
 14 36  1  0  0  0  0
 14 37  1  0  0  0  0
 15 38  1  0  0  0  0
 15 39  1  0  0  0  0
 16 40  1  0  0  0  0
 16 41  1  0  0  0  0
 18 42  1  0  0  0  0
 19 43  1  0  0  0  0
 22 44  1  0  0  0  0
M  CHG  1  19   1
M  END
> <paper/assay>
https://pubchem.ncbi.nlm.nih.gov/bioassay/1890

> <IC50 (um)>
9.097

> <real_space>
FALSE

> <SCR>
FALSE

> <BB>
FALSE

> <molport_or_mcule>
FALSE

> <PDB>
FALSE

> <Hybrid2>
-8.575221

> <docked_fragment>
x0195

> <Mpro-_dock>
2.338974

> <site>
active-noncovalent

$$$$
2558401
  -OEChem-04162001263D

 43 45  0     0  0  0  0  0  0999 V2000
    3.1907    2.7862   21.9416 C   0  0  0  0  0  0  0  0  0  0  0  0
    2.5835    3.1015   20.7285 C   0  0  0  0  0  0  0  0  0  0  0  0
   13.8135   -0.5300   23.0730 C   0  0  0  0  0  0  0  0  0  0  0  0
   13.2310   -1.7547   22.7469 C   0  0  0  0  0  0  0  0  0  0  0  0
    4.3465    1.9996   21.9693 C   0  0  0  0  0  0  0  0  0  0  0  0
    3.1299    2.6317   19.5377 C   0  0  0  0  0  0  0  0  0  0  0  0
   13.0216    0.6139   23.1746 C   0  0  0  0  0  0  0  0  0  0  0  0
   11.8567   -1.8355   22.5223 C   0  0  0  0  0  0  0  0  0  0  0  0
    4.9111    1.5167   20.7814 C   0  0  0  0  0  0  0  0  0  0  0  0
    4.2857    1.8449   19.5680 C   0  0  0  0  0  0  0  0  0  0  0  0
   11.6474    0.5331   22.9500 C   0  0  0  0  0  0  0  0  0  0  0  0
   11.0649   -0.6917   22.6238 C   0  0  0  0  0  0  0  0  0  0  0  0
    6.6124    0.2540   19.5648 C   0  0  0  0  0  0  0  0  0  0  0  0
    6.1233    0.6843   20.7375 C   0  0  0  0  0  0  0  0  0  0  0  0
    5.9549    0.5977   18.2755 C   0  0  0  0  0  0  0  0  0  0  0  0
    6.8881    0.2557   21.9166 C   0  0  0  0  0  0  0  0  0  0  0  0
   10.7111    2.4313   21.8657 C   0  0  0  0  0  0  0  0  0  0  0  0
    7.6548   -1.7782   23.1213 C   0  0  0  0  0  0  0  0  0  0  0  0
    9.0971   -2.0239   22.7175 C   0  0  0  0  0  0  0  0  0  0  0  0
    4.8228    1.3787   18.3552 N   0  0  0  0  0  0  0  0  0  0  0  0
    6.9546   -1.1196   22.0420 N   0  0  0  0  0  0  0  0  0  0  0  0
    6.4265    0.1864   17.2174 O   0  0  0  0  0  0  0  0  0  0  0  0
    7.3938    1.0810   22.6735 O   0  0  0  0  0  0  0  0  0  0  0  0
   10.8851    1.6576   23.0511 O   0  0  0  0  0  0  0  0  0  0  0  0
    9.7162   -0.7839   22.3996 O   0  0  0  0  0  0  0  0  0  0  0  0
    2.7645    3.1529   22.8712 H   0  0  0  0  0  0  0  0  0  0  0  0
    1.6860    3.7127   20.7117 H   0  0  0  0  0  0  0  0  0  0  0  0
   14.8837   -0.4670   23.2482 H   0  0  0  0  0  0  0  0  0  0  0  0
   13.8474   -2.6451   22.6678 H   0  0  0  0  0  0  0  0  0  0  0  0
    4.7847    1.7797   22.9382 H   0  0  0  0  0  0  0  0  0  0  0  0
    2.6510    2.8826   18.5949 H   0  0  0  0  0  0  0  0  0  0  0  0
   13.4816    1.5650   23.4292 H   0  0  0  0  0  0  0  0  0  0  0  0
   11.4096   -2.7924   22.2670 H   0  0  0  0  0  0  0  0  0  0  0  0
    7.5042   -0.3614   19.4936 H   0  0  0  0  0  0  0  0  0  0  0  0
   10.0837    3.2988   22.0848 H   0  0  0  0  0  0  0  0  0  0  0  0
   10.2435    1.8158   21.0931 H   0  0  0  0  0  0  0  0  0  0  0  0
   11.6890    2.7708   21.5160 H   0  0  0  0  0  0  0  0  0  0  0  0
    7.1388   -2.7181   23.3417 H   0  0  0  0  0  0  0  0  0  0  0  0
    7.6109   -1.1304   24.0019 H   0  0  0  0  0  0  0  0  0  0  0  0
    9.1339   -2.6581   21.8263 H   0  0  0  0  0  0  0  0  0  0  0  0
    9.6639   -2.5046   23.5214 H   0  0  0  0  0  0  0  0  0  0  0  0
    4.3464    1.6318   17.4941 H   0  0  0  0  0  0  0  0  0  0  0  0
    6.4902   -1.6932   21.3437 H   0  0  0  0  0  0  0  0  0  0  0  0
  1  2  1  0  0  0  0
  1  5  2  0  0  0  0
  2  6  2  0  0  0  0
  3  4  1  0  0  0  0
  3  7  2  0  0  0  0
  4  8  2  0  0  0  0
  5  9  1  0  0  0  0
  6 10  1  0  0  0  0
  7 11  1  0  0  0  0
  8 12  1  0  0  0  0
  9 10  2  0  0  0  0
  9 14  1  0  0  0  0
 10 20  1  0  0  0  0
 11 12  2  0  0  0  0
 11 24  1  0  0  0  0
 12 25  1  0  0  0  0
 13 14  2  0  0  0  0
 13 15  1  0  0  0  0
 14 16  1  0  0  0  0
 15 20  1  0  0  0  0
 15 22  2  0  0  0  0
 16 21  1  0  0  0  0
 16 23  2  0  0  0  0
 17 24  1  0  0  0  0
 18 19  1  0  0  0  0
 18 21  1  0  0  0  0
 19 25  1  0  0  0  0
  1 26  1  0  0  0  0
  2 27  1  0  0  0  0
  3 28  1  0  0  0  0
  4 29  1  0  0  0  0
  5 30  1  0  0  0  0
  6 31  1  0  0  0  0
  7 32  1  0  0  0  0
  8 33  1  0  0  0  0
 13 34  1  0  0  0  0
 17 35  1  0  0  0  0
 17 36  1  0  0  0  0
 17 37  1  0  0  0  0
 18 38  1  0  0  0  0
 18 39  1  0  0  0  0
 19 40  1  0  0  0  0
 19 41  1  0  0  0  0
 20 42  1  0  0  0  0
 21 43  1  0  0  0  0
M  END
> <paper/assay>
https://pubchem.ncbi.nlm.nih.gov/bioassay/1890

> <IC50 (um)>
3.597

> <real_space>
FALSE

> <SCR>
Z30450892

> <BB>
FALSE

> <molport_or_mcule>
['https://www.molport.com/shop/molecule-link/MolPort-028-825-688', 'https://mcule.com/MCULE-4274089916/']

> <PDB>
FALSE

> <Hybrid2>
-8.549057

> <docked_fragment>
x1093

> <Mpro-_dock>
1.915458

> <site>
active-noncovalent

$$$$
MAC-13985
  -OEChem-04162001263D

 24 25  0     0  0  0  0  0  0999 V2000
   13.8269    1.2266   22.6140 C   0  0  0  0  0  0  0  0  0  0  0  0
   13.0287    0.0738   22.7749 C   0  0  0  0  0  0  0  0  0  0  0  0
   13.0121    2.2975   22.9282 C   0  0  0  0  0  0  0  0  0  0  0  0
   11.7943    0.5308   23.1733 C   0  0  0  0  0  0  0  0  0  0  0  0
   12.0519   -2.1932   22.9148 C   0  0  0  0  0  0  0  0  0  0  0  0
   13.2636   -1.3460   22.6100 C   0  0  0  0  0  0  0  0  0  0  0  0
   10.8821   -1.6284   23.3010 C   0  0  0  0  0  0  0  0  0  0  0  0
   13.2693    3.6975   22.9449 C   0  0  0  0  0  0  0  0  0  0  0  0
   12.3006    5.8628   23.3751 C   0  0  0  0  0  0  0  0  0  0  0  0
    9.6746   -2.4653   23.6044 C   0  0  0  0  0  0  0  0  0  0  0  0
   10.7347   -0.2515   23.4369 N   0  0  0  0  0  0  0  0  0  0  0  0
   14.3296   -1.8333   22.2595 O   0  0  0  0  0  0  0  0  0  0  0  0
   14.3626    4.2434   22.6554 O   0  0  0  0  0  0  0  0  0  0  0  0
   11.7596    1.8771   23.2733 O   0  0  0  0  0  0  0  0  0  0  0  0
   12.1677    4.4383   23.3212 O   0  0  0  0  0  0  0  0  0  0  0  0
    9.9438   -3.7750   23.4364 F   0  0  0  0  0  0  0  0  0  0  0  0
    9.2705   -2.2840   24.8773 F   0  0  0  0  0  0  0  0  0  0  0  0
    8.6472   -2.1447   22.7931 F   0  0  0  0  0  0  0  0  0  0  0  0
   14.8626    1.2782   22.3088 H   0  0  0  0  0  0  0  0  0  0  0  0
   12.1681   -3.2663   22.8084 H   0  0  0  0  0  0  0  0  0  0  0  0
   11.3518    6.3065   23.6865 H   0  0  0  0  0  0  0  0  0  0  0  0
   12.5859    6.2406   22.3900 H   0  0  0  0  0  0  0  0  0  0  0  0
   13.0760    6.1202   24.1005 H   0  0  0  0  0  0  0  0  0  0  0  0
    9.8311    0.1027   23.7295 H   0  0  0  0  0  0  0  0  0  0  0  0
  1  2  1  0  0  0  0
  1  3  2  0  0  0  0
  2  4  2  0  0  0  0
  2  6  1  0  0  0  0
  3  8  1  0  0  0  0
  3 14  1  0  0  0  0
  4 11  1  0  0  0  0
  4 14  1  0  0  0  0
  5  6  1  0  0  0  0
  5  7  2  0  0  0  0
  6 12  2  0  0  0  0
  7 10  1  0  0  0  0
  7 11  1  0  0  0  0
  8 13  2  0  0  0  0
  8 15  1  0  0  0  0
  9 15  1  0  0  0  0
 10 16  1  0  0  0  0
 10 17  1  0  0  0  0
 10 18  1  0  0  0  0
  1 19  1  0  0  0  0
  5 20  1  0  0  0  0
  9 21  1  0  0  0  0
  9 22  1  0  0  0  0
  9 23  1  0  0  0  0
 11 24  1  0  0  0  0
M  END
> <paper/assay>
https://doi.org/10.1016/j.chembiol.2004.08.011

> <IC50 (um)>
7

> <real_space>
FALSE

> <SCR>
FALSE

> <BB>
FALSE

> <molport_or_mcule>
FALSE

> <PDB>
FALSE

> <Hybrid2>
-8.455855

> <docked_fragment>
x0195

> <Mpro-_dock>
0.520427

> <site>
active-noncovalent

$$$$
2819040
  -OEChem-04162001263D

 27 28  0     0  0  0  0  0  0999 V2000
   11.7160    0.1642   21.1151 C   0  0  0  0  0  0  0  0  0  0  0  0
   10.4096   -0.7960   22.9064 C   0  0  0  0  0  0  0  0  0  0  0  0
   12.7805   -0.6760   21.4411 C   0  0  0  0  0  0  0  0  0  0  0  0
   11.4742   -1.6363   23.2323 C   0  0  0  0  0  0  0  0  0  0  0  0
    8.4127    0.4776   18.8996 C   0  0  0  0  0  0  0  0  0  0  0  0
   10.5305    0.1043   21.8478 C   0  0  0  0  0  0  0  0  0  0  0  0
    8.1741    0.3309   20.2508 C   0  0  0  0  0  0  0  0  0  0  0  0
   12.6596   -1.5763   22.4997 C   0  0  0  0  0  0  0  0  0  0  0  0
    7.1101   -0.4821   20.5844 C   0  0  0  0  0  0  0  0  0  0  0  0
    6.6666   -0.8864   18.3920 C   0  0  0  0  0  0  0  0  0  0  0  0
    7.6761   -0.1187   17.9393 N   0  0  0  0  0  0  0  0  0  0  0  0
    6.3322   -1.1086   19.6774 N   0  0  0  0  0  0  0  0  0  0  0  0
    6.8106   -0.6753   21.9550 N   0  0  0  0  0  0  0  0  0  0  0  0
    5.8738   -1.5266   17.4147 N   0  0  0  0  0  0  0  0  0  0  0  0
    8.4180    1.3218   22.6582 O   0  0  0  0  0  0  0  0  0  0  0  0
    9.7120    2.3290   20.7445 O   0  0  0  0  0  0  0  0  0  0  0  0
    9.1980    1.1560   21.4397 S   0  0  0  0  0  0  0  0  0  0  0  0
   13.9731   -2.6129   22.9019 Cl  0  0  0  0  0  0  0  0  0  0  0  0
   11.8208    0.8618   20.2885 H   0  0  0  0  0  0  0  0  0  0  0  0
    9.4905   -0.8509   23.4836 H   0  0  0  0  0  0  0  0  0  0  0  0
   13.6983   -0.6183   20.8615 H   0  0  0  0  0  0  0  0  0  0  0  0
   11.3658   -2.3328   24.0598 H   0  0  0  0  0  0  0  0  0  0  0  0
    9.2253    1.0956   18.5308 H   0  0  0  0  0  0  0  0  0  0  0  0
    7.4024   -0.2591   22.6411 H   0  0  0  0  0  0  0  0  0  0  0  0
    6.0731   -1.2986   22.2038 H   0  0  0  0  0  0  0  0  0  0  0  0
    6.0575   -1.3514   16.4482 H   0  0  0  0  0  0  0  0  0  0  0  0
    5.0857   -2.0675   17.7060 H   0  0  0  0  0  0  0  0  0  0  0  0
  1  3  2  0  0  0  0
  1  6  1  0  0  0  0
  2  4  1  0  0  0  0
  2  6  2  0  0  0  0
  3  8  1  0  0  0  0
  4  8  2  0  0  0  0
  5  7  1  0  0  0  0
  5 11  2  0  0  0  0
  6 17  1  0  0  0  0
  7  9  2  0  0  0  0
  7 17  1  0  0  0  0
  8 18  1  0  0  0  0
  9 12  1  0  0  0  0
  9 13  1  0  0  0  0
 10 11  1  0  0  0  0
 10 12  2  0  0  0  0
 10 14  1  0  0  0  0
 15 17  2  0  0  0  0
 16 17  2  0  0  0  0
  1 19  1  0  0  0  0
  2 20  1  0  0  0  0
  3 21  1  0  0  0  0
  4 22  1  0  0  0  0
  5 23  1  0  0  0  0
 13 24  1  0  0  0  0
 13 25  1  0  0  0  0
 14 26  1  0  0  0  0
 14 27  1  0  0  0  0
M  END
> <paper/assay>
https://pubchem.ncbi.nlm.nih.gov/bioassay/269112

> <IC50 (um)>
6

> <real_space>
FALSE

> <SCR>
FALSE

> <BB>
FALSE

> <molport_or_mcule>
['https://www.molport.com/shop/molecule-link/MolPort-002-905-227', 'https://mcule.com/MCULE-9708300642/']

> <PDB>
FALSE

> <Hybrid2>
-8.429440

> <docked_fragment>
x0678

> <Mpro-_dock>
-0.487026

> <site>
active-noncovalent

$$$$
4917203
  -OEChem-04162001263D

 26 27  0     0  0  0  0  0  0999 V2000
    6.7967   -6.0222   22.2602 C   0  0  0  0  0  0  0  0  0  0  0  0
    5.5069   -5.9803   22.7777 C   0  0  0  0  0  0  0  0  0  0  0  0
    7.3999   -4.8509   21.8157 C   0  0  0  0  0  0  0  0  0  0  0  0
    4.8682   -4.7518   22.8287 C   0  0  0  0  0  0  0  0  0  0  0  0
    5.9340    0.4853   18.2512 C   0  0  0  0  0  0  0  0  0  0  0  0
    5.0026    1.3957   18.7457 C   0  0  0  0  0  0  0  0  0  0  0  0
    6.6764   -3.6730   21.9096 C   0  0  0  0  0  0  0  0  0  0  0  0
    7.6163   -1.3070   18.7885 C   0  0  0  0  0  0  0  0  0  0  0  0
    7.7022   -2.5689   19.6201 C   0  0  0  0  0  0  0  0  0  0  0  0
    5.4217   -3.5929   22.4065 N   0  0  0  0  0  0  0  0  0  0  0  0
    6.3664    0.8802   17.0550 N   0  0  0  0  0  0  0  0  0  0  0  0
    4.8260    2.3862   17.8730 N   0  0  0  0  0  0  0  0  0  0  0  0
    6.3737   -0.6944   18.8985 N   0  0  0  0  0  0  0  0  0  0  0  0
    4.2542    1.4602   19.9268 N   0  0  0  0  0  0  0  0  0  0  0  0
    8.5722   -0.9425   18.1084 O   0  0  0  0  0  0  0  0  0  0  0  0
    4.3732    0.5498   20.7965 O   0  0  0  0  0  0  0  0  0  0  0  0
    3.4635    2.4287   20.1174 O   0  0  0  0  0  0  0  0  0  0  0  0
    5.6769    2.0698   16.8122 O   0  0  0  0  0  0  0  0  0  0  0  0
    7.4115   -2.1462   21.3515 S   0  0  0  0  0  0  0  0  0  0  0  0
    7.3307   -6.9662   22.2044 H   0  0  0  0  0  0  0  0  0  0  0  0
    5.0169   -6.8802   23.1310 H   0  0  0  0  0  0  0  0  0  0  0  0
    8.4076   -4.8803   21.4137 H   0  0  0  0  0  0  0  0  0  0  0  0
    3.8619   -4.6658   23.2252 H   0  0  0  0  0  0  0  0  0  0  0  0
    6.9366   -3.2713   19.2766 H   0  0  0  0  0  0  0  0  0  0  0  0
    8.6764   -3.0558   19.5200 H   0  0  0  0  0  0  0  0  0  0  0  0
    5.7022   -1.1461   19.5156 H   0  0  0  0  0  0  0  0  0  0  0  0
  1  2  1  0  0  0  0
  1  3  2  0  0  0  0
  2  4  2  0  0  0  0
  3  7  1  0  0  0  0
  4 10  1  0  0  0  0
  5  6  1  0  0  0  0
  5 11  2  0  0  0  0
  5 13  1  0  0  0  0
  6 12  2  0  0  0  0
  6 14  1  0  0  0  0
  7 10  2  0  0  0  0
  7 19  1  0  0  0  0
  8  9  1  0  0  0  0
  8 13  1  0  0  0  0
  8 15  2  0  0  0  0
  9 19  1  0  0  0  0
 11 18  1  0  0  0  0
 12 18  1  0  0  0  0
 14 16  2  0  0  0  0
 14 17  2  0  0  0  0
  1 20  1  0  0  0  0
  2 21  1  0  0  0  0
  3 22  1  0  0  0  0
  4 23  1  0  0  0  0
  9 24  1  0  0  0  0
  9 25  1  0  0  0  0
 13 26  1  0  0  0  0
M  END
> <paper/assay>
https://pubchem.ncbi.nlm.nih.gov/bioassay/1890

> <IC50 (um)>
7.068

> <real_space>
FALSE

> <SCR>
FALSE

> <BB>
FALSE

> <molport_or_mcule>
['https://mcule.com/MCULE-2290219689/', 'https://www.molport.com/shop/molecule-link/MolPort-002-727-480']

> <PDB>
FALSE

> <Hybrid2>
-8.424897

> <docked_fragment>
x0397

> <Mpro-_dock>
0.764002

> <site>
active-noncovalent

$$$$
2417657
  -OEChem-04162001263D

 59 62  0     0  0  0  0  0  0999 V2000
    4.5799    2.6342   21.9569 C   0  0  0  0  0  0  0  0  0  0  0  0
    3.5786    2.7514   20.9961 C   0  0  0  0  0  0  0  0  0  0  0  0
    5.7344    1.8927   21.6870 C   0  0  0  0  0  0  0  0  0  0  0  0
    3.7278    2.1278   19.7607 C   0  0  0  0  0  0  0  0  0  0  0  0
    5.0198   -5.5365   26.8401 C   0  0  0  0  0  0  0  0  0  0  0  0
    5.9026    1.2571   20.4498 C   0  0  0  0  0  0  0  0  0  0  0  0
    6.2217   -4.8766   27.0959 C   0  0  0  0  0  0  0  0  0  0  0  0
    4.7547   -6.0332   25.5639 C   0  0  0  0  0  0  0  0  0  0  0  0
    7.1585   -4.7132   26.0754 C   0  0  0  0  0  0  0  0  0  0  0  0
    5.6915   -5.8698   24.5434 C   0  0  0  0  0  0  0  0  0  0  0  0
    4.8831    1.3865   19.4931 C   0  0  0  0  0  0  0  0  0  0  0  0
    6.8934   -5.2098   24.7991 C   0  0  0  0  0  0  0  0  0  0  0  0
    7.1879   -0.1220   18.8958 C   0  0  0  0  0  0  0  0  0  0  0  0
    7.0894    0.4614   20.0998 C   0  0  0  0  0  0  0  0  0  0  0  0
    6.1117    0.0107   17.8775 C   0  0  0  0  0  0  0  0  0  0  0  0
    8.2466    0.2294   20.9978 C   0  0  0  0  0  0  0  0  0  0  0  0
    7.0201   -1.8039   21.8347 C   0  0  0  0  0  0  0  0  0  0  0  0
    9.2778   -1.2154   22.7037 C   0  0  0  0  0  0  0  0  0  0  0  0
    6.9156   -2.5560   23.1545 C   0  0  0  0  0  0  0  0  0  0  0  0
    9.4159   -2.7209   22.8807 C   0  0  0  0  0  0  0  0  0  0  0  0
    6.4800   -4.3557   28.4719 C   0  0  0  0  0  0  0  0  0  0  0  0
    3.4597   -6.7358   25.3176 C   0  0  0  0  0  0  0  0  0  0  0  0
    8.4433   -4.0019   26.3636 C   0  0  0  0  0  0  0  0  0  0  0  0
    5.3937   -6.4079   23.1790 C   0  0  0  0  0  0  0  0  0  0  0  0
    5.0159    0.7630   18.2400 N   0  0  0  0  0  0  0  0  0  0  0  0
    8.1656   -0.8895   21.8143 N   0  0  0  0  0  0  0  0  0  0  0  0
    8.1709   -3.3004   23.4589 N   0  0  0  0  0  0  0  0  0  0  0  0
    6.2308   -0.5378   16.7839 O   0  0  0  0  0  0  0  0  0  0  0  0
    9.1585    1.0414   20.9167 O   0  0  0  0  0  0  0  0  0  0  0  0
    9.3420   -5.5302   23.9774 O   0  0  0  0  0  0  0  0  0  0  0  0
    7.4843   -5.4760   22.2764 O   0  0  0  0  0  0  0  0  0  0  0  0
    8.0790   -5.0032   23.5078 S   0  0  0  0  0  0  0  0  0  0  0  0
    4.4638    3.1210   22.9213 H   0  0  0  0  0  0  0  0  0  0  0  0
    2.6838    3.3282   21.2099 H   0  0  0  0  0  0  0  0  0  0  0  0
    6.4878    1.8294   22.4665 H   0  0  0  0  0  0  0  0  0  0  0  0
    2.9426    2.2245   19.0155 H   0  0  0  0  0  0  0  0  0  0  0  0
    4.2895   -5.6643   27.6359 H   0  0  0  0  0  0  0  0  0  0  0  0
    8.0482   -0.7161   18.6025 H   0  0  0  0  0  0  0  0  0  0  0  0
    7.0710   -2.5180   21.0010 H   0  0  0  0  0  0  0  0  0  0  0  0
    6.1219   -1.1884   21.6724 H   0  0  0  0  0  0  0  0  0  0  0  0
    9.0708   -0.7309   23.6682 H   0  0  0  0  0  0  0  0  0  0  0  0
   10.2307   -0.8244   22.3374 H   0  0  0  0  0  0  0  0  0  0  0  0
    6.7198   -1.8299   23.9636 H   0  0  0  0  0  0  0  0  0  0  0  0
    6.0622   -3.2592   23.1337 H   0  0  0  0  0  0  0  0  0  0  0  0
    9.6387   -3.2066   21.9164 H   0  0  0  0  0  0  0  0  0  0  0  0
   10.2594   -2.9242   23.5591 H   0  0  0  0  0  0  0  0  0  0  0  0
    6.9823   -5.1182   29.0783 H   0  0  0  0  0  0  0  0  0  0  0  0
    7.1112   -3.4591   28.4440 H   0  0  0  0  0  0  0  0  0  0  0  0
    5.5446   -4.0726   28.9702 H   0  0  0  0  0  0  0  0  0  0  0  0
    2.6942   -6.0196   24.9975 H   0  0  0  0  0  0  0  0  0  0  0  0
    3.5669   -7.5035   24.5415 H   0  0  0  0  0  0  0  0  0  0  0  0
    3.1064   -7.2441   26.2232 H   0  0  0  0  0  0  0  0  0  0  0  0
    9.2039   -4.7171   26.6943 H   0  0  0  0  0  0  0  0  0  0  0  0
    8.8131   -3.4813   25.4730 H   0  0  0  0  0  0  0  0  0  0  0  0
    8.3074   -3.2457   27.1452 H   0  0  0  0  0  0  0  0  0  0  0  0
    4.8822   -5.6487   22.5780 H   0  0  0  0  0  0  0  0  0  0  0  0
    6.3144   -6.7037   22.6634 H   0  0  0  0  0  0  0  0  0  0  0  0
    4.7574   -7.2983   23.2377 H   0  0  0  0  0  0  0  0  0  0  0  0
    4.2604    0.8739   17.5697 H   0  0  0  0  0  0  0  0  0  0  0  0
  1  2  1  0  0  0  0
  1  3  2  0  0  0  0
  2  4  2  0  0  0  0
  3  6  1  0  0  0  0
  4 11  1  0  0  0  0
  5  7  1  0  0  0  0
  5  8  2  0  0  0  0
  6 11  2  0  0  0  0
  6 14  1  0  0  0  0
  7  9  2  0  0  0  0
  7 21  1  0  0  0  0
  8 10  1  0  0  0  0
  8 22  1  0  0  0  0
  9 12  1  0  0  0  0
  9 23  1  0  0  0  0
 10 12  2  0  0  0  0
 10 24  1  0  0  0  0
 11 25  1  0  0  0  0
 12 32  1  0  0  0  0
 13 14  2  0  0  0  0
 13 15  1  0  0  0  0
 14 16  1  0  0  0  0
 15 25  1  0  0  0  0
 15 28  2  0  0  0  0
 16 26  1  0  0  0  0
 16 29  2  0  0  0  0
 17 19  1  0  0  0  0
 17 26  1  0  0  0  0
 18 20  1  0  0  0  0
 18 26  1  0  0  0  0
 19 27  1  0  0  0  0
 20 27  1  0  0  0  0
 27 32  1  0  0  0  0
 30 32  2  0  0  0  0
 31 32  2  0  0  0  0
  1 33  1  0  0  0  0
  2 34  1  0  0  0  0
  3 35  1  0  0  0  0
  4 36  1  0  0  0  0
  5 37  1  0  0  0  0
 13 38  1  0  0  0  0
 17 39  1  0  0  0  0
 17 40  1  0  0  0  0
 18 41  1  0  0  0  0
 18 42  1  0  0  0  0
 19 43  1  0  0  0  0
 19 44  1  0  0  0  0
 20 45  1  0  0  0  0
 20 46  1  0  0  0  0
 21 47  1  0  0  0  0
 21 48  1  0  0  0  0
 21 49  1  0  0  0  0
 22 50  1  0  0  0  0
 22 51  1  0  0  0  0
 22 52  1  0  0  0  0
 23 53  1  0  0  0  0
 23 54  1  0  0  0  0
 23 55  1  0  0  0  0
 24 56  1  0  0  0  0
 24 57  1  0  0  0  0
 24 58  1  0  0  0  0
 25 59  1  0  0  0  0
M  END
> <paper/assay>
https://pubchem.ncbi.nlm.nih.gov/bioassay/1890

> <IC50 (um)>
4.834

> <real_space>
FALSE

> <SCR>
Z29513321

> <BB>
FALSE

> <molport_or_mcule>
['https://www.molport.com/shop/molecule-link/MolPort-005-507-857', 'https://mcule.com/MCULE-7557874602/']

> <PDB>
FALSE

> <Hybrid2>
-8.398966

> <docked_fragment>
x0434

> <Mpro-_dock>
5.770675

> <site>
active-noncovalent

$$$$
16(r)
  -OEChem-04162001263D

 63 65  0     1  0  0  0  0  0999 V2000
   11.1191    4.9060   23.4814 C   0  0  0  0  0  0  0  0  0  0  0  0
    6.3295   -0.0068   20.9723 C   0  0  0  0  0  0  0  0  0  0  0  0
   11.3596    3.5371   23.5195 C   0  0  0  0  0  0  0  0  0  0  0  0
    8.9875   -3.0677   22.8329 C   0  0  0  0  0  0  0  0  0  0  0  0
    8.8876   -2.5562   25.1920 C   0  0  0  0  0  0  0  0  0  0  0  0
    9.4045   -1.7634   22.5676 C   0  0  0  0  0  0  0  0  0  0  0  0
    9.3047   -1.2518   24.9268 C   0  0  0  0  0  0  0  0  0  0  0  0
    7.2081    0.2636   22.0485 C   0  0  0  0  0  0  0  0  0  0  0  0
   10.0454    5.3963   24.2071 C   0  0  0  0  0  0  0  0  0  0  0  0
    9.4835    3.3004   24.9619 C   0  0  0  0  0  0  0  0  0  0  0  0
    7.0333    0.2750   19.8246 C   0  0  0  0  0  0  0  0  0  0  0  0
    8.7290   -3.4641   24.1450 C   0  0  0  0  0  0  0  0  0  0  0  0
   10.5308    2.7119   24.2714 C   0  0  0  0  0  0  0  0  0  0  0  0
    9.5632   -0.8554   23.6146 C   0  0  0  0  0  0  0  0  0  0  0  0
    8.3863    0.6910   21.4817 C   0  0  0  0  0  0  0  0  0  0  0  0
    9.6571    1.1138   22.0802 C   0  0  0  0  0  0  0  0  0  0  0  0
   12.2371    0.8714   24.1412 C   0  0  0  0  0  0  0  0  0  0  0  0
    9.3446   -5.8994   23.9545 C   0  0  0  0  0  0  0  0  0  0  0  0
    6.9448   -5.1850   23.6957 C   0  0  0  0  0  0  0  0  0  0  0  0
    8.0226   -5.1871   25.9361 C   0  0  0  0  0  0  0  0  0  0  0  0
   13.5964   -1.3035   21.3877 C   0  0  0  0  0  0  0  0  0  0  0  0
   14.6797    0.7298   22.3779 C   0  0  0  0  0  0  0  0  0  0  0  0
   14.3004   -1.3063   23.7917 C   0  0  0  0  0  0  0  0  0  0  0  0
   10.7662    1.2206   24.3337 C   0  0  2  0  0  0  0  0  0  0  0  0
    8.2831   -4.8587   24.4285 C   0  0  0  0  0  0  0  0  0  0  0  0
   13.7391   -0.4483   22.6520 C   0  0  0  0  0  0  0  0  0  0  0  0
    9.2184    4.6260   24.9490 N   0  0  0  0  0  0  0  0  0  0  0  0
   12.4358    0.0642   23.0341 N   0  0  0  0  0  0  0  0  0  0  0  0
   10.0009    0.5129   23.3368 N   0  0  0  0  0  0  0  0  0  0  0  0
   10.3477    1.9632   21.5141 O   0  0  0  0  0  0  0  0  0  0  0  0
   13.1172    1.2429   24.9151 O   0  0  0  0  0  0  0  0  0  0  0  0
    8.2880    0.7008   20.1264 O   0  0  0  0  0  0  0  0  0  0  0  0
   11.7522    5.5684   22.9022 H   0  0  0  0  0  0  0  0  0  0  0  0
    5.3105   -0.3617   21.0264 H   0  0  0  0  0  0  0  0  0  0  0  0
   12.1944    3.1225   22.9608 H   0  0  0  0  0  0  0  0  0  0  0  0
    8.8644   -3.7679   22.0108 H   0  0  0  0  0  0  0  0  0  0  0  0
    8.6877   -2.8563   26.2172 H   0  0  0  0  0  0  0  0  0  0  0  0
    9.6035   -1.4654   21.5412 H   0  0  0  0  0  0  0  0  0  0  0  0
    9.4240   -0.5520   25.7501 H   0  0  0  0  0  0  0  0  0  0  0  0
    7.0039    0.1587   23.1046 H   0  0  0  0  0  0  0  0  0  0  0  0
    9.8155    6.4567   24.2097 H   0  0  0  0  0  0  0  0  0  0  0  0
    8.8037    2.7071   25.5655 H   0  0  0  0  0  0  0  0  0  0  0  0
    6.7963    0.2279   18.7718 H   0  0  0  0  0  0  0  0  0  0  0  0
    9.0408   -6.9342   24.1514 H   0  0  0  0  0  0  0  0  0  0  0  0
    9.5313   -5.8203   22.8779 H   0  0  0  0  0  0  0  0  0  0  0  0
   10.2986   -5.7283   24.4672 H   0  0  0  0  0  0  0  0  0  0  0  0
    6.6139   -6.2088   23.9014 H   0  0  0  0  0  0  0  0  0  0  0  0
    6.1263   -4.5184   23.9916 H   0  0  0  0  0  0  0  0  0  0  0  0
    7.0743   -5.0929   22.6108 H   0  0  0  0  0  0  0  0  0  0  0  0
    7.6973   -6.2226   26.0930 H   0  0  0  0  0  0  0  0  0  0  0  0
    8.9330   -5.0426   26.5297 H   0  0  0  0  0  0  0  0  0  0  0  0
    7.2403   -4.5383   26.3469 H   0  0  0  0  0  0  0  0  0  0  0  0
   12.9269   -2.1546   21.5585 H   0  0  0  0  0  0  0  0  0  0  0  0
   13.1914   -0.7189   20.5543 H   0  0  0  0  0  0  0  0  0  0  0  0
   14.5649   -1.7110   21.0751 H   0  0  0  0  0  0  0  0  0  0  0  0
   14.7977    1.3571   23.2691 H   0  0  0  0  0  0  0  0  0  0  0  0
   14.2878    1.3714   21.5801 H   0  0  0  0  0  0  0  0  0  0  0  0
   15.6743    0.3842   22.0747 H   0  0  0  0  0  0  0  0  0  0  0  0
   14.4129   -0.7185   24.7101 H   0  0  0  0  0  0  0  0  0  0  0  0
   13.6439   -2.1552   24.0125 H   0  0  0  0  0  0  0  0  0  0  0  0
   15.2902   -1.7033   23.5380 H   0  0  0  0  0  0  0  0  0  0  0  0
   10.4291    0.8187   25.2968 H   0  0  0  0  0  0  0  0  0  0  0  0
   11.6495   -0.1947   22.4506 H   0  0  0  0  0  0  0  0  0  0  0  0
  1  3  2  0  0  0  0
  1  9  1  0  0  0  0
  2  8  1  0  0  0  0
  2 11  2  0  0  0  0
  3 13  1  0  0  0  0
  4  6  2  0  0  0  0
  4 12  1  0  0  0  0
  5  7  1  0  0  0  0
  5 12  2  0  0  0  0
  6 14  1  0  0  0  0
  7 14  2  0  0  0  0
  8 15  2  0  0  0  0
  9 27  2  0  0  0  0
 10 13  2  0  0  0  0
 10 27  1  0  0  0  0
 11 32  1  0  0  0  0
 12 25  1  0  0  0  0
 13 24  1  0  0  0  0
 14 29  1  0  0  0  0
 15 16  1  0  0  0  0
 15 32  1  0  0  0  0
 16 29  1  0  0  0  0
 16 30  2  0  0  0  0
 17 24  1  0  0  0  0
 17 28  1  0  0  0  0
 17 31  2  0  0  0  0
 18 25  1  0  0  0  0
 19 25  1  0  0  0  0
 20 25  1  0  0  0  0
 21 26  1  0  0  0  0
 22 26  1  0  0  0  0
 23 26  1  0  0  0  0
 24 29  1  0  0  0  0
 26 28  1  0  0  0  0
  1 33  1  0  0  0  0
  2 34  1  0  0  0  0
  3 35  1  0  0  0  0
  4 36  1  0  0  0  0
  5 37  1  0  0  0  0
  6 38  1  0  0  0  0
  7 39  1  0  0  0  0
  8 40  1  0  0  0  0
  9 41  1  0  0  0  0
 10 42  1  0  0  0  0
 11 43  1  0  0  0  0
 18 44  1  0  0  0  0
 18 45  1  0  0  0  0
 18 46  1  0  0  0  0
 19 47  1  0  0  0  0
 19 48  1  0  0  0  0
 19 49  1  0  0  0  0
 20 50  1  0  0  0  0
 20 51  1  0  0  0  0
 20 52  1  0  0  0  0
 21 53  1  0  0  0  0
 21 54  1  0  0  0  0
 21 55  1  0  0  0  0
 22 56  1  0  0  0  0
 22 57  1  0  0  0  0
 22 58  1  0  0  0  0
 23 59  1  0  0  0  0
 23 60  1  0  0  0  0
 23 61  1  0  0  0  0
 24 62  1  0  0  0  0
 28 63  1  0  0  0  0
M  END
> <paper/assay>
http://dx.doi.org/10.1021/jm301580n

> <IC50 (um)>
1.5

> <real_space>
FALSE

> <SCR>
FALSE

> <BB>
FALSE

> <molport_or_mcule>
FALSE

> <PDB>
3V3M

> <Hybrid2>
-8.396872

> <docked_fragment>
x0874

> <Mpro-_dock>
3.896637

> <site>
active-noncovalent

$$$$
3912197
  -OEChem-04162001263D

 44 46  0     1  0  0  0  0  0999 V2000
    9.2304   -2.1021   21.6685 C   0  0  0  0  0  0  0  0  0  0  0  0
    8.4256   -2.8045   22.5655 C   0  0  0  0  0  0  0  0  0  0  0  0
   12.3952    3.1319   22.8020 C   0  0  0  0  0  0  0  0  0  0  0  0
   10.4884    1.7451   24.2828 C   0  0  0  0  0  0  0  0  0  0  0  0
    9.7586   -1.9825   24.4052 C   0  0  0  0  0  0  0  0  0  0  0  0
   12.5515    1.7535   23.0098 C   0  0  0  0  0  0  0  0  0  0  0  0
   11.5907    1.0477   23.7581 C   0  0  0  0  0  0  0  0  0  0  0  0
   10.5635   -1.2802   23.5082 C   0  0  0  0  0  0  0  0  0  0  0  0
   11.2895    3.8060   23.3179 C   0  0  0  0  0  0  0  0  0  0  0  0
   10.3371    3.1133   24.0588 C   0  0  0  0  0  0  0  0  0  0  0  0
   10.2994   -1.3400   22.1398 C   0  0  0  0  0  0  0  0  0  0  0  0
    8.6897   -2.7446   23.9338 C   0  0  0  0  0  0  0  0  0  0  0  0
   13.6285   -2.0382   24.2906 C   0  0  0  0  0  0  0  0  0  0  0  0
   13.7840    1.0634   22.4883 C   0  0  0  0  0  0  0  0  0  0  0  0
   13.5707   -0.4352   22.3246 C   0  0  0  0  0  0  0  0  0  0  0  0
   11.7334   -0.4470   24.0268 C   0  0  1  0  0  0  0  0  0  0  0  0
   11.7471    6.0203   24.0551 C   0  0  0  0  0  0  0  0  0  0  0  0
    8.0888    3.8277   23.7584 C   0  0  0  0  0  0  0  0  0  0  0  0
   12.9149   -2.4969   25.5372 C   0  0  0  0  0  0  0  0  0  0  0  0
   13.0252   -1.0076   23.5612 N   0  0  0  0  0  0  0  0  0  0  0  0
   14.6899   -2.5810   23.9724 O   0  0  0  0  0  0  0  0  0  0  0  0
   11.1574    5.1436   23.0970 O   0  0  0  0  0  0  0  0  0  0  0  0
    9.2556    3.7604   24.5758 O   0  0  0  0  0  0  0  0  0  0  0  0
   11.0671   -0.6684   21.2702 F   0  0  0  0  0  0  0  0  0  0  0  0
   13.8755   -3.8070   26.2145 Cl  0  0  0  0  0  0  0  0  0  0  0  0
    7.5994   -3.6973   25.1489 Br  0  0  0  0  0  0  0  0  0  0  0  0
    9.0249   -2.1482   20.6033 H   0  0  0  0  0  0  0  0  0  0  0  0
    7.5968   -3.3933   22.1818 H   0  0  0  0  0  0  0  0  0  0  0  0
   13.1436    3.6833   22.2369 H   0  0  0  0  0  0  0  0  0  0  0  0
    9.7423    1.2167   24.8728 H   0  0  0  0  0  0  0  0  0  0  0  0
    9.9707   -1.9314   25.4709 H   0  0  0  0  0  0  0  0  0  0  0  0
   14.0637    1.4856   21.5157 H   0  0  0  0  0  0  0  0  0  0  0  0
   14.6112    1.2496   23.1842 H   0  0  0  0  0  0  0  0  0  0  0  0
   12.8450   -0.6375   21.5269 H   0  0  0  0  0  0  0  0  0  0  0  0
   14.5085   -0.9070   22.0266 H   0  0  0  0  0  0  0  0  0  0  0  0
   11.7210   -0.5712   25.1419 H   0  0  0  0  0  0  0  0  0  0  0  0
   11.5686    7.0571   23.7598 H   0  0  0  0  0  0  0  0  0  0  0  0
   12.8211    5.8269   24.1147 H   0  0  0  0  0  0  0  0  0  0  0  0
   11.2914    5.8382   25.0313 H   0  0  0  0  0  0  0  0  0  0  0  0
    7.3020    4.3694   24.2891 H   0  0  0  0  0  0  0  0  0  0  0  0
    7.7516    2.8160   23.5191 H   0  0  0  0  0  0  0  0  0  0  0  0
    8.3323    4.3566   22.8339 H   0  0  0  0  0  0  0  0  0  0  0  0
   11.9301   -2.8597   25.2652 H   0  0  0  0  0  0  0  0  0  0  0  0
   12.8650   -1.6711   26.2376 H   0  0  0  0  0  0  0  0  0  0  0  0
  1  2  2  0  0  0  0
  1 11  1  0  0  0  0
  2 12  1  0  0  0  0
  3  6  2  0  0  0  0
  3  9  1  0  0  0  0
  4  7  2  0  0  0  0
  4 10  1  0  0  0  0
  5  8  1  0  0  0  0
  5 12  2  0  0  0  0
  6  7  1  0  0  0  0
  6 14  1  0  0  0  0
  7 16  1  0  0  0  0
  8 11  2  0  0  0  0
  8 16  1  0  0  0  0
  9 10  2  0  0  0  0
  9 22  1  0  0  0  0
 10 23  1  0  0  0  0
 11 24  1  0  0  0  0
 12 26  1  0  0  0  0
 13 19  1  0  0  0  0
 13 20  1  0  0  0  0
 13 21  2  0  0  0  0
 14 15  1  0  0  0  0
 15 20  1  0  0  0  0
 16 20  1  0  0  0  0
 17 22  1  0  0  0  0
 18 23  1  0  0  0  0
 19 25  1  0  0  0  0
  1 27  1  0  0  0  0
  2 28  1  0  0  0  0
  3 29  1  0  0  0  0
  4 30  1  0  0  0  0
  5 31  1  0  0  0  0
 14 32  1  0  0  0  0
 14 33  1  0  0  0  0
 15 34  1  0  0  0  0
 15 35  1  0  0  0  0
 16 36  1  0  0  0  0
 17 37  1  0  0  0  0
 17 38  1  0  0  0  0
 17 39  1  0  0  0  0
 18 40  1  0  0  0  0
 18 41  1  0  0  0  0
 18 42  1  0  0  0  0
 19 43  1  0  0  0  0
 19 44  1  0  0  0  0
M  END
> <paper/assay>
https://pubchem.ncbi.nlm.nih.gov/bioassay/1890

> <IC50 (um)>
9.879

> <real_space>
FALSE

> <SCR>
FALSE

> <BB>
FALSE

> <molport_or_mcule>
FALSE

> <PDB>
FALSE

> <Hybrid2>
-8.314960

> <docked_fragment>
x0161

> <Mpro-_dock>
2.902807

> <site>
active-noncovalent

$$$$
4437603
  -OEChem-04162001263D

 36 38  0     1  0  0  0  0  0999 V2000
    4.5749    1.4506   19.6342 C   0  0  0  0  0  0  0  0  0  0  0  0
   11.0736   -2.1003   22.7763 C   0  0  0  0  0  0  0  0  0  0  0  0
   10.0895    0.0109   23.4180 C   0  0  0  0  0  0  0  0  0  0  0  0
   12.3469   -1.5687   22.9800 C   0  0  0  0  0  0  0  0  0  0  0  0
   11.3629    0.5425   23.6217 C   0  0  0  0  0  0  0  0  0  0  0  0
    5.0786    0.9826   20.8822 C   0  0  0  0  0  0  0  0  0  0  0  0
    5.2395    0.8910   18.5653 C   0  0  0  0  0  0  0  0  0  0  0  0
    9.9448   -1.3105   22.9953 C   0  0  0  0  0  0  0  0  0  0  0  0
   12.4916   -0.2473   23.4027 C   0  0  0  0  0  0  0  0  0  0  0  0
    6.1091    0.0828   20.7194 C   0  0  0  0  0  0  0  0  0  0  0  0
    6.8928   -0.6270   21.7540 C   0  0  0  0  0  0  0  0  0  0  0  0
    7.5260   -1.4686   25.0445 C   0  0  0  0  0  0  0  0  0  0  0  0
    7.9985   -1.5883   21.3918 C   0  0  0  0  0  0  0  0  0  0  0  0
    8.5597   -1.8878   22.7740 C   0  0  2  0  0  0  0  0  0  0  0  0
   13.8535    0.3199   23.6219 C   0  0  0  0  0  0  0  0  0  0  0  0
    8.5647   -2.4053   25.6110 C   0  0  0  0  0  0  0  0  0  0  0  0
    6.6714   -0.4973   23.0271 N   0  0  0  0  0  0  0  0  0  0  0  0
    7.5883   -1.2703   23.6780 N   0  0  0  0  0  0  0  0  0  0  0  0
    6.6959   -0.9345   25.7816 O   0  0  0  0  0  0  0  0  0  0  0  0
    6.4654   -0.1940   19.0676 S   0  0  0  0  0  0  0  0  0  0  0  0
    8.2978   -2.4596   27.3495 Cl  0  0  0  0  0  0  0  0  0  0  0  0
    3.7669    2.1625   19.5262 H   0  0  0  0  0  0  0  0  0  0  0  0
   10.9703   -3.1306   22.4463 H   0  0  0  0  0  0  0  0  0  0  0  0
    9.2153    0.6329   23.5921 H   0  0  0  0  0  0  0  0  0  0  0  0
   13.2206   -2.1917   22.8085 H   0  0  0  0  0  0  0  0  0  0  0  0
   11.4667    1.5731   23.9509 H   0  0  0  0  0  0  0  0  0  0  0  0
    4.7000    1.2935   21.8478 H   0  0  0  0  0  0  0  0  0  0  0  0
    5.0642    1.0684   17.5135 H   0  0  0  0  0  0  0  0  0  0  0  0
    7.5490   -2.4768   20.9367 H   0  0  0  0  0  0  0  0  0  0  0  0
    8.7034   -1.1251   20.6951 H   0  0  0  0  0  0  0  0  0  0  0  0
    8.6081   -2.9706   22.9839 H   0  0  0  0  0  0  0  0  0  0  0  0
   14.2307    0.7754   22.6982 H   0  0  0  0  0  0  0  0  0  0  0  0
   13.8445    1.0852   24.4088 H   0  0  0  0  0  0  0  0  0  0  0  0
   14.5614   -0.4560   23.9416 H   0  0  0  0  0  0  0  0  0  0  0  0
    9.5495   -2.0068   25.3972 H   0  0  0  0  0  0  0  0  0  0  0  0
    8.4208   -3.3892   25.1806 H   0  0  0  0  0  0  0  0  0  0  0  0
  1  6  1  0  0  0  0
  1  7  2  0  0  0  0
  2  4  2  0  0  0  0
  2  8  1  0  0  0  0
  3  5  1  0  0  0  0
  3  8  2  0  0  0  0
  4  9  1  0  0  0  0
  5  9  2  0  0  0  0
  6 10  2  0  0  0  0
  7 20  1  0  0  0  0
  8 14  1  0  0  0  0
  9 15  1  0  0  0  0
 10 11  1  0  0  0  0
 10 20  1  0  0  0  0
 11 13  1  0  0  0  0
 11 17  2  0  0  0  0
 12 16  1  0  0  0  0
 12 18  1  0  0  0  0
 12 19  2  0  0  0  0
 13 14  1  0  0  0  0
 14 18  1  0  0  0  0
 16 21  1  0  0  0  0
 17 18  1  0  0  0  0
  1 22  1  0  0  0  0
  2 23  1  0  0  0  0
  3 24  1  0  0  0  0
  4 25  1  0  0  0  0
  5 26  1  0  0  0  0
  6 27  1  0  0  0  0
  7 28  1  0  0  0  0
 13 29  1  0  0  0  0
 13 30  1  0  0  0  0
 14 31  1  0  0  0  0
 15 32  1  0  0  0  0
 15 33  1  0  0  0  0
 15 34  1  0  0  0  0
 16 35  1  0  0  0  0
 16 36  1  0  0  0  0
M  END
> <paper/assay>
https://pubchem.ncbi.nlm.nih.gov/bioassay/1890

> <IC50 (um)>
4.192

> <real_space>
FALSE

> <SCR>
Z56798177

> <BB>
EN300-23219023

> <molport_or_mcule>
FALSE

> <PDB>
FALSE

> <Hybrid2>
-8.257563

> <docked_fragment>
x1093

> <Mpro-_dock>
-0.158721

> <site>
active-noncovalent

$$$$
3196508
  -OEChem-04162001263D

 64 67  0     1  0  0  0  0  0999 V2000
    6.5543    0.5865   20.2426 C   0  0  0  0  0  0  0  0  0  0  0  0
   14.3976   -0.3258   23.6116 C   0  0  0  0  0  0  0  0  0  0  0  0
    7.2298   -0.2501   21.1241 C   0  0  0  0  0  0  0  0  0  0  0  0
   10.6522    2.3349   21.4835 C   0  0  0  0  0  0  0  0  0  0  0  0
    9.7755    2.0441   23.7160 C   0  0  0  0  0  0  0  0  0  0  0  0
   10.6470    0.9520   21.3013 C   0  0  0  0  0  0  0  0  0  0  0  0
    9.7704    0.6612   23.5338 C   0  0  0  0  0  0  0  0  0  0  0  0
   13.7833   -1.1686   22.6547 C   0  0  0  0  0  0  0  0  0  0  0  0
    6.9545    0.5898   18.9161 C   0  0  0  0  0  0  0  0  0  0  0  0
    8.5934   -0.9704   19.3136 C   0  0  0  0  0  0  0  0  0  0  0  0
   13.4280   -0.0350   24.5429 C   0  0  0  0  0  0  0  0  0  0  0  0
   10.2165    2.8810   22.6908 C   0  0  0  0  0  0  0  0  0  0  0  0
    8.2701   -1.0467   20.6588 C   0  0  0  0  0  0  0  0  0  0  0  0
   10.2061    0.1152   22.3264 C   0  0  0  0  0  0  0  0  0  0  0  0
   12.4823   -1.3330   23.0697 C   0  0  0  0  0  0  0  0  0  0  0  0
   11.3657   -2.0911   22.4947 C   0  0  0  0  0  0  0  0  0  0  0  0
    8.1524   -2.4317   22.7524 C   0  0  0  0  0  0  0  0  0  0  0  0
    5.4275   -6.2508   24.0920 C   0  0  0  0  0  0  0  0  0  0  0  0
    6.2153   -5.6867   25.2777 C   0  0  0  0  0  0  0  0  0  0  0  0
    5.9833   -5.5600   22.8496 C   0  0  0  0  0  0  0  0  0  0  0  0
    7.2040   -4.6841   24.6883 C   0  0  0  0  0  0  0  0  0  0  0  0
    6.5414   -4.2478   23.3872 C   0  0  0  0  0  0  0  0  0  0  0  0
   12.5949    4.4830   23.8424 C   0  0  0  0  0  0  0  0  0  0  0  0
    8.7939    4.9071   23.0932 C   0  0  0  0  0  0  0  0  0  0  0  0
   11.1287    4.8423   24.0509 C   0  0  0  0  0  0  0  0  0  0  0  0
    9.0231   -1.9667   21.5913 C   0  0  2  0  0  0  0  0  0  0  0  0
   10.2220    4.3595   22.8855 C   0  0  1  0  0  0  0  0  0  0  0  0
    7.9603   -0.1698   18.4271 N   0  0  0  0  0  0  0  0  0  0  0  0
    7.4704   -3.6143   22.4687 N   0  0  0  0  0  0  0  0  0  0  0  0
   10.2004   -1.3355   22.1355 N   0  0  0  0  0  0  0  0  0  0  0  0
   11.4556   -3.3141   22.3710 O   0  0  0  0  0  0  0  0  0  0  0  0
    8.0455   -1.7984   23.8008 O   0  0  0  0  0  0  0  0  0  0  0  0
   12.2576   -0.6452   24.2200 O   0  0  0  0  0  0  0  0  0  0  0  0
    5.7401    1.2161   20.5830 H   0  0  0  0  0  0  0  0  0  0  0  0
   15.4190    0.0264   23.6208 H   0  0  0  0  0  0  0  0  0  0  0  0
    6.9389   -0.2750   22.1708 H   0  0  0  0  0  0  0  0  0  0  0  0
   10.9995    2.9793   20.6801 H   0  0  0  0  0  0  0  0  0  0  0  0
    9.4350    2.4609   24.6602 H   0  0  0  0  0  0  0  0  0  0  0  0
   10.9884    0.5374   20.3561 H   0  0  0  0  0  0  0  0  0  0  0  0
    9.4257    0.0181   24.3397 H   0  0  0  0  0  0  0  0  0  0  0  0
   14.2363   -1.6002   21.7735 H   0  0  0  0  0  0  0  0  0  0  0  0
    6.4597    1.2252   18.1889 H   0  0  0  0  0  0  0  0  0  0  0  0
    9.3959   -1.5684   18.8930 H   0  0  0  0  0  0  0  0  0  0  0  0
   13.4119    0.5595   25.4446 H   0  0  0  0  0  0  0  0  0  0  0  0
    5.5237   -7.3388   24.0192 H   0  0  0  0  0  0  0  0  0  0  0  0
    4.3622   -6.0216   24.2116 H   0  0  0  0  0  0  0  0  0  0  0  0
    5.5320   -5.1852   25.9727 H   0  0  0  0  0  0  0  0  0  0  0  0
    6.7313   -6.4745   25.8357 H   0  0  0  0  0  0  0  0  0  0  0  0
    6.7803   -6.1760   22.4139 H   0  0  0  0  0  0  0  0  0  0  0  0
    5.2147   -5.4088   22.0854 H   0  0  0  0  0  0  0  0  0  0  0  0
    7.3938   -3.8467   25.3667 H   0  0  0  0  0  0  0  0  0  0  0  0
    8.1596   -5.1871   24.4929 H   0  0  0  0  0  0  0  0  0  0  0  0
    5.7388   -3.5339   23.5834 H   0  0  0  0  0  0  0  0  0  0  0  0
   12.9514    4.8984   22.8942 H   0  0  0  0  0  0  0  0  0  0  0  0
   13.2259    4.8866   24.6400 H   0  0  0  0  0  0  0  0  0  0  0  0
   12.7317    3.3975   23.8084 H   0  0  0  0  0  0  0  0  0  0  0  0
    8.3218    4.4721   23.9808 H   0  0  0  0  0  0  0  0  0  0  0  0
    8.7943    5.9955   23.2164 H   0  0  0  0  0  0  0  0  0  0  0  0
    8.1637    4.6695   22.2287 H   0  0  0  0  0  0  0  0  0  0  0  0
   10.7884    4.4192   25.0036 H   0  0  0  0  0  0  0  0  0  0  0  0
   11.0583    5.9327   24.1522 H   0  0  0  0  0  0  0  0  0  0  0  0
    9.3906   -2.8462   21.0488 H   0  0  0  0  0  0  0  0  0  0  0  0
   10.6013    4.8594   21.9725 H   0  0  0  0  0  0  0  0  0  0  0  0
    7.6300   -4.0615   21.5647 H   0  0  0  0  0  0  0  0  0  0  0  0
  1  3  2  0  0  0  0
  1  9  1  0  0  0  0
  2  8  1  0  0  0  0
  2 11  2  0  0  0  0
  3 13  1  0  0  0  0
  4  6  2  0  0  0  0
  4 12  1  0  0  0  0
  5  7  1  0  0  0  0
  5 12  2  0  0  0  0
  6 14  1  0  0  0  0
  7 14  2  0  0  0  0
  8 15  2  0  0  0  0
  9 28  2  0  0  0  0
 10 13  2  0  0  0  0
 10 28  1  0  0  0  0
 11 33  1  0  0  0  0
 12 27  1  0  0  0  0
 13 26  1  0  0  0  0
 14 30  1  0  0  0  0
 15 16  1  0  0  0  0
 15 33  1  0  0  0  0
 16 30  1  0  0  0  0
 16 31  2  0  0  0  0
 17 26  1  0  0  0  0
 17 29  1  0  0  0  0
 17 32  2  0  0  0  0
 18 19  1  0  0  0  0
 18 20  1  0  0  0  0
 19 21  1  0  0  0  0
 20 22  1  0  0  0  0
 21 22  1  0  0  0  0
 22 29  1  0  0  0  0
 23 25  1  0  0  0  0
 24 27  1  0  0  0  0
 25 27  1  0  0  0  0
 26 30  1  0  0  0  0
  1 34  1  0  0  0  0
  2 35  1  0  0  0  0
  3 36  1  0  0  0  0
  4 37  1  0  0  0  0
  5 38  1  0  0  0  0
  6 39  1  0  0  0  0
  7 40  1  0  0  0  0
  8 41  1  0  0  0  0
  9 42  1  0  0  0  0
 10 43  1  0  0  0  0
 11 44  1  0  0  0  0
 18 45  1  0  0  0  0
 18 46  1  0  0  0  0
 19 47  1  0  0  0  0
 19 48  1  0  0  0  0
 20 49  1  0  0  0  0
 20 50  1  0  0  0  0
 21 51  1  0  0  0  0
 21 52  1  0  0  0  0
 22 53  1  0  0  0  0
 23 54  1  0  0  0  0
 23 55  1  0  0  0  0
 23 56  1  0  0  0  0
 24 57  1  0  0  0  0
 24 58  1  0  0  0  0
 24 59  1  0  0  0  0
 25 60  1  0  0  0  0
 25 61  1  0  0  0  0
 26 62  1  0  0  0  0
 27 63  1  0  0  0  0
 29 64  1  0  0  0  0
M  END
> <paper/assay>
https://pubchem.ncbi.nlm.nih.gov/bioassay/1890

> <IC50 (um)>
2.227

> <real_space>
FALSE

> <SCR>
FALSE

> <BB>
FALSE

> <molport_or_mcule>
FALSE

> <PDB>
FALSE

> <Hybrid2>
-8.202114

> <docked_fragment>
x0678

> <Mpro-_dock>
5.694626

> <site>
active-noncovalent

$$$$
3198732
  -OEChem-04162001263D

 71 74  0     1  0  0  0  0  0999 V2000
    4.5122    1.7382   18.5943 C   0  0  0  0  0  0  0  0  0  0  0  0
    4.7348    1.5788   19.9654 C   0  0  0  0  0  0  0  0  0  0  0  0
   13.6896   -1.6347   25.1551 C   0  0  0  0  0  0  0  0  0  0  0  0
    5.4156    1.2315   17.6508 C   0  0  0  0  0  0  0  0  0  0  0  0
    5.8654    0.9087   20.4459 C   0  0  0  0  0  0  0  0  0  0  0  0
    8.6562   -2.0126   24.9644 C   0  0  0  0  0  0  0  0  0  0  0  0
    9.8618   -3.6506   23.6603 C   0  0  0  0  0  0  0  0  0  0  0  0
    9.1673   -0.9951   24.1589 C   0  0  0  0  0  0  0  0  0  0  0  0
   10.3730   -2.6330   22.8548 C   0  0  0  0  0  0  0  0  0  0  0  0
   12.6879   -0.6669   24.8962 C   0  0  0  0  0  0  0  0  0  0  0  0
   14.2216   -2.0109   23.9416 C   0  0  0  0  0  0  0  0  0  0  0  0
    6.5529    0.5577   18.1195 C   0  0  0  0  0  0  0  0  0  0  0  0
    6.7469    0.4149   19.4865 C   0  0  0  0  0  0  0  0  0  0  0  0
    9.0034   -3.3404   24.7151 C   0  0  0  0  0  0  0  0  0  0  0  0
   10.0257   -1.3052   23.1041 C   0  0  0  0  0  0  0  0  0  0  0  0
   12.6382   -0.4812   23.5322 C   0  0  0  0  0  0  0  0  0  0  0  0
    7.6257   -4.2424   26.6158 C   0  0  0  0  0  0  0  0  0  0  0  0
    9.8383    0.1570   21.0933 C   0  0  0  0  0  0  0  0  0  0  0  0
   11.3429    1.6719   23.4904 C   0  0  0  0  0  0  0  0  0  0  0  0
    7.3078   -5.5862   27.2221 C   0  0  0  0  0  0  0  0  0  0  0  0
   13.6057    5.1634   22.2366 C   0  0  0  0  0  0  0  0  0  0  0  0
   10.0215    4.3662   23.5722 C   0  0  0  0  0  0  0  0  0  0  0  0
   12.1828    4.2353   24.8201 C   0  0  0  0  0  0  0  0  0  0  0  0
   13.8519   -1.4199   21.5474 C   0  0  0  0  0  0  0  0  0  0  0  0
    8.6317   -0.7123   20.7687 C   0  0  0  0  0  0  0  0  0  0  0  0
   12.1021    5.2396   22.4796 C   0  0  0  0  0  0  0  0  0  0  0  0
   11.7575    0.4304   22.7098 C   0  0  2  0  0  0  0  0  0  0  0  0
   11.5373    4.1566   23.4297 C   0  0  0  0  0  0  0  0  0  0  0  0
    7.5907   -0.0335   17.4487 N   0  0  0  0  0  0  0  0  0  0  0  0
    8.4265   -0.5408   18.3483 N   0  0  0  0  0  0  0  0  0  0  0  0
   13.5747   -1.3036   22.9621 N   0  0  0  0  0  0  0  0  0  0  0  0
    7.9232   -0.2730   19.5646 N   0  0  0  0  0  0  0  0  0  0  0  0
    8.4925   -4.3583   25.5209 N   0  0  0  0  0  0  0  0  0  0  0  0
   11.7644    2.8346   22.8703 N   0  0  0  0  0  0  0  0  0  0  0  0
   10.5617   -0.2389   22.2596 N   0  0  0  0  0  0  0  0  0  0  0  0
    7.1423   -3.2143   27.0787 O   0  0  0  0  0  0  0  0  0  0  0  0
   10.1332    1.0922   20.3445 O   0  0  0  0  0  0  0  0  0  0  0  0
   10.7413    1.6160   24.5612 O   0  0  0  0  0  0  0  0  0  0  0  0
    3.6238    2.2640   18.2536 H   0  0  0  0  0  0  0  0  0  0  0  0
    4.0154    1.9834   20.6732 H   0  0  0  0  0  0  0  0  0  0  0  0
   13.9911   -2.0164   26.1204 H   0  0  0  0  0  0  0  0  0  0  0  0
    5.2346    1.3600   16.5887 H   0  0  0  0  0  0  0  0  0  0  0  0
    6.0394    0.7843   21.5084 H   0  0  0  0  0  0  0  0  0  0  0  0
    7.9881   -1.7589   25.7834 H   0  0  0  0  0  0  0  0  0  0  0  0
   10.1388   -4.6819   23.4569 H   0  0  0  0  0  0  0  0  0  0  0  0
    8.8900    0.0361   24.3631 H   0  0  0  0  0  0  0  0  0  0  0  0
   11.0415   -2.8861   22.0362 H   0  0  0  0  0  0  0  0  0  0  0  0
   12.0712   -0.1617   25.6266 H   0  0  0  0  0  0  0  0  0  0  0  0
   15.0019   -2.7192   23.6971 H   0  0  0  0  0  0  0  0  0  0  0  0
    8.0381   -5.8229   28.0010 H   0  0  0  0  0  0  0  0  0  0  0  0
    7.3497   -6.3598   26.4501 H   0  0  0  0  0  0  0  0  0  0  0  0
    6.3028   -5.5725   27.6541 H   0  0  0  0  0  0  0  0  0  0  0  0
   13.8991    4.1879   21.8384 H   0  0  0  0  0  0  0  0  0  0  0  0
   13.9411    5.9389   21.5416 H   0  0  0  0  0  0  0  0  0  0  0  0
   14.1419    5.3069   23.1807 H   0  0  0  0  0  0  0  0  0  0  0  0
    9.5219    4.3170   22.5975 H   0  0  0  0  0  0  0  0  0  0  0  0
    9.5718    3.5913   24.2042 H   0  0  0  0  0  0  0  0  0  0  0  0
    9.7940    5.3401   24.0199 H   0  0  0  0  0  0  0  0  0  0  0  0
   13.2680    4.0900   24.7585 H   0  0  0  0  0  0  0  0  0  0  0  0
   12.0242    5.2137   25.2864 H   0  0  0  0  0  0  0  0  0  0  0  0
   11.7797    3.4675   25.4894 H   0  0  0  0  0  0  0  0  0  0  0  0
   13.2066   -2.2029   21.1405 H   0  0  0  0  0  0  0  0  0  0  0  0
   13.6489   -0.4639   21.0568 H   0  0  0  0  0  0  0  0  0  0  0  0
   14.9049   -1.6787   21.4055 H   0  0  0  0  0  0  0  0  0  0  0  0
    8.9454   -1.7483   20.6009 H   0  0  0  0  0  0  0  0  0  0  0  0
    7.9121   -0.6799   21.5938 H   0  0  0  0  0  0  0  0  0  0  0  0
   11.8689    6.2359   22.8767 H   0  0  0  0  0  0  0  0  0  0  0  0
   11.5992    5.1673   21.5061 H   0  0  0  0  0  0  0  0  0  0  0  0
   12.2762    0.7429   21.7954 H   0  0  0  0  0  0  0  0  0  0  0  0
    8.7840   -5.3145   25.2870 H   0  0  0  0  0  0  0  0  0  0  0  0
   12.2564    2.7880   21.9872 H   0  0  0  0  0  0  0  0  0  0  0  0
  1  2  1  0  0  0  0
  1  4  2  0  0  0  0
  2  5  2  0  0  0  0
  3 10  1  0  0  0  0
  3 11  2  0  0  0  0
  4 12  1  0  0  0  0
  5 13  1  0  0  0  0
  6  8  2  0  0  0  0
  6 14  1  0  0  0  0
  7  9  1  0  0  0  0
  7 14  2  0  0  0  0
  8 15  1  0  0  0  0
  9 15  2  0  0  0  0
 10 16  2  0  0  0  0
 11 31  1  0  0  0  0
 12 13  2  0  0  0  0
 12 29  1  0  0  0  0
 13 32  1  0  0  0  0
 14 33  1  0  0  0  0
 15 35  1  0  0  0  0
 16 27  1  0  0  0  0
 16 31  1  0  0  0  0
 17 20  1  0  0  0  0
 17 33  1  0  0  0  0
 17 36  2  0  0  0  0
 18 25  1  0  0  0  0
 18 35  1  0  0  0  0
 18 37  2  0  0  0  0
 19 27  1  0  0  0  0
 19 34  1  0  0  0  0
 19 38  2  0  0  0  0
 21 26  1  0  0  0  0
 22 28  1  0  0  0  0
 23 28  1  0  0  0  0
 24 31  1  0  0  0  0
 25 32  1  0  0  0  0
 26 28  1  0  0  0  0
 27 35  1  0  0  0  0
 28 34  1  0  0  0  0
 29 30  2  0  0  0  0
 30 32  1  0  0  0  0
  1 39  1  0  0  0  0
  2 40  1  0  0  0  0
  3 41  1  0  0  0  0
  4 42  1  0  0  0  0
  5 43  1  0  0  0  0
  6 44  1  0  0  0  0
  7 45  1  0  0  0  0
  8 46  1  0  0  0  0
  9 47  1  0  0  0  0
 10 48  1  0  0  0  0
 11 49  1  0  0  0  0
 20 50  1  0  0  0  0
 20 51  1  0  0  0  0
 20 52  1  0  0  0  0
 21 53  1  0  0  0  0
 21 54  1  0  0  0  0
 21 55  1  0  0  0  0
 22 56  1  0  0  0  0
 22 57  1  0  0  0  0
 22 58  1  0  0  0  0
 23 59  1  0  0  0  0
 23 60  1  0  0  0  0
 23 61  1  0  0  0  0
 24 62  1  0  0  0  0
 24 63  1  0  0  0  0
 24 64  1  0  0  0  0
 25 65  1  0  0  0  0
 25 66  1  0  0  0  0
 26 67  1  0  0  0  0
 26 68  1  0  0  0  0
 27 69  1  0  0  0  0
 33 70  1  0  0  0  0
 34 71  1  0  0  0  0
M  END
> <paper/assay>
https://pubchem.ncbi.nlm.nih.gov/bioassay/1890

> <IC50 (um)>
6.288

> <real_space>
FALSE

> <SCR>
FALSE

> <BB>
FALSE

> <molport_or_mcule>
FALSE

> <PDB>
4MDS

> <Hybrid2>
-8.193928

> <docked_fragment>
x0678

> <Mpro-_dock>
7.099114

> <site>
active-noncovalent

$$$$
2526861
  -OEChem-04162001263D

 33 34  0     0  0  0  0  0  0999 V2000
   13.5527   -0.8902   21.9976 C   0  0  0  0  0  0  0  0  0  0  0  0
   12.8670    0.2956   22.2608 C   0  0  0  0  0  0  0  0  0  0  0  0
   14.0015   -1.6852   23.0523 C   0  0  0  0  0  0  0  0  0  0  0  0
   10.4130    3.2850   24.5770 C   0  0  0  0  0  0  0  0  0  0  0  0
   13.0791   -0.1084   24.6334 C   0  0  0  0  0  0  0  0  0  0  0  0
   11.4135    4.0166   23.8907 C   0  0  0  0  0  0  0  0  0  0  0  0
   12.6303    0.6865   23.5787 C   0  0  0  0  0  0  0  0  0  0  0  0
   13.7648   -1.2943   24.3701 C   0  0  0  0  0  0  0  0  0  0  0  0
   10.7700    1.9555   24.5294 C   0  0  0  0  0  0  0  0  0  0  0  0
   12.3514    3.1119   23.4445 C   0  0  0  0  0  0  0  0  0  0  0  0
   11.4708    5.4350   23.6809 C   0  0  0  0  0  0  0  0  0  0  0  0
   10.0740    0.7769   25.0902 C   0  0  0  0  0  0  0  0  0  0  0  0
   13.5963    3.3395   22.6752 C   0  0  0  0  0  0  0  0  0  0  0  0
   10.3402    6.1499   22.9132 C   0  0  0  0  0  0  0  0  0  0  0  0
   11.9498    1.8621   23.8382 N   0  0  0  0  0  0  0  0  0  0  0  0
   14.2216   -2.1033   25.4441 N   0  0  0  0  0  0  0  0  0  0  0  0
   12.4332    6.1192   24.1143 O   0  0  0  0  0  0  0  0  0  0  0  0
   14.8364   -3.1661   25.1857 O   0  0  0  0  0  0  0  0  0  0  0  0
   13.9985   -1.7329   26.6220 O   0  0  0  0  0  0  0  0  0  0  0  0
    9.0535    6.7268   23.9925 Cl  0  0  0  0  0  0  0  0  0  0  0  0
   13.7377   -1.1943   20.9714 H   0  0  0  0  0  0  0  0  0  0  0  0
   12.5224    0.9057   21.4295 H   0  0  0  0  0  0  0  0  0  0  0  0
   14.5344   -2.6074   22.8329 H   0  0  0  0  0  0  0  0  0  0  0  0
    9.5278    3.6828   25.0548 H   0  0  0  0  0  0  0  0  0  0  0  0
   12.8955    0.1967   25.6620 H   0  0  0  0  0  0  0  0  0  0  0  0
    9.3654    0.3539   24.3611 H   0  0  0  0  0  0  0  0  0  0  0  0
   10.7802   -0.0195   25.3761 H   0  0  0  0  0  0  0  0  0  0  0  0
    9.5094    1.0292   26.0027 H   0  0  0  0  0  0  0  0  0  0  0  0
   14.4491    3.5086   23.3500 H   0  0  0  0  0  0  0  0  0  0  0  0
   13.8401    2.4816   22.0288 H   0  0  0  0  0  0  0  0  0  0  0  0
   13.5116    4.2134   22.0098 H   0  0  0  0  0  0  0  0  0  0  0  0
   10.7486    7.0222   22.3970 H   0  0  0  0  0  0  0  0  0  0  0  0
    9.8853    5.4517   22.2064 H   0  0  0  0  0  0  0  0  0  0  0  0
  1  2  2  0  0  0  0
  1  3  1  0  0  0  0
  2  7  1  0  0  0  0
  3  8  2  0  0  0  0
  4  6  1  0  0  0  0
  4  9  2  0  0  0  0
  5  7  2  0  0  0  0
  5  8  1  0  0  0  0
  6 10  2  0  0  0  0
  6 11  1  0  0  0  0
  7 15  1  0  0  0  0
  8 16  1  0  0  0  0
  9 12  1  0  0  0  0
  9 15  1  0  0  0  0
 10 13  1  0  0  0  0
 10 15  1  0  0  0  0
 11 14  1  0  0  0  0
 11 17  2  0  0  0  0
 14 20  1  0  0  0  0
 16 18  2  0  0  0  0
 16 19  2  0  0  0  0
  1 21  1  0  0  0  0
  2 22  1  0  0  0  0
  3 23  1  0  0  0  0
  4 24  1  0  0  0  0
  5 25  1  0  0  0  0
 12 26  1  0  0  0  0
 12 27  1  0  0  0  0
 12 28  1  0  0  0  0
 13 29  1  0  0  0  0
 13 30  1  0  0  0  0
 13 31  1  0  0  0  0
 14 32  1  0  0  0  0
 14 33  1  0  0  0  0
M  END
> <paper/assay>
https://pubchem.ncbi.nlm.nih.gov/bioassay/1890

> <IC50 (um)>
4.586

> <real_space>
FALSE

> <SCR>
FALSE

> <BB>
FALSE

> <molport_or_mcule>
['https://www.molport.com/shop/molecule-link/MolPort-000-875-862', 'https://www.molport.com/shop/molecule-link/MolPort-000-875-862', 'https://mcule.com/MCULE-8923860832/']

> <PDB>
FALSE

> <Hybrid2>
-8.150683

> <docked_fragment>
x0161

> <Mpro-_dock>
2.260398

> <site>
active-noncovalent

$$$$
5734448
  -OEChem-04162001263D

 38 40  0     0  0  0  0  0  0999 V2000
   10.7928    5.2542   24.5005 C   0  0  0  0  0  0  0  0  0  0  0  0
   12.1022    5.6149   24.1827 C   0  0  0  0  0  0  0  0  0  0  0  0
   14.8715   -0.3111   21.8943 C   0  0  0  0  0  0  0  0  0  0  0  0
   10.2212    4.1215   23.9209 C   0  0  0  0  0  0  0  0  0  0  0  0
    9.3510   -3.0304   24.7244 C   0  0  0  0  0  0  0  0  0  0  0  0
   12.8400    4.8429   23.2852 C   0  0  0  0  0  0  0  0  0  0  0  0
    8.0138   -3.4236   24.6714 C   0  0  0  0  0  0  0  0  0  0  0  0
   14.0914   -1.4904   21.8331 C   0  0  0  0  0  0  0  0  0  0  0  0
    7.5475   -1.6290   23.1225 C   0  0  0  0  0  0  0  0  0  0  0  0
   14.2553    0.5072   22.8123 C   0  0  0  0  0  0  0  0  0  0  0  0
   10.9589    3.3495   23.0234 C   0  0  0  0  0  0  0  0  0  0  0  0
    8.8848   -1.2358   23.1755 C   0  0  0  0  0  0  0  0  0  0  0  0
    9.7865   -1.9365   23.9765 C   0  0  0  0  0  0  0  0  0  0  0  0
   12.2683    3.7102   22.7056 C   0  0  0  0  0  0  0  0  0  0  0  0
    7.1121   -2.7230   23.8704 C   0  0  0  0  0  0  0  0  0  0  0  0
   13.0543   -1.3088   22.7182 C   0  0  0  0  0  0  0  0  0  0  0  0
   10.3580    2.1695   22.4220 C   0  0  0  0  0  0  0  0  0  0  0  0
    9.9090    1.0908   23.1025 C   0  0  0  0  0  0  0  0  0  0  0  0
    9.3271   -0.0701   22.3729 C   0  0  0  0  0  0  0  0  0  0  0  0
   11.9155   -2.1848   23.0949 C   0  0  0  0  0  0  0  0  0  0  0  0
    9.2287   -0.1007   21.1512 O   0  0  0  0  0  0  0  0  0  0  0  0
   11.7380   -3.2945   22.6151 O   0  0  0  0  0  0  0  0  0  0  0  0
   13.1469   -0.0936   23.3193 O   0  0  0  0  0  0  0  0  0  0  0  0
   11.0968   -1.5672   24.0424 O   0  0  0  0  0  0  0  0  0  0  0  0
   12.9905    2.9783   21.8445 F   0  0  0  0  0  0  0  0  0  0  0  0
    5.3004   -3.2565   23.7986 Br  0  0  0  0  0  0  0  0  0  0  0  0
   10.2182    5.8559   25.1991 H   0  0  0  0  0  0  0  0  0  0  0  0
   12.5474    6.4968   24.6338 H   0  0  0  0  0  0  0  0  0  0  0  0
   15.7699   -0.0854   21.3384 H   0  0  0  0  0  0  0  0  0  0  0  0
    9.1992    3.8542   24.1785 H   0  0  0  0  0  0  0  0  0  0  0  0
   10.0487   -3.5799   25.3506 H   0  0  0  0  0  0  0  0  0  0  0  0
   13.8596    5.1233   23.0375 H   0  0  0  0  0  0  0  0  0  0  0  0
    7.6909   -4.2782   25.2602 H   0  0  0  0  0  0  0  0  0  0  0  0
   14.2668   -2.3620   21.2186 H   0  0  0  0  0  0  0  0  0  0  0  0
    6.8477   -1.0797   22.4962 H   0  0  0  0  0  0  0  0  0  0  0  0
   14.4682    1.4946   23.1952 H   0  0  0  0  0  0  0  0  0  0  0  0
   10.2873    2.1693   21.3285 H   0  0  0  0  0  0  0  0  0  0  0  0
    9.9852    1.0375   24.1821 H   0  0  0  0  0  0  0  0  0  0  0  0
  1  2  1  0  0  0  0
  1  4  2  0  0  0  0
  2  6  2  0  0  0  0
  3  8  1  0  0  0  0
  3 10  2  0  0  0  0
  4 11  1  0  0  0  0
  5  7  2  0  0  0  0
  5 13  1  0  0  0  0
  6 14  1  0  0  0  0
  7 15  1  0  0  0  0
  8 16  2  0  0  0  0
  9 12  1  0  0  0  0
  9 15  2  0  0  0  0
 10 23  1  0  0  0  0
 11 14  2  0  0  0  0
 11 17  1  0  0  0  0
 12 13  2  0  0  0  0
 12 19  1  0  0  0  0
 13 24  1  0  0  0  0
 14 25  1  0  0  0  0
 15 26  1  0  0  0  0
 16 20  1  0  0  0  0
 16 23  1  0  0  0  0
 17 18  2  0  0  0  0
 18 19  1  0  0  0  0
 19 21  2  0  0  0  0
 20 22  2  0  0  0  0
 20 24  1  0  0  0  0
  1 27  1  0  0  0  0
  2 28  1  0  0  0  0
  3 29  1  0  0  0  0
  4 30  1  0  0  0  0
  5 31  1  0  0  0  0
  6 32  1  0  0  0  0
  7 33  1  0  0  0  0
  8 34  1  0  0  0  0
  9 35  1  0  0  0  0
 10 36  1  0  0  0  0
 17 37  1  0  0  0  0
 18 38  1  0  0  0  0
M  END
> <paper/assay>
https://pubchem.ncbi.nlm.nih.gov/bioassay/1890

> <IC50 (um)>
7.121

> <real_space>
FALSE

> <SCR>
FALSE

> <BB>
FALSE

> <molport_or_mcule>
['https://mcule.com/MCULE-9409329838/', 'https://www.molport.com/shop/molecule-link/MolPort-000-424-589']

> <PDB>
FALSE

> <Hybrid2>
-8.067646

> <docked_fragment>
x0195

> <Mpro-_dock>
1.740224

> <site>
active-noncovalent

$$$$
PJ 169
  -OEChem-04162001263D

 65 68  0     0  0  0  0  0  0999 V2000
   13.8265   -2.7313   23.4107 C   0  0  0  0  0  0  0  0  0  0  0  0
   13.6456   -2.0124   24.5922 C   0  0  0  0  0  0  0  0  0  0  0  0
   13.8148   -2.0695   22.1828 C   0  0  0  0  0  0  0  0  0  0  0  0
   13.1582    6.1953   24.0080 C   0  0  0  0  0  0  0  0  0  0  0  0
   12.8636    5.8281   22.6950 C   0  0  0  0  0  0  0  0  0  0  0  0
   13.4529   -0.6317   24.5459 C   0  0  0  0  0  0  0  0  0  0  0  0
   13.6220   -0.6888   22.1365 C   0  0  0  0  0  0  0  0  0  0  0  0
   12.1917    6.0579   25.0043 C   0  0  0  0  0  0  0  0  0  0  0  0
   11.6023    5.3236   22.3783 C   0  0  0  0  0  0  0  0  0  0  0  0
    9.1155   -2.9418   24.6548 C   0  0  0  0  0  0  0  0  0  0  0  0
    6.6718   -3.1249   23.3058 C   0  0  0  0  0  0  0  0  0  0  0  0
    8.3857   -1.7815   24.3800 C   0  0  0  0  0  0  0  0  0  0  0  0
   13.4411    0.0301   23.3181 C   0  0  0  0  0  0  0  0  0  0  0  0
   10.9304    5.5534   24.6876 C   0  0  0  0  0  0  0  0  0  0  0  0
   10.6357    5.1863   23.3745 C   0  0  0  0  0  0  0  0  0  0  0  0
    8.6242   -4.1868   24.2562 C   0  0  0  0  0  0  0  0  0  0  0  0
    7.4052   -4.2779   23.5834 C   0  0  0  0  0  0  0  0  0  0  0  0
    7.1658   -1.8817   23.7056 C   0  0  0  0  0  0  0  0  0  0  0  0
    8.8657   -0.4612   24.7806 C   0  0  0  0  0  0  0  0  0  0  0  0
    8.1605    0.6492   24.5139 C   0  0  0  0  0  0  0  0  0  0  0  0
    6.8498    0.5517   23.7906 C   0  0  0  0  0  0  0  0  0  0  0  0
   11.0323    2.0707   24.2798 C   0  0  0  0  0  0  0  0  0  0  0  0
    9.9116    5.4140   25.7708 C   0  0  0  0  0  0  0  0  0  0  0  0
    9.4239   -5.4109   24.5623 C   0  0  0  0  0  0  0  0  0  0  0  0
    6.8652   -5.6014   23.1501 C   0  0  0  0  0  0  0  0  0  0  0  0
    9.2783    4.6388   23.0075 C   0  0  0  0  0  0  0  0  0  0  0  0
   13.2334    1.5162   23.2675 C   0  0  0  0  0  0  0  0  0  0  0  0
    8.6231    2.0171   24.9105 C   0  0  0  0  0  0  0  0  0  0  0  0
    9.2822    3.1261   22.8009 C   0  0  0  0  0  0  0  0  0  0  0  0
    6.4334   -0.7154   23.4302 N   0  0  0  0  0  0  0  0  0  0  0  0
   11.8344    1.8636   23.1609 N   0  0  0  0  0  0  0  0  0  0  0  0
    9.6770    2.3920   24.0125 N   0  0  0  0  0  0  0  0  0  0  0  0
    6.1944    1.5625   23.5407 O   0  0  0  0  0  0  0  0  0  0  0  0
   11.4720    1.9690   25.4292 O   0  0  0  0  0  0  0  0  0  0  0  0
   13.9780   -3.8062   23.4470 H   0  0  0  0  0  0  0  0  0  0  0  0
   13.6559   -2.5274   25.5484 H   0  0  0  0  0  0  0  0  0  0  0  0
   13.9567   -2.6288   21.2628 H   0  0  0  0  0  0  0  0  0  0  0  0
   14.1400    6.5888   24.2540 H   0  0  0  0  0  0  0  0  0  0  0  0
   13.6166    5.9357   21.9197 H   0  0  0  0  0  0  0  0  0  0  0  0
   13.3126   -0.0798   25.4716 H   0  0  0  0  0  0  0  0  0  0  0  0
   13.6142   -0.1817   21.1753 H   0  0  0  0  0  0  0  0  0  0  0  0
   12.4307    6.3484   26.0240 H   0  0  0  0  0  0  0  0  0  0  0  0
   11.3824    5.0399   21.3524 H   0  0  0  0  0  0  0  0  0  0  0  0
   10.0668   -2.8804   25.1791 H   0  0  0  0  0  0  0  0  0  0  0  0
    5.7220   -3.1963   22.7815 H   0  0  0  0  0  0  0  0  0  0  0  0
    9.8155   -0.4060   25.3034 H   0  0  0  0  0  0  0  0  0  0  0  0
    9.3191    6.3323   25.8553 H   0  0  0  0  0  0  0  0  0  0  0  0
    9.2321    4.5765   25.5704 H   0  0  0  0  0  0  0  0  0  0  0  0
   10.3875    5.2144   26.7389 H   0  0  0  0  0  0  0  0  0  0  0  0
    9.1377   -5.8167   25.5394 H   0  0  0  0  0  0  0  0  0  0  0  0
    9.2680   -6.1861   23.8021 H   0  0  0  0  0  0  0  0  0  0  0  0
   10.4981   -5.1888   24.5766 H   0  0  0  0  0  0  0  0  0  0  0  0
    7.2173   -5.8431   22.1406 H   0  0  0  0  0  0  0  0  0  0  0  0
    7.1814   -6.4007   23.8315 H   0  0  0  0  0  0  0  0  0  0  0  0
    5.7681   -5.5998   23.1469 H   0  0  0  0  0  0  0  0  0  0  0  0
    8.9427    5.1298   22.0853 H   0  0  0  0  0  0  0  0  0  0  0  0
    8.5468    4.9127   23.7786 H   0  0  0  0  0  0  0  0  0  0  0  0
   13.6314    1.9926   24.1701 H   0  0  0  0  0  0  0  0  0  0  0  0
   13.7540    1.9568   22.4107 H   0  0  0  0  0  0  0  0  0  0  0  0
    8.9841    1.9796   25.9375 H   0  0  0  0  0  0  0  0  0  0  0  0
    7.7833    2.7064   24.8319 H   0  0  0  0  0  0  0  0  0  0  0  0
    8.2767    2.7831   22.5376 H   0  0  0  0  0  0  0  0  0  0  0  0
    9.9651    2.8299   21.9979 H   0  0  0  0  0  0  0  0  0  0  0  0
    5.5494   -0.8134   22.9388 H   0  0  0  0  0  0  0  0  0  0  0  0
   11.4232    1.9596   22.2401 H   0  0  0  0  0  0  0  0  0  0  0  0
  1  2  1  0  0  0  0
  1  3  2  0  0  0  0
  2  6  2  0  0  0  0
  3  7  1  0  0  0  0
  4  5  1  0  0  0  0
  4  8  2  0  0  0  0
  5  9  2  0  0  0  0
  6 13  1  0  0  0  0
  7 13  2  0  0  0  0
  8 14  1  0  0  0  0
  9 15  1  0  0  0  0
 10 12  2  0  0  0  0
 10 16  1  0  0  0  0
 11 17  1  0  0  0  0
 11 18  2  0  0  0  0
 12 18  1  0  0  0  0
 12 19  1  0  0  0  0
 13 27  1  0  0  0  0
 14 15  2  0  0  0  0
 14 23  1  0  0  0  0
 15 26  1  0  0  0  0
 16 17  2  0  0  0  0
 16 24  1  0  0  0  0
 17 25  1  0  0  0  0
 18 30  1  0  0  0  0
 19 20  2  0  0  0  0
 20 21  1  0  0  0  0
 20 28  1  0  0  0  0
 21 30  1  0  0  0  0
 21 33  2  0  0  0  0
 22 31  1  0  0  0  0
 22 32  1  0  0  0  0
 22 34  2  0  0  0  0
 26 29  1  0  0  0  0
 27 31  1  0  0  0  0
 28 32  1  0  0  0  0
 29 32  1  0  0  0  0
  1 35  1  0  0  0  0
  2 36  1  0  0  0  0
  3 37  1  0  0  0  0
  4 38  1  0  0  0  0
  5 39  1  0  0  0  0
  6 40  1  0  0  0  0
  7 41  1  0  0  0  0
  8 42  1  0  0  0  0
  9 43  1  0  0  0  0
 10 44  1  0  0  0  0
 11 45  1  0  0  0  0
 19 46  1  0  0  0  0
 23 47  1  0  0  0  0
 23 48  1  0  0  0  0
 23 49  1  0  0  0  0
 24 50  1  0  0  0  0
 24 51  1  0  0  0  0
 24 52  1  0  0  0  0
 25 53  1  0  0  0  0
 25 54  1  0  0  0  0
 25 55  1  0  0  0  0
 26 56  1  0  0  0  0
 26 57  1  0  0  0  0
 27 58  1  0  0  0  0
 27 59  1  0  0  0  0
 28 60  1  0  0  0  0
 28 61  1  0  0  0  0
 29 62  1  0  0  0  0
 29 63  1  0  0  0  0
 30 64  1  0  0  0  0
 31 65  1  0  0  0  0
M  END
> <paper/assay>
https://10.1016/j.bmc.2008.01.011

> <IC50 (um)>
17.2

> <real_space>
FALSE

> <SCR>
FALSE

> <BB>
FALSE

> <molport_or_mcule>
['https://mcule.com/MCULE-6592821510/', 'https://mcule.com/MCULE-6592821510/']

> <PDB>
FALSE

> <Hybrid2>
-7.944145

> <docked_fragment>
x0161

> <Mpro-_dock>
5.17441

> <site>
active-noncovalent

$$$$
3776668
  -OEChem-04162001263D

 37 39  0     0  0  0  0  0  0999 V2000
   11.3685   -3.2280   24.4648 C   0  0  0  0  0  0  0  0  0  0  0  0
   12.4704   -2.3348   24.3301 C   0  0  0  0  0  0  0  0  0  0  0  0
    8.5489   -4.5043   23.2966 C   0  0  0  0  0  0  0  0  0  0  0  0
   12.2129    3.7338   22.9469 C   0  0  0  0  0  0  0  0  0  0  0  0
    8.9377   -3.3220   23.8774 C   0  0  0  0  0  0  0  0  0  0  0  0
   10.2138   -2.7110   23.9200 C   0  0  0  0  0  0  0  0  0  0  0  0
   12.1158   -1.1691   23.6872 C   0  0  0  0  0  0  0  0  0  0  0  0
    7.1716   -4.5960   23.5730 C   0  0  0  0  0  0  0  0  0  0  0  0
   13.2751    4.5741   22.5711 C   0  0  0  0  0  0  0  0  0  0  0  0
   12.7859    2.4911   23.0062 C   0  0  0  0  0  0  0  0  0  0  0  0
   12.9286   -0.0413   23.3651 C   0  0  0  0  0  0  0  0  0  0  0  0
   13.2501    6.0305   22.3523 C   0  0  0  0  0  0  0  0  0  0  0  0
    7.7009   -1.5576   25.1782 C   0  0  0  0  0  0  0  0  0  0  0  0
    6.2472   -5.6727   23.1804 C   0  0  0  0  0  0  0  0  0  0  0  0
    6.7161   -3.5550   24.2750 N   0  0  0  0  0  0  0  0  0  0  0  0
   14.4194    3.9038   22.4096 N   0  0  0  0  0  0  0  0  0  0  0  0
    7.8135   -2.7979   24.4447 N   0  0  0  0  0  0  0  0  0  0  0  0
   12.2687    1.2101   23.3246 N   0  0  0  0  0  0  0  0  0  0  0  0
   10.8703    4.0487   23.2100 N   0  0  0  0  0  0  0  0  0  0  0  0
   14.1491   -0.1389   23.0968 O   0  0  0  0  0  0  0  0  0  0  0  0
   10.4801    5.2459   23.1163 O   0  0  0  0  0  0  0  0  0  0  0  0
   10.0666    3.1315   23.5373 O   0  0  0  0  0  0  0  0  0  0  0  0
   14.1026    2.5796   22.6876 O   0  0  0  0  0  0  0  0  0  0  0  0
    6.8319   -6.6877   22.4628 F   0  0  0  0  0  0  0  0  0  0  0  0
    5.6402   -6.3099   24.2351 F   0  0  0  0  0  0  0  0  0  0  0  0
    5.2112   -5.2396   22.3914 F   0  0  0  0  0  0  0  0  0  0  0  0
   10.4604   -1.1548   23.2495 S   0  0  0  0  0  0  0  0  0  0  0  0
   11.4292   -4.2001   24.9387 H   0  0  0  0  0  0  0  0  0  0  0  0
   13.4713   -2.5433   24.6876 H   0  0  0  0  0  0  0  0  0  0  0  0
    9.1703   -5.2013   22.7516 H   0  0  0  0  0  0  0  0  0  0  0  0
   13.4729    6.5791   23.2834 H   0  0  0  0  0  0  0  0  0  0  0  0
   13.9860    6.3508   21.5934 H   0  0  0  0  0  0  0  0  0  0  0  0
   12.2680    6.3803   21.9870 H   0  0  0  0  0  0  0  0  0  0  0  0
    7.4632   -0.7642   24.4648 H   0  0  0  0  0  0  0  0  0  0  0  0
    6.9092   -1.6481   25.9271 H   0  0  0  0  0  0  0  0  0  0  0  0
    8.6485   -1.3486   25.6824 H   0  0  0  0  0  0  0  0  0  0  0  0
   11.2791    1.1870   23.5580 H   0  0  0  0  0  0  0  0  0  0  0  0
  1  2  1  0  0  0  0
  1  6  2  0  0  0  0
  2  7  2  0  0  0  0
  3  5  2  0  0  0  0
  3  8  1  0  0  0  0
  4  9  1  0  0  0  0
  4 10  2  0  0  0  0
  4 19  1  0  0  0  0
  5  6  1  0  0  0  0
  5 17  1  0  0  0  0
  6 27  1  0  0  0  0
  7 11  1  0  0  0  0
  7 27  1  0  0  0  0
  8 14  1  0  0  0  0
  8 15  2  0  0  0  0
  9 12  1  0  0  0  0
  9 16  2  0  0  0  0
 10 18  1  0  0  0  0
 10 23  1  0  0  0  0
 11 18  1  0  0  0  0
 11 20  2  0  0  0  0
 13 17  1  0  0  0  0
 14 24  1  0  0  0  0
 14 25  1  0  0  0  0
 14 26  1  0  0  0  0
 15 17  1  0  0  0  0
 16 23  1  0  0  0  0
 19 21  2  0  0  0  0
 19 22  2  0  0  0  0
  1 28  1  0  0  0  0
  2 29  1  0  0  0  0
  3 30  1  0  0  0  0
 12 31  1  0  0  0  0
 12 32  1  0  0  0  0
 12 33  1  0  0  0  0
 13 34  1  0  0  0  0
 13 35  1  0  0  0  0
 13 36  1  0  0  0  0
 18 37  1  0  0  0  0
M  END
> <paper/assay>
https://pubchem.ncbi.nlm.nih.gov/bioassay/269112

> <IC50 (um)>
5

> <real_space>
FALSE

> <SCR>
FALSE

> <BB>
FALSE

> <molport_or_mcule>
FALSE

> <PDB>
FALSE

> <Hybrid2>
-7.939018

> <docked_fragment>
x0161

> <Mpro-_dock>
5.893695

> <site>
active-noncovalent

$$$$
16
  -OEChem-04162001263D

 37 39  0     0  0  0  0  0  0999 V2000
   11.3685   -3.2280   24.4648 C   0  0  0  0  0  0  0  0  0  0  0  0
   12.4704   -2.3348   24.3301 C   0  0  0  0  0  0  0  0  0  0  0  0
    8.5489   -4.5043   23.2966 C   0  0  0  0  0  0  0  0  0  0  0  0
   12.2129    3.7338   22.9469 C   0  0  0  0  0  0  0  0  0  0  0  0
    8.9377   -3.3220   23.8774 C   0  0  0  0  0  0  0  0  0  0  0  0
   10.2138   -2.7110   23.9200 C   0  0  0  0  0  0  0  0  0  0  0  0
   12.1158   -1.1691   23.6872 C   0  0  0  0  0  0  0  0  0  0  0  0
    7.1716   -4.5960   23.5730 C   0  0  0  0  0  0  0  0  0  0  0  0
   13.2751    4.5741   22.5711 C   0  0  0  0  0  0  0  0  0  0  0  0
   12.7859    2.4911   23.0062 C   0  0  0  0  0  0  0  0  0  0  0  0
   12.9286   -0.0413   23.3651 C   0  0  0  0  0  0  0  0  0  0  0  0
   13.2501    6.0305   22.3523 C   0  0  0  0  0  0  0  0  0  0  0  0
    7.7009   -1.5576   25.1782 C   0  0  0  0  0  0  0  0  0  0  0  0
    6.2472   -5.6727   23.1804 C   0  0  0  0  0  0  0  0  0  0  0  0
    6.7161   -3.5550   24.2750 N   0  0  0  0  0  0  0  0  0  0  0  0
   14.4194    3.9038   22.4096 N   0  0  0  0  0  0  0  0  0  0  0  0
    7.8135   -2.7979   24.4447 N   0  0  0  0  0  0  0  0  0  0  0  0
   12.2687    1.2101   23.3246 N   0  0  0  0  0  0  0  0  0  0  0  0
   10.8703    4.0487   23.2100 N   0  0  0  0  0  0  0  0  0  0  0  0
   14.1491   -0.1389   23.0968 O   0  0  0  0  0  0  0  0  0  0  0  0
   10.4801    5.2459   23.1163 O   0  0  0  0  0  0  0  0  0  0  0  0
   10.0666    3.1315   23.5373 O   0  0  0  0  0  0  0  0  0  0  0  0
   14.1026    2.5796   22.6876 O   0  0  0  0  0  0  0  0  0  0  0  0
    6.8319   -6.6877   22.4628 F   0  0  0  0  0  0  0  0  0  0  0  0
    5.6402   -6.3099   24.2351 F   0  0  0  0  0  0  0  0  0  0  0  0
    5.2112   -5.2396   22.3914 F   0  0  0  0  0  0  0  0  0  0  0  0
   10.4604   -1.1548   23.2495 S   0  0  0  0  0  0  0  0  0  0  0  0
   11.4292   -4.2001   24.9387 H   0  0  0  0  0  0  0  0  0  0  0  0
   13.4713   -2.5433   24.6876 H   0  0  0  0  0  0  0  0  0  0  0  0
    9.1703   -5.2013   22.7516 H   0  0  0  0  0  0  0  0  0  0  0  0
   13.4729    6.5791   23.2834 H   0  0  0  0  0  0  0  0  0  0  0  0
   13.9860    6.3508   21.5934 H   0  0  0  0  0  0  0  0  0  0  0  0
   12.2680    6.3803   21.9870 H   0  0  0  0  0  0  0  0  0  0  0  0
    7.4632   -0.7642   24.4648 H   0  0  0  0  0  0  0  0  0  0  0  0
    6.9092   -1.6481   25.9271 H   0  0  0  0  0  0  0  0  0  0  0  0
    8.6485   -1.3486   25.6824 H   0  0  0  0  0  0  0  0  0  0  0  0
   11.2791    1.1870   23.5580 H   0  0  0  0  0  0  0  0  0  0  0  0
  1  2  1  0  0  0  0
  1  6  2  0  0  0  0
  2  7  2  0  0  0  0
  3  5  2  0  0  0  0
  3  8  1  0  0  0  0
  4  9  1  0  0  0  0
  4 10  2  0  0  0  0
  4 19  1  0  0  0  0
  5  6  1  0  0  0  0
  5 17  1  0  0  0  0
  6 27  1  0  0  0  0
  7 11  1  0  0  0  0
  7 27  1  0  0  0  0
  8 14  1  0  0  0  0
  8 15  2  0  0  0  0
  9 12  1  0  0  0  0
  9 16  2  0  0  0  0
 10 18  1  0  0  0  0
 10 23  1  0  0  0  0
 11 18  1  0  0  0  0
 11 20  2  0  0  0  0
 13 17  1  0  0  0  0
 14 24  1  0  0  0  0
 14 25  1  0  0  0  0
 14 26  1  0  0  0  0
 15 17  1  0  0  0  0
 16 23  1  0  0  0  0
 19 21  2  0  0  0  0
 19 22  2  0  0  0  0
  1 28  1  0  0  0  0
  2 29  1  0  0  0  0
  3 30  1  0  0  0  0
 12 31  1  0  0  0  0
 12 32  1  0  0  0  0
 12 33  1  0  0  0  0
 13 34  1  0  0  0  0
 13 35  1  0  0  0  0
 13 36  1  0  0  0  0
 18 37  1  0  0  0  0
M  END
> <paper/assay>
https://doi.org/10.1021/jm060207o

> <IC50 (um)>
5

> <real_space>
FALSE

> <SCR>
FALSE

> <BB>
FALSE

> <molport_or_mcule>
FALSE

> <PDB>
FALSE

> <Hybrid2>
-7.939018

> <docked_fragment>
x0161

> <Mpro-_dock>
5.893695

> <site>
active-noncovalent

$$$$
4398304
  -OEChem-04162001263D

 36 38  0     0  0  0  0  0  0999 V2000
   13.4988    3.0171   22.4990 C   0  0  0  0  0  0  0  0  0  0  0  0
   14.4743   -1.4291   22.0798 C   0  0  0  0  0  0  0  0  0  0  0  0
   13.8298   -0.1585   22.0617 C   0  0  0  0  0  0  0  0  0  0  0  0
   14.0686   -2.1999   23.1470 C   0  0  0  0  0  0  0  0  0  0  0  0
   12.3617    2.4557   23.1483 C   0  0  0  0  0  0  0  0  0  0  0  0
    9.8036   -1.1481   23.8324 C   0  0  0  0  0  0  0  0  0  0  0  0
   12.1482    1.1237   23.4068 C   0  0  0  0  0  0  0  0  0  0  0  0
   12.9558   -0.0066   23.1158 C   0  0  0  0  0  0  0  0  0  0  0  0
    9.1893   -1.9388   24.8220 C   0  0  0  0  0  0  0  0  0  0  0  0
   11.2223    3.1014   23.6647 C   0  0  0  0  0  0  0  0  0  0  0  0
   10.2617   -0.0447   24.5100 C   0  0  0  0  0  0  0  0  0  0  0  0
    8.5233   -3.2432   24.6557 C   0  0  0  0  0  0  0  0  0  0  0  0
   10.1663    0.6530   26.9244 C   0  0  0  0  0  0  0  0  0  0  0  0
   12.3221    5.4388   24.5812 C   0  0  0  0  0  0  0  0  0  0  0  0
   14.4250    3.4743   21.9701 N   0  0  0  0  0  0  0  0  0  0  0  0
    9.2501   -1.3849   26.0359 N   0  0  0  0  0  0  0  0  0  0  0  0
   10.3496    2.2498   24.2098 N   0  0  0  0  0  0  0  0  0  0  0  0
   10.9408    1.0552   24.0373 N   0  0  0  0  0  0  0  0  0  0  0  0
    9.9081   -0.2344   25.8135 N   0  0  0  0  0  0  0  0  0  0  0  0
    9.9373   -1.3977   22.4551 N   0  0  0  0  0  0  0  0  0  0  0  0
    9.4642   -2.4604   21.9668 O   0  0  0  0  0  0  0  0  0  0  0  0
   10.5283   -0.5556   21.7250 O   0  0  0  0  0  0  0  0  0  0  0  0
   12.9151   -1.3921   24.1213 S   0  0  0  0  0  0  0  0  0  0  0  0
   10.9038    4.8201   23.6381 S   0  0  0  0  0  0  0  0  0  0  0  0
   15.1980   -1.7613   21.3470 H   0  0  0  0  0  0  0  0  0  0  0  0
   14.0040    0.5995   21.3080 H   0  0  0  0  0  0  0  0  0  0  0  0
   14.3945   -3.1985   23.4012 H   0  0  0  0  0  0  0  0  0  0  0  0
    9.2365   -4.0749   24.7832 H   0  0  0  0  0  0  0  0  0  0  0  0
    7.7070   -3.3893   25.3848 H   0  0  0  0  0  0  0  0  0  0  0  0
    8.0613   -3.3500   23.6584 H   0  0  0  0  0  0  0  0  0  0  0  0
    9.3223    1.3426   27.0085 H   0  0  0  0  0  0  0  0  0  0  0  0
   10.2740    0.0669   27.8413 H   0  0  0  0  0  0  0  0  0  0  0  0
   11.0936    1.2027   26.7398 H   0  0  0  0  0  0  0  0  0  0  0  0
   12.2709    6.5277   24.6580 H   0  0  0  0  0  0  0  0  0  0  0  0
   13.2517    5.1603   24.0789 H   0  0  0  0  0  0  0  0  0  0  0  0
   12.3158    5.0090   25.5858 H   0  0  0  0  0  0  0  0  0  0  0  0
  1  5  1  0  0  0  0
  1 15  3  0  0  0  0
  2  3  1  0  0  0  0
  2  4  2  0  0  0  0
  3  8  2  0  0  0  0
  4 23  1  0  0  0  0
  5  7  2  0  0  0  0
  5 10  1  0  0  0  0
  6  9  1  0  0  0  0
  6 11  2  0  0  0  0
  6 20  1  0  0  0  0
  7  8  1  0  0  0  0
  7 18  1  0  0  0  0
  8 23  1  0  0  0  0
  9 12  1  0  0  0  0
  9 16  2  0  0  0  0
 10 17  2  0  0  0  0
 10 24  1  0  0  0  0
 11 18  1  0  0  0  0
 11 19  1  0  0  0  0
 13 19  1  0  0  0  0
 14 24  1  0  0  0  0
 16 19  1  0  0  0  0
 17 18  1  0  0  0  0
 20 21  2  0  0  0  0
 20 22  2  0  0  0  0
  2 25  1  0  0  0  0
  3 26  1  0  0  0  0
  4 27  1  0  0  0  0
 12 28  1  0  0  0  0
 12 29  1  0  0  0  0
 12 30  1  0  0  0  0
 13 31  1  0  0  0  0
 13 32  1  0  0  0  0
 13 33  1  0  0  0  0
 14 34  1  0  0  0  0
 14 35  1  0  0  0  0
 14 36  1  0  0  0  0
M  END
> <paper/assay>
https://pubchem.ncbi.nlm.nih.gov/bioassay/269112

> <IC50 (um)>
18

> <real_space>
FALSE

> <SCR>
FALSE

> <BB>
FALSE

> <molport_or_mcule>
FALSE

> <PDB>
FALSE

> <Hybrid2>
-7.794198

> <docked_fragment>
x0195

> <Mpro-_dock>
1.349657

> <site>
active-noncovalent

$$$$
3811656
  -OEChem-04162001263D

 41 43  0     1  0  0  0  0  0999 V2000
    8.5371   -4.9831   25.7913 C   0  0  0  0  0  0  0  0  0  0  0  0
    6.2889   -0.3603   21.3756 C   0  0  0  0  0  0  0  0  0  0  0  0
    5.1475    0.2858   20.9007 C   0  0  0  0  0  0  0  0  0  0  0  0
    9.1909   -4.0151   24.9755 C   0  0  0  0  0  0  0  0  0  0  0  0
    7.3716   -0.0146   19.2436 C   0  0  0  0  0  0  0  0  0  0  0  0
    7.1954   -5.0869   25.4968 C   0  0  0  0  0  0  0  0  0  0  0  0
    7.4010   -0.5104   20.5470 C   0  0  0  0  0  0  0  0  0  0  0  0
    5.1181    0.7816   19.5973 C   0  0  0  0  0  0  0  0  0  0  0  0
    6.2302    0.6315   18.7687 C   0  0  0  0  0  0  0  0  0  0  0  0
    8.3238   -3.4159   24.0882 C   0  0  0  0  0  0  0  0  0  0  0  0
    8.6045   -2.3712   23.0791 C   0  0  0  0  0  0  0  0  0  0  0  0
    9.8289    0.7298   22.1726 C   0  0  0  0  0  0  0  0  0  0  0  0
    8.3642   -2.6043   21.6074 C   0  0  0  0  0  0  0  0  0  0  0  0
    8.6432   -1.2106   21.0642 C   0  0  2  0  0  0  0  0  0  0  0  0
    2.9052    1.5220   20.0560 C   0  0  0  0  0  0  0  0  0  0  0  0
    6.6618    2.4505   17.2988 C   0  0  0  0  0  0  0  0  0  0  0  0
   10.3189    1.2541   23.5001 C   0  0  0  0  0  0  0  0  0  0  0  0
    9.0957   -1.2070   23.3789 N   0  0  0  0  0  0  0  0  0  0  0  0
    9.1992   -0.5000   22.2165 N   0  0  0  0  0  0  0  0  0  0  0  0
    9.9979    1.3814   21.1410 O   0  0  0  0  0  0  0  0  0  0  0  0
    3.9972    1.4105   19.1455 O   0  0  0  0  0  0  0  0  0  0  0  0
    6.2130    1.1108   17.4937 O   0  0  0  0  0  0  0  0  0  0  0  0
    6.7289   -4.0202   24.2411 S   0  0  0  0  0  0  0  0  0  0  0  0
    9.0134    2.2258   24.1694 Cl  0  0  0  0  0  0  0  0  0  0  0  0
    9.0259   -5.5725   26.5562 H   0  0  0  0  0  0  0  0  0  0  0  0
    6.3034   -0.7419   22.3929 H   0  0  0  0  0  0  0  0  0  0  0  0
    4.2847    0.3989   21.5513 H   0  0  0  0  0  0  0  0  0  0  0  0
   10.2446   -3.7745   25.0403 H   0  0  0  0  0  0  0  0  0  0  0  0
    8.2373   -0.1298   18.5958 H   0  0  0  0  0  0  0  0  0  0  0  0
    6.4670   -5.7375   25.9598 H   0  0  0  0  0  0  0  0  0  0  0  0
    9.0984   -3.3327   21.2482 H   0  0  0  0  0  0  0  0  0  0  0  0
    7.3501   -2.9758   21.4334 H   0  0  0  0  0  0  0  0  0  0  0  0
    9.3901   -1.2168   20.2512 H   0  0  0  0  0  0  0  0  0  0  0  0
    2.0766    2.0432   19.5704 H   0  0  0  0  0  0  0  0  0  0  0  0
    3.2251    2.0723   20.9444 H   0  0  0  0  0  0  0  0  0  0  0  0
    2.5816    0.5200   20.3474 H   0  0  0  0  0  0  0  0  0  0  0  0
    6.5968    2.7068   16.2385 H   0  0  0  0  0  0  0  0  0  0  0  0
    7.6944    2.5438   17.6445 H   0  0  0  0  0  0  0  0  0  0  0  0
    6.0245    3.1261   17.8743 H   0  0  0  0  0  0  0  0  0  0  0  0
   11.1940    1.8706   23.3317 H   0  0  0  0  0  0  0  0  0  0  0  0
   10.5308    0.4145   24.1515 H   0  0  0  0  0  0  0  0  0  0  0  0
  1  4  1  0  0  0  0
  1  6  2  0  0  0  0
  2  3  2  0  0  0  0
  2  7  1  0  0  0  0
  3  8  1  0  0  0  0
  4 10  2  0  0  0  0
  5  7  2  0  0  0  0
  5  9  1  0  0  0  0
  6 23  1  0  0  0  0
  7 14  1  0  0  0  0
  8  9  2  0  0  0  0
  8 21  1  0  0  0  0
  9 22  1  0  0  0  0
 10 11  1  0  0  0  0
 10 23  1  0  0  0  0
 11 13  1  0  0  0  0
 11 18  2  0  0  0  0
 12 17  1  0  0  0  0
 12 19  1  0  0  0  0
 12 20  2  0  0  0  0
 13 14  1  0  0  0  0
 14 19  1  0  0  0  0
 15 21  1  0  0  0  0
 16 22  1  0  0  0  0
 17 24  1  0  0  0  0
 18 19  1  0  0  0  0
  1 25  1  0  0  0  0
  2 26  1  0  0  0  0
  3 27  1  0  0  0  0
  4 28  1  0  0  0  0
  5 29  1  0  0  0  0
  6 30  1  0  0  0  0
 13 31  1  0  0  0  0
 13 32  1  0  0  0  0
 14 33  1  0  0  0  0
 15 34  1  0  0  0  0
 15 35  1  0  0  0  0
 15 36  1  0  0  0  0
 16 37  1  0  0  0  0
 16 38  1  0  0  0  0
 16 39  1  0  0  0  0
 17 40  1  0  0  0  0
 17 41  1  0  0  0  0
M  END
> <paper/assay>
https://pubchem.ncbi.nlm.nih.gov/bioassay/1890

> <IC50 (um)>
2.299

> <real_space>
FALSE

> <SCR>
Z56955922

> <BB>
EN300-07549

> <molport_or_mcule>
FALSE

> <PDB>
FALSE

> <Hybrid2>
-7.748017

> <docked_fragment>
x0107

> <Mpro-_dock>
2.348891

> <site>
active-noncovalent

$$$$
8
  -OEChem-04162001263D

 43 46  0     0  0  0  0  0  0999 V2000
    5.6921   -6.3508   26.0826 C   0  0  0  0  0  0  0  0  0  0  0  0
   10.6113   -0.9835   22.6186 C   0  0  0  0  0  0  0  0  0  0  0  0
   10.2274   -2.2202   23.1451 C   0  0  0  0  0  0  0  0  0  0  0  0
    4.8594   -6.2051   24.9732 C   0  0  0  0  0  0  0  0  0  0  0  0
    7.0259   -5.9486   26.0112 C   0  0  0  0  0  0  0  0  0  0  0  0
    9.0656   -1.4848   26.4850 C   0  0  0  0  0  0  0  0  0  0  0  0
    9.9964    0.1489   24.6769 C   0  0  0  0  0  0  0  0  0  0  0  0
    6.6941   -5.2551   23.7208 C   0  0  0  0  0  0  0  0  0  0  0  0
   10.8906    4.6301   23.1956 C   0  0  0  0  0  0  0  0  0  0  0  0
   13.0939    3.7852   22.8988 C   0  0  0  0  0  0  0  0  0  0  0  0
   12.6593    5.9714   22.3420 C   0  0  0  0  0  0  0  0  0  0  0  0
    8.8775   -2.8472   26.4468 C   0  0  0  0  0  0  0  0  0  0  0  0
    9.6028   -1.0864   25.2290 C   0  0  0  0  0  0  0  0  0  0  0  0
   10.4985    0.1840   23.3710 C   0  0  0  0  0  0  0  0  0  0  0  0
    9.7271   -2.2401   24.4519 C   0  0  0  0  0  0  0  0  0  0  0  0
    5.3603   -5.6572   23.7923 C   0  0  0  0  0  0  0  0  0  0  0  0
   11.7837    3.5690   23.2943 C   0  0  0  0  0  0  0  0  0  0  0  0
    7.5269   -5.4008   24.8303 C   0  0  0  0  0  0  0  0  0  0  0  0
   11.3287    5.8576   22.7113 C   0  0  0  0  0  0  0  0  0  0  0  0
   10.9070    1.4556   22.7941 C   0  0  0  0  0  0  0  0  0  0  0  0
   13.5564    4.9633   22.4235 N   0  0  0  0  0  0  0  0  0  0  0  0
    9.2796   -3.2937   25.2166 N   0  0  0  0  0  0  0  0  0  0  0  0
    4.5125   -5.5082   22.6633 N   0  0  0  0  0  0  0  0  0  0  0  0
   10.8544    1.7244   21.5859 O   0  0  0  0  0  0  0  0  0  0  0  0
    3.3156   -5.8757   22.7488 O   0  0  0  0  0  0  0  0  0  0  0  0
    4.9827   -5.0128   21.6106 O   0  0  0  0  0  0  0  0  0  0  0  0
    9.9804   -5.6249   25.7537 O   0  0  0  0  0  0  0  0  0  0  0  0
    9.5973   -4.9648   23.3267 O   0  0  0  0  0  0  0  0  0  0  0  0
   11.3729    2.3242   23.7785 O   0  0  0  0  0  0  0  0  0  0  0  0
    9.2234   -4.8897   24.7410 S   0  0  0  0  0  0  0  0  0  0  0  0
   10.2557    7.1887   22.5750 Cl  0  0  0  0  0  0  0  0  0  0  0  0
    5.3022   -6.7773   27.0023 H   0  0  0  0  0  0  0  0  0  0  0  0
   11.0028   -0.9453   21.6043 H   0  0  0  0  0  0  0  0  0  0  0  0
   10.3177   -3.1245   22.5528 H   0  0  0  0  0  0  0  0  0  0  0  0
    3.8220   -6.5230   25.0427 H   0  0  0  0  0  0  0  0  0  0  0  0
    7.6656   -6.0674   26.8817 H   0  0  0  0  0  0  0  0  0  0  0  0
    8.8412   -0.8450   27.3275 H   0  0  0  0  0  0  0  0  0  0  0  0
    9.9090    1.0608   25.2619 H   0  0  0  0  0  0  0  0  0  0  0  0
    7.0873   -4.8276   22.8008 H   0  0  0  0  0  0  0  0  0  0  0  0
    9.8550    4.4932   23.4974 H   0  0  0  0  0  0  0  0  0  0  0  0
   13.8341    2.9932   22.9544 H   0  0  0  0  0  0  0  0  0  0  0  0
   13.0629    6.9033   21.9575 H   0  0  0  0  0  0  0  0  0  0  0  0
    8.4931   -3.5294   27.1931 H   0  0  0  0  0  0  0  0  0  0  0  0
  1  4  1  0  0  0  0
  1  5  2  0  0  0  0
  2  3  2  0  0  0  0
  2 14  1  0  0  0  0
  3 15  1  0  0  0  0
  4 16  2  0  0  0  0
  5 18  1  0  0  0  0
  6 12  2  0  0  0  0
  6 13  1  0  0  0  0
  7 13  1  0  0  0  0
  7 14  2  0  0  0  0
  8 16  1  0  0  0  0
  8 18  2  0  0  0  0
  9 17  2  0  0  0  0
  9 19  1  0  0  0  0
 10 17  1  0  0  0  0
 10 21  2  0  0  0  0
 11 19  2  0  0  0  0
 11 21  1  0  0  0  0
 12 22  1  0  0  0  0
 13 15  2  0  0  0  0
 14 20  1  0  0  0  0
 15 22  1  0  0  0  0
 16 23  1  0  0  0  0
 17 29  1  0  0  0  0
 18 30  1  0  0  0  0
 19 31  1  0  0  0  0
 20 24  2  0  0  0  0
 20 29  1  0  0  0  0
 22 30  1  0  0  0  0
 23 25  2  0  0  0  0
 23 26  2  0  0  0  0
 27 30  2  0  0  0  0
 28 30  2  0  0  0  0
  1 32  1  0  0  0  0
  2 33  1  0  0  0  0
  3 34  1  0  0  0  0
  4 35  1  0  0  0  0
  5 36  1  0  0  0  0
  6 37  1  0  0  0  0
  7 38  1  0  0  0  0
  8 39  1  0  0  0  0
  9 40  1  0  0  0  0
 10 41  1  0  0  0  0
 11 42  1  0  0  0  0
 12 43  1  0  0  0  0
M  END
> <paper/assay>
http://10.1016/j.bmcl.2008.08.082

> <IC50 (um)>
0.089

> <real_space>
FALSE

> <SCR>
FALSE

> <BB>
FALSE

> <molport_or_mcule>
FALSE

> <PDB>
FALSE

> <Hybrid2>
-7.722032

> <docked_fragment>
x1077

> <Mpro-_dock>
7.063542

> <site>
active-noncovalent

$$$$
2797358
  -OEChem-04162001263D

 30 31  0     0  0  0  0  0  0999 V2000
   11.5357   -3.0341   25.1455 C   0  0  0  0  0  0  0  0  0  0  0  0
   10.6799   -4.0457   24.7098 C   0  0  0  0  0  0  0  0  0  0  0  0
    6.3307   -3.9767   22.5962 C   0  0  0  0  0  0  0  0  0  0  0  0
    6.5749   -5.0257   24.7589 C   0  0  0  0  0  0  0  0  0  0  0  0
    5.0189   -3.6255   22.9147 C   0  0  0  0  0  0  0  0  0  0  0  0
    5.2631   -4.6745   25.0774 C   0  0  0  0  0  0  0  0  0  0  0  0
   10.6944   -1.5760   23.4125 C   0  0  0  0  0  0  0  0  0  0  0  0
   11.5429   -1.7992   24.4969 C   0  0  0  0  0  0  0  0  0  0  0  0
    9.8386   -2.5876   22.9768 C   0  0  0  0  0  0  0  0  0  0  0  0
    7.1087   -4.6769   23.5184 C   0  0  0  0  0  0  0  0  0  0  0  0
    9.8313   -3.8225   23.6255 C   0  0  0  0  0  0  0  0  0  0  0  0
    4.4851   -3.9744   24.1552 C   0  0  0  0  0  0  0  0  0  0  0  0
   12.4583   -0.7178   24.9622 C   0  0  0  0  0  0  0  0  0  0  0  0
    8.9846   -2.3293   21.8689 N   0  0  0  0  0  0  0  0  0  0  0  0
    9.0282   -1.2029   21.3204 O   0  0  0  0  0  0  0  0  0  0  0  0
    8.2142   -3.2359   21.4739 O   0  0  0  0  0  0  0  0  0  0  0  0
    9.0577   -6.3032   23.9163 O   0  0  0  0  0  0  0  0  0  0  0  0
    8.8817   -5.1845   21.6649 O   0  0  0  0  0  0  0  0  0  0  0  0
   13.2306   -1.0760   26.0305 F   0  0  0  0  0  0  0  0  0  0  0  0
   13.3424   -0.3013   24.0078 F   0  0  0  0  0  0  0  0  0  0  0  0
   11.7883    0.4046   25.3551 F   0  0  0  0  0  0  0  0  0  0  0  0
    8.7741   -5.1228   23.1141 S   0  0  0  0  0  0  0  0  0  0  0  0
    2.8667   -3.5410   24.5481 Cl  0  0  0  0  0  0  0  0  0  0  0  0
   12.1936   -3.2174   25.9908 H   0  0  0  0  0  0  0  0  0  0  0  0
   10.6837   -5.0034   25.2238 H   0  0  0  0  0  0  0  0  0  0  0  0
    6.7368   -3.7000   21.6270 H   0  0  0  0  0  0  0  0  0  0  0  0
    7.1722   -5.5711   25.4846 H   0  0  0  0  0  0  0  0  0  0  0  0
    4.4244   -3.0800   22.1863 H   0  0  0  0  0  0  0  0  0  0  0  0
    4.8603   -4.9529   26.0478 H   0  0  0  0  0  0  0  0  0  0  0  0
   10.7050   -0.6105   22.9111 H   0  0  0  0  0  0  0  0  0  0  0  0
  1  2  2  0  0  0  0
  1  8  1  0  0  0  0
  2 11  1  0  0  0  0
  3  5  2  0  0  0  0
  3 10  1  0  0  0  0
  4  6  1  0  0  0  0
  4 10  2  0  0  0  0
  5 12  1  0  0  0  0
  6 12  2  0  0  0  0
  7  8  2  0  0  0  0
  7  9  1  0  0  0  0
  8 13  1  0  0  0  0
  9 11  2  0  0  0  0
  9 14  1  0  0  0  0
 10 22  1  0  0  0  0
 11 22  1  0  0  0  0
 12 23  1  0  0  0  0
 13 19  1  0  0  0  0
 13 20  1  0  0  0  0
 13 21  1  0  0  0  0
 14 15  2  0  0  0  0
 14 16  2  0  0  0  0
 17 22  2  0  0  0  0
 18 22  2  0  0  0  0
  1 24  1  0  0  0  0
  2 25  1  0  0  0  0
  3 26  1  0  0  0  0
  4 27  1  0  0  0  0
  5 28  1  0  0  0  0
  6 29  1  0  0  0  0
  7 30  1  0  0  0  0
M  END
> <paper/assay>
https://pubchem.ncbi.nlm.nih.gov/bioassay/269112

> <IC50 (um)>
12

> <real_space>
FALSE

> <SCR>
FALSE

> <BB>
FALSE

> <molport_or_mcule>
['https://www.molport.com/shop/molecule-link/MolPort-002-889-919', 'https://mcule.com/MCULE-9359843273/']

> <PDB>
FALSE

> <Hybrid2>
-7.673141

> <docked_fragment>
x0749

> <Mpro-_dock>
1.148971

> <site>
active-covalent

$$$$
2774667
  -OEChem-04162001263D

 27 28  0     0  0  0  0  0  0999 V2000
   11.9655   -1.9343   22.6780 C   0  0  0  0  0  0  0  0  0  0  0  0
   11.4186   -0.1637   24.2282 C   0  0  0  0  0  0  0  0  0  0  0  0
   13.3195   -1.7737   22.9722 C   0  0  0  0  0  0  0  0  0  0  0  0
   12.7726   -0.0031   24.5224 C   0  0  0  0  0  0  0  0  0  0  0  0
   11.0151   -1.1293   23.3060 C   0  0  0  0  0  0  0  0  0  0  0  0
   13.7231   -0.8081   23.8944 C   0  0  0  0  0  0  0  0  0  0  0  0
    8.4980   -4.7733   24.8119 C   0  0  0  0  0  0  0  0  0  0  0  0
    8.8988   -3.9633   23.8117 C   0  0  0  0  0  0  0  0  0  0  0  0
    7.9702   -2.9157   26.3182 C   0  0  0  0  0  0  0  0  0  0  0  0
    8.0301   -4.2346   26.0753 C   0  0  0  0  0  0  0  0  0  0  0  0
    8.8207   -2.5116   24.1108 C   0  0  0  0  0  0  0  0  0  0  0  0
    8.3697   -2.0490   25.3252 N   0  0  0  0  0  0  0  0  0  0  0  0
    7.6067   -5.0928   27.1223 N   0  0  0  0  0  0  0  0  0  0  0  0
    8.3064   -0.8639   25.5635 O   0  0  0  0  0  0  0  0  0  0  0  0
    7.6532   -6.3147   26.9131 O   0  0  0  0  0  0  0  0  0  0  0  0
    7.2188   -4.5620   28.1742 O   0  0  0  0  0  0  0  0  0  0  0  0
    8.6307   -0.0807   23.2253 O   0  0  0  0  0  0  0  0  0  0  0  0
    9.2184   -1.9131   21.6077 O   0  0  0  0  0  0  0  0  0  0  0  0
    9.2987   -1.3330   22.9331 S   0  0  0  0  0  0  0  0  0  0  0  0
   15.3935   -0.6099   24.2573 Cl  0  0  0  0  0  0  0  0  0  0  0  0
   11.6620   -2.6896   21.9580 H   0  0  0  0  0  0  0  0  0  0  0  0
   10.6865    0.4687   24.7232 H   0  0  0  0  0  0  0  0  0  0  0  0
   14.0490   -2.4080   22.4752 H   0  0  0  0  0  0  0  0  0  0  0  0
   13.0726    0.7533   25.2431 H   0  0  0  0  0  0  0  0  0  0  0  0
    8.5213   -5.8501   24.6799 H   0  0  0  0  0  0  0  0  0  0  0  0
    9.2543   -4.3178   22.8549 H   0  0  0  0  0  0  0  0  0  0  0  0
    7.6282   -2.4671   27.2443 H   0  0  0  0  0  0  0  0  0  0  0  0
  1  3  2  0  0  0  0
  1  5  1  0  0  0  0
  2  4  1  0  0  0  0
  2  5  2  0  0  0  0
  3  6  1  0  0  0  0
  4  6  2  0  0  0  0
  5 19  1  0  0  0  0
  6 20  1  0  0  0  0
  7  8  2  0  0  0  0
  7 10  1  0  0  0  0
  8 11  1  0  0  0  0
  9 10  2  0  0  0  0
  9 12  1  0  0  0  0
 10 13  1  0  0  0  0
 11 12  2  0  0  0  0
 11 19  1  0  0  0  0
 12 14  2  0  0  0  0
 13 15  2  0  0  0  0
 13 16  2  0  0  0  0
 17 19  2  0  0  0  0
 18 19  2  0  0  0  0
  1 21  1  0  0  0  0
  2 22  1  0  0  0  0
  3 23  1  0  0  0  0
  4 24  1  0  0  0  0
  7 25  1  0  0  0  0
  8 26  1  0  0  0  0
  9 27  1  0  0  0  0
M  END
> <paper/assay>
https://pubchem.ncbi.nlm.nih.gov/bioassay/269112

> <IC50 (um)>
15

> <real_space>
FALSE

> <SCR>
FALSE

> <BB>
FALSE

> <molport_or_mcule>
FALSE

> <PDB>
FALSE

> <Hybrid2>
-7.581022

> <docked_fragment>
x0072

> <Mpro-_dock>
1.027399

> <site>
active-noncovalent

$$$$
MP576
  -OEChem-04162001263D

 56 59  0     1  0  0  0  0  0999 V2000
    5.7726   -2.2498   22.9700 C   0  0  0  0  0  0  0  0  0  0  0  0
    7.9566    2.3111   21.5810 C   0  0  0  0  0  0  0  0  0  0  0  0
    6.0859   -2.4465   24.3149 C   0  0  0  0  0  0  0  0  0  0  0  0
    6.7734   -2.3302   22.0017 C   0  0  0  0  0  0  0  0  0  0  0  0
    6.9752    1.5506   22.2166 C   0  0  0  0  0  0  0  0  0  0  0  0
    9.2084    2.4716   22.1753 C   0  0  0  0  0  0  0  0  0  0  0  0
    7.4001   -2.7236   24.6915 C   0  0  0  0  0  0  0  0  0  0  0  0
    8.0876   -2.6073   22.3783 C   0  0  0  0  0  0  0  0  0  0  0  0
    7.2454    0.9507   23.4466 C   0  0  0  0  0  0  0  0  0  0  0  0
    9.4786    1.8718   23.4052 C   0  0  0  0  0  0  0  0  0  0  0  0
    8.4009   -2.8040   23.7233 C   0  0  0  0  0  0  0  0  0  0  0  0
    8.4971    1.1113   24.0409 C   0  0  0  0  0  0  0  0  0  0  0  0
   11.4323    3.4457   23.6860 C   0  0  0  0  0  0  0  0  0  0  0  0
   11.8048    0.9232   23.6455 C   0  0  0  0  0  0  0  0  0  0  0  0
   12.5657    3.5669   22.9626 C   0  0  0  0  0  0  0  0  0  0  0  0
   12.9253    1.1474   22.9206 C   0  0  0  0  0  0  0  0  0  0  0  0
   10.7555    4.6732   24.2096 C   0  0  0  0  0  0  0  0  0  0  0  0
   11.4626   -0.4162   24.1516 C   0  0  0  0  0  0  0  0  0  0  0  0
   13.1437    4.8945   22.5489 C   0  0  0  0  0  0  0  0  0  0  0  0
   11.3632    6.0234   23.8996 C   0  0  0  0  0  0  0  0  0  0  0  0
   12.1025    6.0064   22.5743 C   0  0  0  0  0  0  0  0  0  0  0  0
   10.8588    2.0690   24.0289 C   0  0  2  0  0  0  0  0  0  0  0  0
   13.8864    0.0886   22.4519 C   0  0  0  0  0  0  0  0  0  0  0  0
    9.8164   -3.1021   24.1282 C   0  0  0  0  0  0  0  0  0  0  0  0
   10.8444   -2.4722   23.1929 C   0  0  0  0  0  0  0  0  0  0  0  0
   13.2594    2.4426   22.5578 N   0  0  0  0  0  0  0  0  0  0  0  0
    8.7497    0.4922   25.2962 N   0  0  0  0  0  0  0  0  0  0  0  0
    9.7628    4.5860   24.9313 O   0  0  0  0  0  0  0  0  0  0  0  0
   11.8223   -0.8331   25.2370 O   0  0  0  0  0  0  0  0  0  0  0  0
    7.8390   -0.1812   25.8336 O   0  0  0  0  0  0  0  0  0  0  0  0
    9.8757    0.6379   25.8278 O   0  0  0  0  0  0  0  0  0  0  0  0
   10.7113   -1.0473   23.2173 O   0  0  0  0  0  0  0  0  0  0  0  0
    4.7490   -2.0354   22.6768 H   0  0  0  0  0  0  0  0  0  0  0  0
    7.7465    2.7781   20.6232 H   0  0  0  0  0  0  0  0  0  0  0  0
    5.3066   -2.3850   25.0689 H   0  0  0  0  0  0  0  0  0  0  0  0
    6.5296   -2.1782   20.9544 H   0  0  0  0  0  0  0  0  0  0  0  0
    6.0000    1.4270   21.7547 H   0  0  0  0  0  0  0  0  0  0  0  0
    9.9662    3.0651   21.6706 H   0  0  0  0  0  0  0  0  0  0  0  0
    7.6350   -2.8753   25.7418 H   0  0  0  0  0  0  0  0  0  0  0  0
    8.8608   -2.6679   21.6171 H   0  0  0  0  0  0  0  0  0  0  0  0
    6.4703    0.3617   23.9311 H   0  0  0  0  0  0  0  0  0  0  0  0
   13.9786    5.1437   23.2154 H   0  0  0  0  0  0  0  0  0  0  0  0
   13.5504    4.8284   21.5322 H   0  0  0  0  0  0  0  0  0  0  0  0
   10.5588    6.7655   23.8547 H   0  0  0  0  0  0  0  0  0  0  0  0
   12.0367    6.2918   24.7210 H   0  0  0  0  0  0  0  0  0  0  0  0
   12.5851    6.9746   22.3999 H   0  0  0  0  0  0  0  0  0  0  0  0
   11.3861    5.8535   21.7564 H   0  0  0  0  0  0  0  0  0  0  0  0
   10.7247    2.0294   25.1322 H   0  0  0  0  0  0  0  0  0  0  0  0
   13.5762   -0.2693   21.4746 H   0  0  0  0  0  0  0  0  0  0  0  0
   13.8883   -0.7336   23.1619 H   0  0  0  0  0  0  0  0  0  0  0  0
   14.8844    0.5132   22.3892 H   0  0  0  0  0  0  0  0  0  0  0  0
    9.9869   -2.7500   25.1537 H   0  0  0  0  0  0  0  0  0  0  0  0
    9.9640   -4.1894   24.1410 H   0  0  0  0  0  0  0  0  0  0  0  0
   11.8551   -2.7202   23.5330 H   0  0  0  0  0  0  0  0  0  0  0  0
   10.7247   -2.8205   22.1617 H   0  0  0  0  0  0  0  0  0  0  0  0
   14.1091    2.5801   22.0226 H   0  0  0  0  0  0  0  0  0  0  0  0
  1  3  1  0  0  0  0
  1  4  2  0  0  0  0
  2  5  1  0  0  0  0
  2  6  2  0  0  0  0
  3  7  2  0  0  0  0
  4  8  1  0  0  0  0
  5  9  2  0  0  0  0
  6 10  1  0  0  0  0
  7 11  1  0  0  0  0
  8 11  2  0  0  0  0
  9 12  1  0  0  0  0
 10 12  2  0  0  0  0
 10 22  1  0  0  0  0
 11 24  1  0  0  0  0
 12 27  1  0  0  0  0
 13 15  2  0  0  0  0
 13 17  1  0  0  0  0
 13 22  1  0  0  0  0
 14 16  2  0  0  0  0
 14 18  1  0  0  0  0
 14 22  1  0  0  0  0
 15 19  1  0  0  0  0
 15 26  1  0  0  0  0
 16 23  1  0  0  0  0
 16 26  1  0  0  0  0
 17 20  1  0  0  0  0
 17 28  2  0  0  0  0
 18 29  2  0  0  0  0
 18 32  1  0  0  0  0
 19 21  1  0  0  0  0
 20 21  1  0  0  0  0
 24 25  1  0  0  0  0
 25 32  1  0  0  0  0
 27 30  2  0  0  0  0
 27 31  2  0  0  0  0
  1 33  1  0  0  0  0
  2 34  1  0  0  0  0
  3 35  1  0  0  0  0
  4 36  1  0  0  0  0
  5 37  1  0  0  0  0
  6 38  1  0  0  0  0
  7 39  1  0  0  0  0
  8 40  1  0  0  0  0
  9 41  1  0  0  0  0
 19 42  1  0  0  0  0
 19 43  1  0  0  0  0
 20 44  1  0  0  0  0
 20 45  1  0  0  0  0
 21 46  1  0  0  0  0
 21 47  1  0  0  0  0
 22 48  1  0  0  0  0
 23 49  1  0  0  0  0
 23 50  1  0  0  0  0
 23 51  1  0  0  0  0
 24 52  1  0  0  0  0
 24 53  1  0  0  0  0
 25 54  1  0  0  0  0
 25 55  1  0  0  0  0
 26 56  1  0  0  0  0
M  END
> <paper/assay>
https://doi.org/10.1016/j.chembiol.2004.07.013

> <IC50 (um)>
2.5

> <real_space>
FALSE

> <SCR>
FALSE

> <BB>
FALSE

> <molport_or_mcule>
FALSE

> <PDB>
FALSE

> <Hybrid2>
-7.565653

> <docked_fragment>
x0946

> <Mpro-_dock>
4.874722

> <site>
active-noncovalent

$$$$
3192987
  -OEChem-04162001263D

 51 54  0     1  0  0  0  0  0999 V2000
    7.2327   -3.1062   22.7694 C   0  0  0  0  0  0  0  0  0  0  0  0
    7.4737   -3.8124   23.9958 C   0  0  0  0  0  0  0  0  0  0  0  0
    6.6490   -4.9152   24.1214 C   0  0  0  0  0  0  0  0  0  0  0  0
    7.7894   -1.9522   22.2052 C   0  0  0  0  0  0  0  0  0  0  0  0
    6.2357   -3.7271   22.0265 C   0  0  0  0  0  0  0  0  0  0  0  0
    6.3862   -2.2086   20.3990 C   0  0  0  0  0  0  0  0  0  0  0  0
   11.9959    1.1139   23.9804 C   0  0  0  0  0  0  0  0  0  0  0  0
    8.4575   -3.4330   25.0621 C   0  0  0  0  0  0  0  0  0  0  0  0
    6.6557   -5.8782   25.2696 C   0  0  0  0  0  0  0  0  0  0  0  0
    8.6967   -4.5787   26.0580 C   0  0  0  0  0  0  0  0  0  0  0  0
   10.1983   -1.6218   22.5611 C   0  0  0  0  0  0  0  0  0  0  0  0
    8.5873    0.1646   23.2211 C   0  0  0  0  0  0  0  0  0  0  0  0
   11.1176   -1.1829   23.6986 C   0  0  0  0  0  0  0  0  0  0  0  0
    9.5374    0.5758   24.3457 C   0  0  0  0  0  0  0  0  0  0  0  0
    7.3975   -5.2919   26.4916 C   0  0  1  0  0  0  0  0  0  0  0  0
    6.4886   -4.3681   27.3092 C   0  0  0  0  0  0  0  0  0  0  0  0
    5.0160   -0.4733   19.2167 C   0  0  0  0  0  0  0  0  0  0  0  0
    5.9341   -1.6842   19.0767 C   0  0  0  0  0  0  0  0  0  0  0  0
   11.6941    2.5540   24.3095 C   0  0  0  0  0  0  0  0  0  0  0  0
    7.3589   -1.5030   21.0072 N   0  0  0  0  0  0  0  0  0  0  0  0
    5.7692   -3.3230   20.8289 N   0  0  0  0  0  0  0  0  0  0  0  0
    8.8066   -1.2407   22.8519 N   0  0  0  0  0  0  0  0  0  0  0  0
   10.9192    0.2310   24.0067 N   0  0  0  0  0  0  0  0  0  0  0  0
   13.1533    0.7863   23.7067 O   0  0  0  0  0  0  0  0  0  0  0  0
    5.6105   -5.1159   22.7891 S   0  0  0  0  0  0  0  0  0  0  0  0
   11.3341    3.3533   22.7836 Cl  0  0  0  0  0  0  0  0  0  0  0  0
    9.4069   -3.1632   24.5838 H   0  0  0  0  0  0  0  0  0  0  0  0
    8.1065   -2.5596   25.6213 H   0  0  0  0  0  0  0  0  0  0  0  0
    5.6133   -6.1070   25.5371 H   0  0  0  0  0  0  0  0  0  0  0  0
    7.1291   -6.8260   24.9762 H   0  0  0  0  0  0  0  0  0  0  0  0
    9.3975   -5.3029   25.6080 H   0  0  0  0  0  0  0  0  0  0  0  0
    9.2080   -4.1810   26.9537 H   0  0  0  0  0  0  0  0  0  0  0  0
   10.5179   -1.1610   21.6167 H   0  0  0  0  0  0  0  0  0  0  0  0
   10.2693   -2.7099   22.4359 H   0  0  0  0  0  0  0  0  0  0  0  0
    7.5437    0.2744   23.5404 H   0  0  0  0  0  0  0  0  0  0  0  0
    8.7342    0.8342   22.3646 H   0  0  0  0  0  0  0  0  0  0  0  0
   10.9007   -1.7484   24.6033 H   0  0  0  0  0  0  0  0  0  0  0  0
   12.1514   -1.3619   23.4185 H   0  0  0  0  0  0  0  0  0  0  0  0
    9.4996    1.6537   24.5103 H   0  0  0  0  0  0  0  0  0  0  0  0
    9.2490    0.0847   25.2744 H   0  0  0  0  0  0  0  0  0  0  0  0
    7.6897   -6.1379   27.1505 H   0  0  0  0  0  0  0  0  0  0  0  0
    6.1774   -3.5217   26.6990 H   0  0  0  0  0  0  0  0  0  0  0  0
    7.0253   -4.0000   28.1821 H   0  0  0  0  0  0  0  0  0  0  0  0
    5.6059   -4.9146   27.6375 H   0  0  0  0  0  0  0  0  0  0  0  0
    4.1399   -0.7129   19.8290 H   0  0  0  0  0  0  0  0  0  0  0  0
    4.6631   -0.1401   18.2357 H   0  0  0  0  0  0  0  0  0  0  0  0
    5.5389    0.3638   19.6914 H   0  0  0  0  0  0  0  0  0  0  0  0
    6.8021   -1.4089   18.4570 H   0  0  0  0  0  0  0  0  0  0  0  0
    5.4098   -2.4711   18.5118 H   0  0  0  0  0  0  0  0  0  0  0  0
   12.5698    2.9998   24.7663 H   0  0  0  0  0  0  0  0  0  0  0  0
   10.8303    2.5904   24.9626 H   0  0  0  0  0  0  0  0  0  0  0  0
  1  2  1  0  0  0  0
  1  4  1  0  0  0  0
  1  5  2  0  0  0  0
  2  3  2  0  0  0  0
  2  8  1  0  0  0  0
  3  9  1  0  0  0  0
  3 25  1  0  0  0  0
  4 20  2  0  0  0  0
  4 22  1  0  0  0  0
  5 21  1  0  0  0  0
  5 25  1  0  0  0  0
  6 18  1  0  0  0  0
  6 20  1  0  0  0  0
  6 21  2  0  0  0  0
  7 19  1  0  0  0  0
  7 23  1  0  0  0  0
  7 24  2  0  0  0  0
  8 10  1  0  0  0  0
  9 15  1  0  0  0  0
 10 15  1  0  0  0  0
 11 13  1  0  0  0  0
 11 22  1  0  0  0  0
 12 14  1  0  0  0  0
 12 22  1  0  0  0  0
 13 23  1  0  0  0  0
 14 23  1  0  0  0  0
 15 16  1  0  0  0  0
 17 18  1  0  0  0  0
 19 26  1  0  0  0  0
  8 27  1  0  0  0  0
  8 28  1  0  0  0  0
  9 29  1  0  0  0  0
  9 30  1  0  0  0  0
 10 31  1  0  0  0  0
 10 32  1  0  0  0  0
 11 33  1  0  0  0  0
 11 34  1  0  0  0  0
 12 35  1  0  0  0  0
 12 36  1  0  0  0  0
 13 37  1  0  0  0  0
 13 38  1  0  0  0  0
 14 39  1  0  0  0  0
 14 40  1  0  0  0  0
 15 41  1  0  0  0  0
 16 42  1  0  0  0  0
 16 43  1  0  0  0  0
 16 44  1  0  0  0  0
 17 45  1  0  0  0  0
 17 46  1  0  0  0  0
 17 47  1  0  0  0  0
 18 48  1  0  0  0  0
 18 49  1  0  0  0  0
 19 50  1  0  0  0  0
 19 51  1  0  0  0  0
M  END
> <paper/assay>
https://pubchem.ncbi.nlm.nih.gov/bioassay/1890

> <IC50 (um)>
4.234

> <real_space>
FALSE

> <SCR>
FALSE

> <BB>
FALSE

> <molport_or_mcule>
FALSE

> <PDB>
FALSE

> <Hybrid2>
-7.547823

> <docked_fragment>
x1392

> <Mpro-_dock>
5.019882

> <site>
active-covalent

$$$$
2726176
  -OEChem-04162001263D

 36 37  0     0  0  0  0  0  0999 V2000
    5.0309   -0.1223   23.4038 C   0  0  0  0  0  0  0  0  0  0  0  0
   10.8433   -0.1183   24.2974 C   0  0  0  0  0  0  0  0  0  0  0  0
   11.4873   -1.6872   22.5766 C   0  0  0  0  0  0  0  0  0  0  0  0
    9.5145   -0.5221   24.1683 C   0  0  0  0  0  0  0  0  0  0  0  0
   10.1584   -2.0910   22.4476 C   0  0  0  0  0  0  0  0  0  0  0  0
    5.6260   -0.1888   22.1040 C   0  0  0  0  0  0  0  0  0  0  0  0
   11.8297   -0.7008   23.5015 C   0  0  0  0  0  0  0  0  0  0  0  0
    5.1194    0.5546   21.0438 C   0  0  0  0  0  0  0  0  0  0  0  0
    5.7195    0.4688   19.7924 C   0  0  0  0  0  0  0  0  0  0  0  0
    9.1720   -1.5085   23.2434 C   0  0  0  0  0  0  0  0  0  0  0  0
    6.8149   -0.3684   19.6545 C   0  0  0  0  0  0  0  0  0  0  0  0
    6.7255   -0.9966   21.8625 C   0  0  0  0  0  0  0  0  0  0  0  0
   13.2505   -0.2687   23.6387 C   0  0  0  0  0  0  0  0  0  0  0  0
    3.9316    1.4459   21.2445 C   0  0  0  0  0  0  0  0  0  0  0  0
    7.5075   -0.5087   18.3372 C   0  0  0  0  0  0  0  0  0  0  0  0
    4.5484   -0.0685   24.4578 N   0  0  0  0  0  0  0  0  0  0  0  0
    7.3353   -1.1059   20.6609 N   0  0  0  0  0  0  0  0  0  0  0  0
    5.2242    1.2158   18.6878 N   0  0  0  0  0  0  0  0  0  0  0  0
    4.2300    1.9603   18.8573 O   0  0  0  0  0  0  0  0  0  0  0  0
    5.7969    1.1076   17.5780 O   0  0  0  0  0  0  0  0  0  0  0  0
    7.5432   -3.3776   22.5690 O   0  0  0  0  0  0  0  0  0  0  0  0
    6.8013   -1.7284   24.3242 O   0  0  0  0  0  0  0  0  0  0  0  0
    7.5091   -2.0156   23.0833 S   0  0  0  0  0  0  0  0  0  0  0  0
   11.1007    0.6511   25.0204 H   0  0  0  0  0  0  0  0  0  0  0  0
   12.2490   -2.1463   21.9520 H   0  0  0  0  0  0  0  0  0  0  0  0
    8.7537   -0.0614   24.7929 H   0  0  0  0  0  0  0  0  0  0  0  0
    9.9026   -2.8601   21.7235 H   0  0  0  0  0  0  0  0  0  0  0  0
   13.7651   -0.8808   24.3896 H   0  0  0  0  0  0  0  0  0  0  0  0
   13.7888   -0.3608   22.6865 H   0  0  0  0  0  0  0  0  0  0  0  0
   13.3193    0.7843   23.9417 H   0  0  0  0  0  0  0  0  0  0  0  0
    4.2599    2.4468   21.5414 H   0  0  0  0  0  0  0  0  0  0  0  0
    3.3421    1.5252   20.3250 H   0  0  0  0  0  0  0  0  0  0  0  0
    3.2692    1.0463   22.0199 H   0  0  0  0  0  0  0  0  0  0  0  0
    8.3084    0.2339   18.2497 H   0  0  0  0  0  0  0  0  0  0  0  0
    7.9426   -1.5088   18.2242 H   0  0  0  0  0  0  0  0  0  0  0  0
    6.8066   -0.3683   17.5056 H   0  0  0  0  0  0  0  0  0  0  0  0
  1  6  1  0  0  0  0
  1 16  3  0  0  0  0
  2  4  2  0  0  0  0
  2  7  1  0  0  0  0
  3  5  1  0  0  0  0
  3  7  2  0  0  0  0
  4 10  1  0  0  0  0
  5 10  2  0  0  0  0
  6  8  1  0  0  0  0
  6 12  2  0  0  0  0
  7 13  1  0  0  0  0
  8  9  2  0  0  0  0
  8 14  1  0  0  0  0
  9 11  1  0  0  0  0
  9 18  1  0  0  0  0
 10 23  1  0  0  0  0
 11 15  1  0  0  0  0
 11 17  2  0  0  0  0
 12 17  1  0  0  0  0
 12 23  1  0  0  0  0
 18 19  2  0  0  0  0
 18 20  2  0  0  0  0
 21 23  2  0  0  0  0
 22 23  2  0  0  0  0
  2 24  1  0  0  0  0
  3 25  1  0  0  0  0
  4 26  1  0  0  0  0
  5 27  1  0  0  0  0
 13 28  1  0  0  0  0
 13 29  1  0  0  0  0
 13 30  1  0  0  0  0
 14 31  1  0  0  0  0
 14 32  1  0  0  0  0
 14 33  1  0  0  0  0
 15 34  1  0  0  0  0
 15 35  1  0  0  0  0
 15 36  1  0  0  0  0
M  END
> <paper/assay>
https://pubchem.ncbi.nlm.nih.gov/bioassay/269112

> <IC50 (um)>
13

> <real_space>
FALSE

> <SCR>
FALSE

> <BB>
FALSE

> <molport_or_mcule>
FALSE

> <PDB>
FALSE

> <Hybrid2>
-7.493286

> <docked_fragment>
x1093

> <Mpro-_dock>
2.013835

> <site>
active-noncovalent

$$$$
2742278
  -OEChem-04162001263D

 43 45  0     0  0  0  0  0  0999 V2000
   13.7044   -1.0957   21.3370 C   0  0  0  0  0  0  0  0  0  0  0  0
   12.9276   -0.5260   22.3868 C   0  0  0  0  0  0  0  0  0  0  0  0
    8.2513   -2.6568   22.6951 C   0  0  0  0  0  0  0  0  0  0  0  0
    9.3803    0.3627   22.4200 C   0  0  0  0  0  0  0  0  0  0  0  0
   14.1242   -0.1472   20.4305 C   0  0  0  0  0  0  0  0  0  0  0  0
    7.8620   -1.6041   21.8328 C   0  0  0  0  0  0  0  0  0  0  0  0
    8.5647   -0.3430   21.5697 C   0  0  0  0  0  0  0  0  0  0  0  0
    7.2681   -3.6138   22.5975 C   0  0  0  0  0  0  0  0  0  0  0  0
    6.6689   -1.9929   21.2697 C   0  0  0  0  0  0  0  0  0  0  0  0
    9.7843    1.4838   21.6705 C   0  0  0  0  0  0  0  0  0  0  0  0
   12.7834    0.8365   22.2428 C   0  0  0  0  0  0  0  0  0  0  0  0
    5.7512   -1.3672   20.3042 C   0  0  0  0  0  0  0  0  0  0  0  0
    8.2467   -5.2830   24.2106 C   0  0  0  0  0  0  0  0  0  0  0  0
    7.0046   -6.0829   22.1726 C   0  0  0  0  0  0  0  0  0  0  0  0
    5.7702   -5.0964   24.0921 C   0  0  0  0  0  0  0  0  0  0  0  0
    7.0673   -4.9873   23.2588 C   0  0  0  0  0  0  0  0  0  0  0  0
    9.2680    1.4938   20.4387 N   0  0  0  0  0  0  0  0  0  0  0  0
    8.5313    0.3703   20.4077 N   0  0  0  0  0  0  0  0  0  0  0  0
   10.6352    2.4920   22.1462 N   0  0  0  0  0  0  0  0  0  0  0  0
   12.8628    3.1991   23.3094 O   0  0  0  0  0  0  0  0  0  0  0  0
   11.4383    1.4404   24.3944 O   0  0  0  0  0  0  0  0  0  0  0  0
    6.3000   -3.2169   21.7306 O   0  0  0  0  0  0  0  0  0  0  0  0
   13.5823    1.4231   20.8464 S   0  0  0  0  0  0  0  0  0  0  0  0
   11.9524    2.0749   23.1959 S   0  0  0  0  0  0  0  0  0  0  0  0
   13.9439   -2.1477   21.2514 H   0  0  0  0  0  0  0  0  0  0  0  0
   12.4974   -1.0890   23.2050 H   0  0  0  0  0  0  0  0  0  0  0  0
    9.1373   -2.7129   23.3123 H   0  0  0  0  0  0  0  0  0  0  0  0
    9.6444    0.1040   23.4360 H   0  0  0  0  0  0  0  0  0  0  0  0
   14.7236   -0.3010   19.5443 H   0  0  0  0  0  0  0  0  0  0  0  0
    6.0110   -1.6417   19.2670 H   0  0  0  0  0  0  0  0  0  0  0  0
    4.7004   -1.6649   20.4725 H   0  0  0  0  0  0  0  0  0  0  0  0
    5.7652   -0.2640   20.3686 H   0  0  0  0  0  0  0  0  0  0  0  0
    8.1278   -6.2587   24.6961 H   0  0  0  0  0  0  0  0  0  0  0  0
    9.2082   -5.3018   23.6860 H   0  0  0  0  0  0  0  0  0  0  0  0
    8.3169   -4.5243   24.9991 H   0  0  0  0  0  0  0  0  0  0  0  0
    6.8618   -7.0819   22.5989 H   0  0  0  0  0  0  0  0  0  0  0  0
    6.1713   -5.9076   21.4819 H   0  0  0  0  0  0  0  0  0  0  0  0
    7.9281   -6.1062   21.5820 H   0  0  0  0  0  0  0  0  0  0  0  0
    5.6723   -6.0917   24.5422 H   0  0  0  0  0  0  0  0  0  0  0  0
    5.7551   -4.3695   24.9126 H   0  0  0  0  0  0  0  0  0  0  0  0
    4.8791   -4.9334   23.4747 H   0  0  0  0  0  0  0  0  0  0  0  0
    8.0281    0.1515   19.5566 H   0  0  0  0  0  0  0  0  0  0  0  0
   10.8543    3.2685   21.4837 H   0  0  0  0  0  0  0  0  0  0  0  0
  1  2  1  0  0  0  0
  1  5  2  0  0  0  0
  2 11  2  0  0  0  0
  3  6  1  0  0  0  0
  3  8  2  0  0  0  0
  4  7  2  0  0  0  0
  4 10  1  0  0  0  0
  5 23  1  0  0  0  0
  6  7  1  0  0  0  0
  6  9  2  0  0  0  0
  7 18  1  0  0  0  0
  8 16  1  0  0  0  0
  8 22  1  0  0  0  0
  9 12  1  0  0  0  0
  9 22  1  0  0  0  0
 10 17  2  0  0  0  0
 10 19  1  0  0  0  0
 11 23  1  0  0  0  0
 11 24  1  0  0  0  0
 13 16  1  0  0  0  0
 14 16  1  0  0  0  0
 15 16  1  0  0  0  0
 17 18  1  0  0  0  0
 19 24  1  0  0  0  0
 20 24  2  0  0  0  0
 21 24  2  0  0  0  0
  1 25  1  0  0  0  0
  2 26  1  0  0  0  0
  3 27  1  0  0  0  0
  4 28  1  0  0  0  0
  5 29  1  0  0  0  0
 12 30  1  0  0  0  0
 12 31  1  0  0  0  0
 12 32  1  0  0  0  0
 13 33  1  0  0  0  0
 13 34  1  0  0  0  0
 13 35  1  0  0  0  0
 14 36  1  0  0  0  0
 14 37  1  0  0  0  0
 14 38  1  0  0  0  0
 15 39  1  0  0  0  0
 15 40  1  0  0  0  0
 15 41  1  0  0  0  0
 18 42  1  0  0  0  0
 19 43  1  0  0  0  0
M  END
> <paper/assay>
https://pubchem.ncbi.nlm.nih.gov/bioassay/269112

> <IC50 (um)>
10

> <real_space>
FALSE

> <SCR>
FALSE

> <BB>
FALSE

> <molport_or_mcule>
FALSE

> <PDB>
FALSE

> <Hybrid2>
-7.442471

> <docked_fragment>
x0874

> <Mpro-_dock>
0.989124

> <site>
active-noncovalent

$$$$
4270495
  -OEChem-04162001263D

 32 33  0     0  0  0  0  0  0999 V2000
    9.8906   -0.1811   23.0365 C   0  0  0  0  0  0  0  0  0  0  0  0
    5.9243   -6.3408   22.4212 C   0  0  0  0  0  0  0  0  0  0  0  0
   10.2685   -1.3442   22.3657 C   0  0  0  0  0  0  0  0  0  0  0  0
    7.1933   -6.1174   21.8871 C   0  0  0  0  0  0  0  0  0  0  0  0
    9.2781   -0.2648   24.2869 C   0  0  0  0  0  0  0  0  0  0  0  0
    5.6316   -5.9259   23.7204 C   0  0  0  0  0  0  0  0  0  0  0  0
   10.0336   -2.5910   22.9452 C   0  0  0  0  0  0  0  0  0  0  0  0
    8.1696   -5.4792   22.6521 C   0  0  0  0  0  0  0  0  0  0  0  0
    9.0432   -1.5116   24.8664 C   0  0  0  0  0  0  0  0  0  0  0  0
    6.6078   -5.2878   24.4855 C   0  0  0  0  0  0  0  0  0  0  0  0
    9.4210   -2.6748   24.1955 C   0  0  0  0  0  0  0  0  0  0  0  0
    7.8769   -5.0644   23.9513 C   0  0  0  0  0  0  0  0  0  0  0  0
    8.4005   -1.5591   26.1733 C   0  0  0  0  0  0  0  0  0  0  0  0
    6.2671   -4.8614   25.8553 C   0  0  0  0  0  0  0  0  0  0  0  0
    9.2891   -1.5328   27.3812 C   0  0  0  0  0  0  0  0  0  0  0  0
    6.4671   -5.6831   26.8250 O   0  5  0  0  0  0  0  0  0  0  0  0
    7.1849   -1.6238   26.3577 O   0  0  0  0  0  0  0  0  0  0  0  0
    5.7817   -3.6831   26.0321 O   0  0  0  0  0  0  0  0  0  0  0  0
   10.3792   -5.0032   24.7073 O   0  0  0  0  0  0  0  0  0  0  0  0
    8.5826   -4.0958   26.2239 O   0  0  0  0  0  0  0  0  0  0  0  0
    9.1434   -4.2577   24.8905 S   0  0  0  0  0  0  0  0  0  0  0  0
   10.0730    0.7897   22.5847 H   0  0  0  0  0  0  0  0  0  0  0  0
    5.1643   -6.8376   21.8254 H   0  0  0  0  0  0  0  0  0  0  0  0
   10.7456   -1.2784   21.3922 H   0  0  0  0  0  0  0  0  0  0  0  0
    7.4211   -6.4404   20.8754 H   0  0  0  0  0  0  0  0  0  0  0  0
    8.9883    0.6495   24.7988 H   0  0  0  0  0  0  0  0  0  0  0  0
    4.6391   -6.1055   24.1258 H   0  0  0  0  0  0  0  0  0  0  0  0
   10.3331   -3.4897   22.4125 H   0  0  0  0  0  0  0  0  0  0  0  0
    9.1545   -5.3110   22.2245 H   0  0  0  0  0  0  0  0  0  0  0  0
    9.5068   -0.5198   27.7550 H   0  0  0  0  0  0  0  0  0  0  0  0
   10.2532   -2.0401   27.2215 H   0  0  0  0  0  0  0  0  0  0  0  0
    8.8491   -2.0458   28.2549 H   0  0  0  0  0  0  0  0  0  0  0  0
  1  3  1  0  0  0  0
  1  5  2  0  0  0  0
  2  4  1  0  0  0  0
  2  6  2  0  0  0  0
  3  7  2  0  0  0  0
  4  8  2  0  0  0  0
  5  9  1  0  0  0  0
  6 10  1  0  0  0  0
  7 11  1  0  0  0  0
  8 12  1  0  0  0  0
  9 11  2  0  0  0  0
  9 13  1  0  0  0  0
 10 12  2  0  0  0  0
 10 14  1  0  0  0  0
 11 21  1  0  0  0  0
 12 21  1  0  0  0  0
 13 15  1  0  0  0  0
 13 17  2  0  0  0  0
 14 16  1  0  0  0  0
 14 18  2  0  0  0  0
 19 21  2  0  0  0  0
 20 21  2  0  0  0  0
  1 22  1  0  0  0  0
  2 23  1  0  0  0  0
  3 24  1  0  0  0  0
  4 25  1  0  0  0  0
  5 26  1  0  0  0  0
  6 27  1  0  0  0  0
  7 28  1  0  0  0  0
  8 29  1  0  0  0  0
 15 30  1  0  0  0  0
 15 31  1  0  0  0  0
 15 32  1  0  0  0  0
M  CHG  1  16  -1
M  END
> <paper/assay>
https://pubchem.ncbi.nlm.nih.gov/bioassay/269112

> <IC50 (um)>
16

> <real_space>
FALSE

> <SCR>
FALSE

> <BB>
FALSE

> <molport_or_mcule>
FALSE

> <PDB>
FALSE

> <Hybrid2>
-7.398745

> <docked_fragment>
x1077

> <Mpro-_dock>
0.626038

> <site>
active-noncovalent

$$$$
disulfiram
  -OEChem-04162001263D

 36 35  0     0  0  0  0  0  0999 V2000
   11.5065    3.6054   22.9202 C   0  0  0  0  0  0  0  0  0  0  0  0
   11.6770   -0.3645   23.9170 C   0  0  0  0  0  0  0  0  0  0  0  0
   12.6661    6.0480   24.8743 C   0  0  0  0  0  0  0  0  0  0  0  0
   13.9022    4.7168   20.9231 C   0  0  0  0  0  0  0  0  0  0  0  0
   10.2027   -1.8656   21.6636 C   0  0  0  0  0  0  0  0  0  0  0  0
   13.8995   -1.1675   21.6037 C   0  0  0  0  0  0  0  0  0  0  0  0
   12.2877    5.9691   23.4344 C   0  0  0  0  0  0  0  0  0  0  0  0
   13.8360    4.3910   22.3764 C   0  0  0  0  0  0  0  0  0  0  0  0
   11.1449   -2.4931   22.6337 C   0  0  0  0  0  0  0  0  0  0  0  0
   13.4796   -1.7922   22.8906 C   0  0  0  0  0  0  0  0  0  0  0  0
   12.4895    4.6158   22.9078 N   0  0  0  0  0  0  0  0  0  0  0  0
   12.0742   -1.5021   23.1852 N   0  0  0  0  0  0  0  0  0  0  0  0
    9.9395    3.7697   23.5361 S   0  0  0  0  0  0  0  0  0  0  0  0
   10.2968   -0.2570   24.8890 S   0  0  0  0  0  0  0  0  0  0  0  0
   11.9634    2.0491   22.1939 S   0  0  0  0  0  0  0  0  0  0  0  0
   12.7478    1.0506   23.8194 S   0  0  0  0  0  0  0  0  0  0  0  0
   13.7256    5.7763   24.9909 H   0  0  0  0  0  0  0  0  0  0  0  0
   12.5084    7.0738   25.2390 H   0  0  0  0  0  0  0  0  0  0  0  0
   12.0431    5.3524   25.4556 H   0  0  0  0  0  0  0  0  0  0  0  0
   13.6324    5.7723   20.7708 H   0  0  0  0  0  0  0  0  0  0  0  0
   14.9239    4.5428   20.5546 H   0  0  0  0  0  0  0  0  0  0  0  0
   13.1992    4.0755   20.3713 H   0  0  0  0  0  0  0  0  0  0  0  0
   10.7723   -1.4151   20.8374 H   0  0  0  0  0  0  0  0  0  0  0  0
    9.5227   -2.6326   21.2646 H   0  0  0  0  0  0  0  0  0  0  0  0
    9.6174   -1.0859   22.1731 H   0  0  0  0  0  0  0  0  0  0  0  0
   13.7675   -0.0772   21.6645 H   0  0  0  0  0  0  0  0  0  0  0  0
   14.9578   -1.3985   21.4123 H   0  0  0  0  0  0  0  0  0  0  0  0
   13.2831   -1.5662   20.7844 H   0  0  0  0  0  0  0  0  0  0  0  0
   11.2276    6.2421   23.3263 H   0  0  0  0  0  0  0  0  0  0  0  0
   12.9081    6.6737   22.8610 H   0  0  0  0  0  0  0  0  0  0  0  0
   14.1070    3.3346   22.5202 H   0  0  0  0  0  0  0  0  0  0  0  0
   14.5479    5.0294   22.9203 H   0  0  0  0  0  0  0  0  0  0  0  0
   10.5679   -2.9409   23.4562 H   0  0  0  0  0  0  0  0  0  0  0  0
   11.7199   -3.2774   22.1197 H   0  0  0  0  0  0  0  0  0  0  0  0
   13.6145   -2.8817   22.8217 H   0  0  0  0  0  0  0  0  0  0  0  0
   14.1060   -1.3958   23.7033 H   0  0  0  0  0  0  0  0  0  0  0  0
  1 11  1  0  0  0  0
  1 13  2  0  0  0  0
  1 15  1  0  0  0  0
  2 12  1  0  0  0  0
  2 14  2  0  0  0  0
  2 16  1  0  0  0  0
  3  7  1  0  0  0  0
  4  8  1  0  0  0  0
  5  9  1  0  0  0  0
  6 10  1  0  0  0  0
  7 11  1  0  0  0  0
  8 11  1  0  0  0  0
  9 12  1  0  0  0  0
 10 12  1  0  0  0  0
 15 16  1  0  0  0  0
  3 17  1  0  0  0  0
  3 18  1  0  0  0  0
  3 19  1  0  0  0  0
  4 20  1  0  0  0  0
  4 21  1  0  0  0  0
  4 22  1  0  0  0  0
  5 23  1  0  0  0  0
  5 24  1  0  0  0  0
  5 25  1  0  0  0  0
  6 26  1  0  0  0  0
  6 27  1  0  0  0  0
  6 28  1  0  0  0  0
  7 29  1  0  0  0  0
  7 30  1  0  0  0  0
  8 31  1  0  0  0  0
  8 32  1  0  0  0  0
  9 33  1  0  0  0  0
  9 34  1  0  0  0  0
 10 35  1  0  0  0  0
 10 36  1  0  0  0  0
M  END
> <paper/assay>
https://www.nature.com/articles/s41586-020-2223-y

> <IC50 (um)>
9.35

> <real_space>
FALSE

> <SCR>
Z104473910

> <BB>
EN300-19458

> <molport_or_mcule>
['https://mcule.com/MCULE-1443050857/', 'https://mcule.com/MCULE-1443050857/', 'http://www.sigmaaldrich.com/catalog/search?term=1224008
USP&interface=All&N=0&mode=match%20partialmax&lang=en&region=US&focus=product', 'http://www.sigmaaldrich.com/catalog/search?term=86720
ALDRICH&interface=All&N=0&mode=match%20partialmax&lang=en&region=US&focus=product', 'http://www.sigmaaldrich.com/catalog/search?term=D2950000
SIAL&interface=All&N=0&mode=match%20partialmax&lang=en&region=US&focus=product', 'http://www.sigmaaldrich.com/catalog/search?term=PHR1690
SIAL&interface=All&N=0&mode=match%20partialmax&lang=en&region=US&focus=product', 'http://www.sigmaaldrich.com/catalog/search?term=1224008&interface=All&N=0&mode=match%20partialmax&lang=en&region=US&focus=product', 'http://www.sigmaaldrich.com/catalog/search?term=86720&interface=All&N=0&mode=match%20partialmax&lang=en&region=US&focus=product', 'http://www.sigmaaldrich.com/catalog/search?term=BP132&interface=All&N=0&mode=match%20partialmax&lang=en&region=US&focus=product', 'http://www.sigmaaldrich.com/catalog/search?term=D2950000&interface=All&N=0&mode=match%20partialmax&lang=en&region=US&focus=product', 'http://www.sigmaaldrich.com/catalog/search?term=PHR1690&interface=All&N=0&mode=match%20partialmax&lang=en&region=US&focus=product', 'https://www.molport.com/shop/molecule-link/MolPort-001-792-519', 'https://www.molport.com/shop/molecule-link/MolPort-001-792-519']

> <PDB>
FALSE

> <Hybrid2>
-7.349272

> <docked_fragment>
x0195

> <Mpro-_dock>
0.066822

> <site>
active-noncovalent

$$$$
3859741
  -OEChem-04162001263D

 41 43  0     1  0  0  0  0  0999 V2000
    7.9545   -5.0850   25.4815 C   0  0  0  0  0  0  0  0  0  0  0  0
    6.2827   -0.3017   21.5093 C   0  0  0  0  0  0  0  0  0  0  0  0
    5.1105    0.2410   20.9830 C   0  0  0  0  0  0  0  0  0  0  0  0
    8.0700   -4.4123   24.2308 C   0  0  0  0  0  0  0  0  0  0  0  0
    7.3946    0.0472   19.3929 C   0  0  0  0  0  0  0  0  0  0  0  0
    8.2620   -4.2616   26.5422 C   0  0  0  0  0  0  0  0  0  0  0  0
    7.4248   -0.3985   20.7143 C   0  0  0  0  0  0  0  0  0  0  0  0
    5.0803    0.6866   19.6616 C   0  0  0  0  0  0  0  0  0  0  0  0
    6.2224    0.5898   18.8665 C   0  0  0  0  0  0  0  0  0  0  0  0
    8.4611   -3.1001   24.3833 C   0  0  0  0  0  0  0  0  0  0  0  0
    8.6920   -2.0741   23.3428 C   0  0  0  0  0  0  0  0  0  0  0  0
    9.7108    1.0747   22.3511 C   0  0  0  0  0  0  0  0  0  0  0  0
    8.5093   -2.3764   21.8755 C   0  0  0  0  0  0  0  0  0  0  0  0
    8.7004   -0.9861   21.2875 C   0  0  2  0  0  0  0  0  0  0  0  0
    6.5597    2.3824   17.3406 C   0  0  0  0  0  0  0  0  0  0  0  0
   10.1252    1.6807   23.6696 C   0  0  0  0  0  0  0  0  0  0  0  0
    3.4052    2.3693   19.8030 C   0  0  0  0  0  0  0  0  0  0  0  0
    9.0886   -0.8669   23.6108 N   0  0  0  0  0  0  0  0  0  0  0  0
    9.1717   -0.1959   22.4256 N   0  0  0  0  0  0  0  0  0  0  0  0
    9.8597    1.7000   21.3002 O   0  0  0  0  0  0  0  0  0  0  0  0
    6.2048    1.0209   17.5744 O   0  0  0  0  0  0  0  0  0  0  0  0
    3.9291    1.2145   19.1594 O   0  0  0  0  0  0  0  0  0  0  0  0
    3.1502    2.0366   21.0948 F   0  0  0  0  0  0  0  0  0  0  0  0
    4.3585    3.3327   19.8341 F   0  0  0  0  0  0  0  0  0  0  0  0
    8.6877   -2.6844   26.0289 S   0  0  0  0  0  0  0  0  0  0  0  0
    8.7346    2.5764   24.2700 Cl  0  0  0  0  0  0  0  0  0  0  0  0
    7.6620   -6.1205   25.5971 H   0  0  0  0  0  0  0  0  0  0  0  0
    6.2975   -0.6448   22.5403 H   0  0  0  0  0  0  0  0  0  0  0  0
    4.2244    0.3130   21.6076 H   0  0  0  0  0  0  0  0  0  0  0  0
    7.8743   -4.8726   23.2704 H   0  0  0  0  0  0  0  0  0  0  0  0
    8.2837   -0.0266   18.7712 H   0  0  0  0  0  0  0  0  0  0  0  0
    8.2578   -4.5114   27.5938 H   0  0  0  0  0  0  0  0  0  0  0  0
    9.3041   -3.0608   21.5619 H   0  0  0  0  0  0  0  0  0  0  0  0
    7.5300   -2.8279   21.6908 H   0  0  0  0  0  0  0  0  0  0  0  0
    9.4675   -0.9659   20.4937 H   0  0  0  0  0  0  0  0  0  0  0  0
    6.5048    2.5953   16.2702 H   0  0  0  0  0  0  0  0  0  0  0  0
    7.5730    2.5640   17.7076 H   0  0  0  0  0  0  0  0  0  0  0  0
    5.8595    3.0290   17.8747 H   0  0  0  0  0  0  0  0  0  0  0  0
   10.9572    2.3539   23.4996 H   0  0  0  0  0  0  0  0  0  0  0  0
   10.3801    0.8828   24.3569 H   0  0  0  0  0  0  0  0  0  0  0  0
    2.4802    2.7400   19.3485 H   0  0  0  0  0  0  0  0  0  0  0  0
  1  4  1  0  0  0  0
  1  6  2  0  0  0  0
  2  3  2  0  0  0  0
  2  7  1  0  0  0  0
  3  8  1  0  0  0  0
  4 10  2  0  0  0  0
  5  7  2  0  0  0  0
  5  9  1  0  0  0  0
  6 25  1  0  0  0  0
  7 14  1  0  0  0  0
  8  9  2  0  0  0  0
  8 22  1  0  0  0  0
  9 21  1  0  0  0  0
 10 11  1  0  0  0  0
 10 25  1  0  0  0  0
 11 13  1  0  0  0  0
 11 18  2  0  0  0  0
 12 16  1  0  0  0  0
 12 19  1  0  0  0  0
 12 20  2  0  0  0  0
 13 14  1  0  0  0  0
 14 19  1  0  0  0  0
 15 21  1  0  0  0  0
 16 26  1  0  0  0  0
 17 22  1  0  0  0  0
 17 23  1  0  0  0  0
 17 24  1  0  0  0  0
 18 19  1  0  0  0  0
  1 27  1  0  0  0  0
  2 28  1  0  0  0  0
  3 29  1  0  0  0  0
  4 30  1  0  0  0  0
  5 31  1  0  0  0  0
  6 32  1  0  0  0  0
 13 33  1  0  0  0  0
 13 34  1  0  0  0  0
 14 35  1  0  0  0  0
 15 36  1  0  0  0  0
 15 37  1  0  0  0  0
 15 38  1  0  0  0  0
 16 39  1  0  0  0  0
 16 40  1  0  0  0  0
 17 41  1  0  0  0  0
M  END
> <paper/assay>
https://pubchem.ncbi.nlm.nih.gov/bioassay/1890

> <IC50 (um)>
2.796

> <real_space>
FALSE

> <SCR>
FALSE

> <BB>
EN300-07548

> <molport_or_mcule>
FALSE

> <PDB>
FALSE

> <Hybrid2>
-7.336775

> <docked_fragment>
x0107

> <Mpro-_dock>
2.418988

> <site>
active-noncovalent

$$$$
px-12
  -OEChem-04162001263D

 23 23  0     1  0  0  0  0  0999 V2000
    5.3721    1.3496   19.2805 C   0  0  0  0  0  0  0  0  0  0  0  0
    5.6075    0.9949   17.9731 C   0  0  0  0  0  0  0  0  0  0  0  0
    7.2907    0.4279   19.2777 C   0  0  0  0  0  0  0  0  0  0  0  0
   12.4702   -1.0301   22.8560 C   0  0  0  0  0  0  0  0  0  0  0  0
    9.8436   -2.4907   23.3125 C   0  0  0  0  0  0  0  0  0  0  0  0
   11.1047   -0.4799   22.4621 C   0  0  0  0  0  0  0  0  0  0  0  0
   10.0720   -1.5641   22.1204 C   0  0  2  0  0  0  0  0  0  0  0  0
    6.4237    0.9942   20.0875 N   0  0  0  0  0  0  0  0  0  0  0  0
    6.8405    0.4060   17.9870 N   0  0  0  0  0  0  0  0  0  0  0  0
    8.8676   -0.2524   19.6963 S   0  0  0  0  0  0  0  0  0  0  0  0
    8.4665   -0.8446   21.6229 S   0  0  0  0  0  0  0  0  0  0  0  0
    4.4988    1.8430   19.6820 H   0  0  0  0  0  0  0  0  0  0  0  0
    5.0313    1.1027   17.0657 H   0  0  0  0  0  0  0  0  0  0  0  0
   12.4006   -1.7352   23.6891 H   0  0  0  0  0  0  0  0  0  0  0  0
   12.9163   -1.5632   22.0100 H   0  0  0  0  0  0  0  0  0  0  0  0
   13.1510   -0.2217   23.1414 H   0  0  0  0  0  0  0  0  0  0  0  0
    9.4772   -1.9207   24.1736 H   0  0  0  0  0  0  0  0  0  0  0  0
   10.7731   -2.9818   23.6216 H   0  0  0  0  0  0  0  0  0  0  0  0
    9.1009   -3.2653   23.0907 H   0  0  0  0  0  0  0  0  0  0  0  0
   11.2223    0.2206   21.6257 H   0  0  0  0  0  0  0  0  0  0  0  0
   10.7283    0.1109   23.3071 H   0  0  0  0  0  0  0  0  0  0  0  0
   10.4372   -2.1617   21.2777 H   0  0  0  0  0  0  0  0  0  0  0  0
    7.3304    0.0230   17.1896 H   0  0  0  0  0  0  0  0  0  0  0  0
  1  2  2  0  0  0  0
  1  8  1  0  0  0  0
  2  9  1  0  0  0  0
  3  8  2  0  0  0  0
  3  9  1  0  0  0  0
  3 10  1  0  0  0  0
  4  6  1  0  0  0  0
  5  7  1  0  0  0  0
  6  7  1  0  0  0  0
  7 11  1  0  0  0  0
 10 11  1  0  0  0  0
  1 12  1  0  0  0  0
  2 13  1  0  0  0  0
  4 14  1  0  0  0  0
  4 15  1  0  0  0  0
  4 16  1  0  0  0  0
  5 17  1  0  0  0  0
  5 18  1  0  0  0  0
  5 19  1  0  0  0  0
  6 20  1  0  0  0  0
  6 21  1  0  0  0  0
  7 22  1  0  0  0  0
  9 23  1  0  0  0  0
M  END
> <paper/assay>
https://www.nature.com/articles/s41586-020-2223-y

> <IC50 (um)>
21.39

> <real_space>
FALSE

> <SCR>
FALSE

> <BB>
BBV-39715926

> <molport_or_mcule>
FALSE

> <PDB>
FALSE

> <Hybrid2>
-7.296520

> <docked_fragment>
x1093

> <Mpro-_dock>
-1.530191

> <site>
active-noncovalent

$$$$
3197965
  -OEChem-04162001263D

 66 69  0     1  0  0  0  0  0999 V2000
    4.5839    1.9929   18.5854 C   0  0  0  0  0  0  0  0  0  0  0  0
    4.7867    1.8803   19.9643 C   0  0  0  0  0  0  0  0  0  0  0  0
    5.5080    1.4673   17.6729 C   0  0  0  0  0  0  0  0  0  0  0  0
    5.9174    1.2400   20.4835 C   0  0  0  0  0  0  0  0  0  0  0  0
   13.9848   -0.3482   23.3705 C   0  0  0  0  0  0  0  0  0  0  0  0
    9.9154   -3.1637   23.9054 C   0  0  0  0  0  0  0  0  0  0  0  0
    8.6704   -1.4990   25.1365 C   0  0  0  0  0  0  0  0  0  0  0  0
   14.5615   -1.1469   24.3333 C   0  0  0  0  0  0  0  0  0  0  0  0
   12.2686   -0.4880   24.9317 C   0  0  0  0  0  0  0  0  0  0  0  0
   12.6566    0.0337   23.7171 C   0  0  0  0  0  0  0  0  0  0  0  0
    9.0368   -2.8299   24.9361 C   0  0  0  0  0  0  0  0  0  0  0  0
   10.4276   -2.1666   23.0752 C   0  0  0  0  0  0  0  0  0  0  0  0
    9.1825   -0.5020   24.3063 C   0  0  0  0  0  0  0  0  0  0  0  0
    6.6457    0.8230   18.1805 C   0  0  0  0  0  0  0  0  0  0  0  0
    6.8197    0.7266   19.5543 C   0  0  0  0  0  0  0  0  0  0  0  0
   10.0611   -0.8358   23.2756 C   0  0  0  0  0  0  0  0  0  0  0  0
    9.8882    0.5587   21.2160 C   0  0  0  0  0  0  0  0  0  0  0  0
   11.3367    2.1683   23.5859 C   0  0  0  0  0  0  0  0  0  0  0  0
    8.4895   -3.8958   25.8238 C   0  0  0  0  0  0  0  0  0  0  0  0
   11.3672   -2.5554   21.9798 C   0  0  0  0  0  0  0  0  0  0  0  0
    8.7710    0.9149   24.5456 C   0  0  0  0  0  0  0  0  0  0  0  0
   10.6122    5.4772   21.9469 C   0  0  0  0  0  0  0  0  0  0  0  0
    9.4111    4.4677   23.9031 C   0  0  0  0  0  0  0  0  0  0  0  0
   11.8287    5.1027   24.1044 C   0  0  0  0  0  0  0  0  0  0  0  0
    8.6973   -0.3355   20.9011 C   0  0  0  0  0  0  0  0  0  0  0  0
   11.7782    0.9076   22.8522 C   0  0  2  0  0  0  0  0  0  0  0  0
   10.7501    4.5542   23.1632 C   0  0  0  0  0  0  0  0  0  0  0  0
    7.7009    0.2235   17.5453 N   0  0  0  0  0  0  0  0  0  0  0  0
    8.5284   -0.2443   18.4736 N   0  0  0  0  0  0  0  0  0  0  0  0
    8.0027    0.0562   19.6727 N   0  0  0  0  0  0  0  0  0  0  0  0
   11.1323    3.2267   22.7172 N   0  0  0  0  0  0  0  0  0  0  0  0
   10.5977    0.2094   22.4055 N   0  0  0  0  0  0  0  0  0  0  0  0
   10.1838    1.4730   20.4421 O   0  0  0  0  0  0  0  0  0  0  0  0
   11.2223    2.2223   24.8088 O   0  0  0  0  0  0  0  0  0  0  0  0
   13.5032   -1.4336   25.6486 S   0  0  0  0  0  0  0  0  0  0  0  0
    3.6948    2.4964   18.2143 H   0  0  0  0  0  0  0  0  0  0  0  0
    4.0514    2.2985   20.6474 H   0  0  0  0  0  0  0  0  0  0  0  0
    5.3424    1.5594   16.6045 H   0  0  0  0  0  0  0  0  0  0  0  0
    6.0760    1.1519   21.5520 H   0  0  0  0  0  0  0  0  0  0  0  0
   14.4951   -0.0545   22.4618 H   0  0  0  0  0  0  0  0  0  0  0  0
   10.1998   -4.2016   23.7498 H   0  0  0  0  0  0  0  0  0  0  0  0
    7.9855   -1.2402   25.9405 H   0  0  0  0  0  0  0  0  0  0  0  0
   15.5533   -1.5765   24.3269 H   0  0  0  0  0  0  0  0  0  0  0  0
   11.3201   -0.3625   25.4353 H   0  0  0  0  0  0  0  0  0  0  0  0
    9.1455   -4.0457   26.6901 H   0  0  0  0  0  0  0  0  0  0  0  0
    7.4869   -3.6357   26.1876 H   0  0  0  0  0  0  0  0  0  0  0  0
    8.3954   -4.8502   25.2894 H   0  0  0  0  0  0  0  0  0  0  0  0
   10.8093   -2.7771   21.0632 H   0  0  0  0  0  0  0  0  0  0  0  0
   12.0827   -1.7516   21.7690 H   0  0  0  0  0  0  0  0  0  0  0  0
   11.9525   -3.4405   22.2569 H   0  0  0  0  0  0  0  0  0  0  0  0
    9.4628    1.3971   25.2453 H   0  0  0  0  0  0  0  0  0  0  0  0
    8.7627    1.4873   23.6103 H   0  0  0  0  0  0  0  0  0  0  0  0
    7.7579    0.9671   24.9621 H   0  0  0  0  0  0  0  0  0  0  0  0
   11.5589    5.5556   21.3997 H   0  0  0  0  0  0  0  0  0  0  0  0
    9.8509    5.1084   21.2506 H   0  0  0  0  0  0  0  0  0  0  0  0
   10.3289    6.4916   22.2510 H   0  0  0  0  0  0  0  0  0  0  0  0
    9.4848    3.8119   24.7785 H   0  0  0  0  0  0  0  0  0  0  0  0
    8.6276    4.0567   23.2559 H   0  0  0  0  0  0  0  0  0  0  0  0
    9.0811    5.4541   24.2475 H   0  0  0  0  0  0  0  0  0  0  0  0
   11.9485    4.4606   24.9847 H   0  0  0  0  0  0  0  0  0  0  0  0
   12.7997    5.1708   23.6016 H   0  0  0  0  0  0  0  0  0  0  0  0
   11.5664    6.1035   24.4668 H   0  0  0  0  0  0  0  0  0  0  0  0
    9.0258   -1.3723   20.7717 H   0  0  0  0  0  0  0  0  0  0  0  0
    7.9643   -0.2855   21.7136 H   0  0  0  0  0  0  0  0  0  0  0  0
   12.3076    1.1969   21.9363 H   0  0  0  0  0  0  0  0  0  0  0  0
   11.2509    3.0917   21.7205 H   0  0  0  0  0  0  0  0  0  0  0  0
  1  2  1  0  0  0  0
  1  3  2  0  0  0  0
  2  4  2  0  0  0  0
  3 14  1  0  0  0  0
  4 15  1  0  0  0  0
  5  8  2  0  0  0  0
  5 10  1  0  0  0  0
  6 11  1  0  0  0  0
  6 12  2  0  0  0  0
  7 11  2  0  0  0  0
  7 13  1  0  0  0  0
  8 35  1  0  0  0  0
  9 10  2  0  0  0  0
  9 35  1  0  0  0  0
 10 26  1  0  0  0  0
 11 19  1  0  0  0  0
 12 16  1  0  0  0  0
 12 20  1  0  0  0  0
 13 16  2  0  0  0  0
 13 21  1  0  0  0  0
 14 15  2  0  0  0  0
 14 28  1  0  0  0  0
 15 30  1  0  0  0  0
 16 32  1  0  0  0  0
 17 25  1  0  0  0  0
 17 32  1  0  0  0  0
 17 33  2  0  0  0  0
 18 26  1  0  0  0  0
 18 31  1  0  0  0  0
 18 34  2  0  0  0  0
 22 27  1  0  0  0  0
 23 27  1  0  0  0  0
 24 27  1  0  0  0  0
 25 30  1  0  0  0  0
 26 32  1  0  0  0  0
 27 31  1  0  0  0  0
 28 29  2  0  0  0  0
 29 30  1  0  0  0  0
  1 36  1  0  0  0  0
  2 37  1  0  0  0  0
  3 38  1  0  0  0  0
  4 39  1  0  0  0  0
  5 40  1  0  0  0  0
  6 41  1  0  0  0  0
  7 42  1  0  0  0  0
  8 43  1  0  0  0  0
  9 44  1  0  0  0  0
 19 45  1  0  0  0  0
 19 46  1  0  0  0  0
 19 47  1  0  0  0  0
 20 48  1  0  0  0  0
 20 49  1  0  0  0  0
 20 50  1  0  0  0  0
 21 51  1  0  0  0  0
 21 52  1  0  0  0  0
 21 53  1  0  0  0  0
 22 54  1  0  0  0  0
 22 55  1  0  0  0  0
 22 56  1  0  0  0  0
 23 57  1  0  0  0  0
 23 58  1  0  0  0  0
 23 59  1  0  0  0  0
 24 60  1  0  0  0  0
 24 61  1  0  0  0  0
 24 62  1  0  0  0  0
 25 63  1  0  0  0  0
 25 64  1  0  0  0  0
 26 65  1  0  0  0  0
 31 66  1  0  0  0  0
M  END
> <paper/assay>
https://pubchem.ncbi.nlm.nih.gov/bioassay/1890

> <IC50 (um)>
2.904

> <real_space>
FALSE

> <SCR>
FALSE

> <BB>
FALSE

> <molport_or_mcule>
FALSE

> <PDB>
FALSE

> <Hybrid2>
-7.291201

> <docked_fragment>
x0678

> <Mpro-_dock>
5.063233

> <site>
active-noncovalent

$$$$
MAC-22272
  -OEChem-04162001263D

 19 21  0     0  0  0  0  0  0999 V2000
    9.6649   -5.2875   24.0577 C   0  0  0  0  0  0  0  0  0  0  0  0
    8.6070   -5.3211   23.1560 C   0  0  0  0  0  0  0  0  0  0  0  0
   10.3237   -4.0815   24.2688 C   0  0  0  0  0  0  0  0  0  0  0  0
    8.2361   -4.1538   22.4910 C   0  0  0  0  0  0  0  0  0  0  0  0
    9.9107   -2.9446   23.5766 C   0  0  0  0  0  0  0  0  0  0  0  0
    6.7558   -5.5234   21.6198 C   0  0  0  0  0  0  0  0  0  0  0  0
   11.5554   -2.0574   24.7318 C   0  0  0  0  0  0  0  0  0  0  0  0
    8.8783   -2.9761   22.6964 N   0  0  0  0  0  0  0  0  0  0  0  0
    7.1755   -4.2785   21.6134 N   0  0  0  0  0  0  0  0  0  0  0  0
   10.6211   -1.7902   23.8475 N   0  0  0  0  0  0  0  0  0  0  0  0
    5.7249   -5.9864   20.8642 N   0  0  0  0  0  0  0  0  0  0  0  0
   12.4324   -1.1397   25.2183 N   0  0  0  0  0  0  0  0  0  0  0  0
    7.5861   -6.6067   22.6565 S   0  0  0  0  0  0  0  0  0  0  0  0
   11.6443   -3.6766   25.2870 S   0  0  0  0  0  0  0  0  0  0  0  0
    9.9709   -6.1863   24.5867 H   0  0  0  0  0  0  0  0  0  0  0  0
    5.1731   -5.3626   20.2654 H   0  0  0  0  0  0  0  0  0  0  0  0
    5.3988   -6.9564   20.9346 H   0  0  0  0  0  0  0  0  0  0  0  0
   12.4432   -0.1719   24.8786 H   0  0  0  0  0  0  0  0  0  0  0  0
   13.1775   -1.4011   25.8731 H   0  0  0  0  0  0  0  0  0  0  0  0
  1  2  1  0  0  0  0
  1  3  2  0  0  0  0
  2  4  2  0  0  0  0
  2 13  1  0  0  0  0
  3  5  1  0  0  0  0
  3 14  1  0  0  0  0
  4  8  1  0  0  0  0
  4  9  1  0  0  0  0
  5  8  2  0  0  0  0
  5 10  1  0  0  0  0
  6  9  2  0  0  0  0
  6 11  1  0  0  0  0
  6 13  1  0  0  0  0
  7 10  2  0  0  0  0
  7 12  1  0  0  0  0
  7 14  1  0  0  0  0
  1 15  1  0  0  0  0
 11 16  1  0  0  0  0
 11 17  1  0  0  0  0
 12 18  1  0  0  0  0
 12 19  1  0  0  0  0
M  END
> <paper/assay>
https://doi.org/10.1016/j.chembiol.2004.08.011

> <IC50 (um)>
2.6

> <real_space>
FALSE

> <SCR>
FALSE

> <BB>
FALSE

> <molport_or_mcule>
['https://www.molport.com/shop/molecule-link/MolPort-000-927-978', 'https://mcule.com/MCULE-7598226519/']

> <PDB>
FALSE

> <Hybrid2>
-7.237694

> <docked_fragment>
x0749

> <Mpro-_dock>
0.4759

> <site>
active-covalent

$$$$
2726174
  -OEChem-04162001263D

 33 34  0     0  0  0  0  0  0999 V2000
    9.9760   -4.1256   23.4687 C   0  0  0  0  0  0  0  0  0  0  0  0
   13.3875   -0.4228   23.9137 C   0  0  0  0  0  0  0  0  0  0  0  0
   12.9379   -1.3395   22.9634 C   0  0  0  0  0  0  0  0  0  0  0  0
   12.4700    0.2645   24.7085 C   0  0  0  0  0  0  0  0  0  0  0  0
   11.5708   -1.5689   22.8078 C   0  0  0  0  0  0  0  0  0  0  0  0
   11.1030    0.0352   24.5529 C   0  0  0  0  0  0  0  0  0  0  0  0
    8.9823   -3.7703   24.4354 C   0  0  0  0  0  0  0  0  0  0  0  0
    8.5069   -4.7017   25.3517 C   0  0  0  0  0  0  0  0  0  0  0  0
    7.5411   -4.3262   26.2788 C   0  0  0  0  0  0  0  0  0  0  0  0
   10.6534   -0.8816   23.6025 C   0  0  0  0  0  0  0  0  0  0  0  0
    7.0869   -3.0176   26.2483 C   0  0  0  0  0  0  0  0  0  0  0  0
    8.4635   -2.4865   24.4873 C   0  0  0  0  0  0  0  0  0  0  0  0
    9.0304   -6.1058   25.3435 C   0  0  0  0  0  0  0  0  0  0  0  0
    6.0491   -2.5469   27.2158 C   0  0  0  0  0  0  0  0  0  0  0  0
   10.7817   -4.4137   22.6848 N   0  0  0  0  0  0  0  0  0  0  0  0
    7.5248   -2.0847   25.3733 N   0  0  0  0  0  0  0  0  0  0  0  0
    7.0340   -5.2561   27.2283 N   0  0  0  0  0  0  0  0  0  0  0  0
    7.4724   -6.4305   27.2196 O   0  0  0  0  0  0  0  0  0  0  0  0
    6.1640   -4.8734   28.0457 O   0  0  0  0  0  0  0  0  0  0  0  0
    8.2699    0.0436   23.8567 O   0  0  0  0  0  0  0  0  0  0  0  0
    8.6951   -1.6730   22.0613 O   0  0  0  0  0  0  0  0  0  0  0  0
    8.9421   -1.1666   23.4051 S   0  0  0  0  0  0  0  0  0  0  0  0
   14.4518   -0.2432   24.0350 H   0  0  0  0  0  0  0  0  0  0  0  0
   13.6518   -1.8740   22.3437 H   0  0  0  0  0  0  0  0  0  0  0  0
   12.8204    0.9787   25.4477 H   0  0  0  0  0  0  0  0  0  0  0  0
   11.2313   -2.2846   22.0638 H   0  0  0  0  0  0  0  0  0  0  0  0
   10.3971    0.5771   25.1764 H   0  0  0  0  0  0  0  0  0  0  0  0
    9.9011   -6.1850   26.0018 H   0  0  0  0  0  0  0  0  0  0  0  0
    8.2646   -6.8110   25.6835 H   0  0  0  0  0  0  0  0  0  0  0  0
    9.3226   -6.4085   24.3323 H   0  0  0  0  0  0  0  0  0  0  0  0
    6.5257   -2.1557   28.1215 H   0  0  0  0  0  0  0  0  0  0  0  0
    5.4291   -1.7564   26.7764 H   0  0  0  0  0  0  0  0  0  0  0  0
    5.3741   -3.3633   27.4991 H   0  0  0  0  0  0  0  0  0  0  0  0
  1  7  1  0  0  0  0
  1 15  3  0  0  0  0
  2  3  1  0  0  0  0
  2  4  2  0  0  0  0
  3  5  2  0  0  0  0
  4  6  1  0  0  0  0
  5 10  1  0  0  0  0
  6 10  2  0  0  0  0
  7  8  2  0  0  0  0
  7 12  1  0  0  0  0
  8  9  1  0  0  0  0
  8 13  1  0  0  0  0
  9 11  2  0  0  0  0
  9 17  1  0  0  0  0
 10 22  1  0  0  0  0
 11 14  1  0  0  0  0
 11 16  1  0  0  0  0
 12 16  2  0  0  0  0
 12 22  1  0  0  0  0
 17 18  2  0  0  0  0
 17 19  2  0  0  0  0
 20 22  2  0  0  0  0
 21 22  2  0  0  0  0
  2 23  1  0  0  0  0
  3 24  1  0  0  0  0
  4 25  1  0  0  0  0
  5 26  1  0  0  0  0
  6 27  1  0  0  0  0
 13 28  1  0  0  0  0
 13 29  1  0  0  0  0
 13 30  1  0  0  0  0
 14 31  1  0  0  0  0
 14 32  1  0  0  0  0
 14 33  1  0  0  0  0
M  END
> <paper/assay>
https://pubchem.ncbi.nlm.nih.gov/bioassay/269112

> <IC50 (um)>
13

> <real_space>
FALSE

> <SCR>
FALSE

> <BB>
FALSE

> <molport_or_mcule>
['https://www.molport.com/shop/molecule-link/MolPort-002-913-149', 'https://mcule.com/MCULE-4545886644/']

> <PDB>
FALSE

> <Hybrid2>
-7.146700

> <docked_fragment>
x0072

> <Mpro-_dock>
0.463903

> <site>
active-noncovalent

$$$$
16D
  -OEChem-04162001263D

 55 58  0     0  0  0  0  0  0999 V2000
    5.3008   -6.2206   22.7467 C   0  0  0  0  0  0  0  0  0  0  0  0
    6.1762   -6.0219   21.6747 C   0  0  0  0  0  0  0  0  0  0  0  0
    5.5156   -5.5951   23.9818 C   0  0  0  0  0  0  0  0  0  0  0  0
    7.2969   -5.1927   21.7947 C   0  0  0  0  0  0  0  0  0  0  0  0
   10.4459    2.1243   24.6643 C   0  0  0  0  0  0  0  0  0  0  0  0
   12.2645    2.3848   23.0952 C   0  0  0  0  0  0  0  0  0  0  0  0
   10.2546    0.8143   24.2250 C   0  0  0  0  0  0  0  0  0  0  0  0
   12.0731    1.0748   22.6559 C   0  0  0  0  0  0  0  0  0  0  0  0
   13.0544   -2.5859   24.3951 C   0  0  0  0  0  0  0  0  0  0  0  0
   14.2315   -2.5598   25.1103 C   0  0  0  0  0  0  0  0  0  0  0  0
   14.4179   -1.3450   22.9797 C   0  0  0  0  0  0  0  0  0  0  0  0
   13.1623   -1.8824   23.1608 C   0  0  0  0  0  0  0  0  0  0  0  0
    6.6355   -4.7614   24.1151 C   0  0  0  0  0  0  0  0  0  0  0  0
    7.4866   -4.5833   23.0331 C   0  0  0  0  0  0  0  0  0  0  0  0
   11.4509    2.9095   24.0993 C   0  0  0  0  0  0  0  0  0  0  0  0
   11.0682    0.2895   23.2209 C   0  0  0  0  0  0  0  0  0  0  0  0
   12.6018    5.1128   24.0660 C   0  0  0  0  0  0  0  0  0  0  0  0
    9.5924   -1.6746   22.7952 C   0  0  0  0  0  0  0  0  0  0  0  0
    9.3108    7.7577   23.4671 C   0  0  0  0  0  0  0  0  0  0  0  0
   12.0382   -1.7433   22.1753 C   0  0  0  0  0  0  0  0  0  0  0  0
   12.4890    6.4459   24.7985 C   0  0  0  0  0  0  0  0  0  0  0  0
    9.5839   -3.1963   22.8311 C   0  0  0  0  0  0  0  0  0  0  0  0
   11.5443    7.4247   24.1178 C   0  0  0  0  0  0  0  0  0  0  0  0
    7.0941   -4.0311   25.1795 N   0  0  0  0  0  0  0  0  0  0  0  0
    8.2019   -3.4029   24.8010 N   0  0  0  0  0  0  0  0  0  0  0  0
    8.4365   -3.7325   23.5200 N   0  0  0  0  0  0  0  0  0  0  0  0
   11.6422    4.2199   24.5382 N   0  0  0  0  0  0  0  0  0  0  0  0
   10.8696   -1.0712   22.7644 N   0  0  0  0  0  0  0  0  0  0  0  0
   13.4436    4.9210   23.1952 O   0  0  0  0  0  0  0  0  0  0  0  0
    8.5225   -1.0610   22.7634 O   0  0  0  0  0  0  0  0  0  0  0  0
   10.2341    6.8733   24.0871 O   0  0  0  0  0  0  0  0  0  0  0  0
   15.4599   -1.6895   24.2942 S   0  0  0  0  0  0  0  0  0  0  0  0
    4.4390   -6.8712   22.6208 H   0  0  0  0  0  0  0  0  0  0  0  0
    5.9827   -6.5213   20.7285 H   0  0  0  0  0  0  0  0  0  0  0  0
    4.8309   -5.7552   24.8082 H   0  0  0  0  0  0  0  0  0  0  0  0
    7.9764   -5.0376   20.9647 H   0  0  0  0  0  0  0  0  0  0  0  0
    9.8058    2.5224   25.4474 H   0  0  0  0  0  0  0  0  0  0  0  0
   13.0508    2.9877   22.6481 H   0  0  0  0  0  0  0  0  0  0  0  0
    9.4678    0.2120   24.6725 H   0  0  0  0  0  0  0  0  0  0  0  0
   12.7124    0.6765   21.8725 H   0  0  0  0  0  0  0  0  0  0  0  0
   12.1606   -3.0869   24.7448 H   0  0  0  0  0  0  0  0  0  0  0  0
   14.4287   -3.0094   26.0732 H   0  0  0  0  0  0  0  0  0  0  0  0
   14.7768   -0.7651   22.1407 H   0  0  0  0  0  0  0  0  0  0  0  0
    8.3172    7.3028   23.4610 H   0  0  0  0  0  0  0  0  0  0  0  0
    9.6344    7.9653   22.4440 H   0  0  0  0  0  0  0  0  0  0  0  0
    9.2780    8.6915   24.0333 H   0  0  0  0  0  0  0  0  0  0  0  0
   12.3583   -1.1615   21.3041 H   0  0  0  0  0  0  0  0  0  0  0  0
   11.7123   -2.7230   21.8103 H   0  0  0  0  0  0  0  0  0  0  0  0
   13.4921    6.8855   24.8456 H   0  0  0  0  0  0  0  0  0  0  0  0
   12.1469    6.2424   25.8202 H   0  0  0  0  0  0  0  0  0  0  0  0
    9.5684   -3.5991   21.8126 H   0  0  0  0  0  0  0  0  0  0  0  0
   10.4729   -3.5650   23.3540 H   0  0  0  0  0  0  0  0  0  0  0  0
   11.5034    8.3596   24.6856 H   0  0  0  0  0  0  0  0  0  0  0  0
   11.8588    7.6473   23.0932 H   0  0  0  0  0  0  0  0  0  0  0  0
   11.0219    4.5554   25.2731 H   0  0  0  0  0  0  0  0  0  0  0  0
  1  2  1  0  0  0  0
  1  3  2  0  0  0  0
  2  4  2  0  0  0  0
  3 13  1  0  0  0  0
  4 14  1  0  0  0  0
  5  7  2  0  0  0  0
  5 15  1  0  0  0  0
  6  8  1  0  0  0  0
  6 15  2  0  0  0  0
  7 16  1  0  0  0  0
  8 16  2  0  0  0  0
  9 10  2  0  0  0  0
  9 12  1  0  0  0  0
 10 32  1  0  0  0  0
 11 12  2  0  0  0  0
 11 32  1  0  0  0  0
 12 20  1  0  0  0  0
 13 14  2  0  0  0  0
 13 24  1  0  0  0  0
 14 26  1  0  0  0  0
 15 27  1  0  0  0  0
 16 28  1  0  0  0  0
 17 21  1  0  0  0  0
 17 27  1  0  0  0  0
 17 29  2  0  0  0  0
 18 22  1  0  0  0  0
 18 28  1  0  0  0  0
 18 30  2  0  0  0  0
 19 31  1  0  0  0  0
 20 28  1  0  0  0  0
 21 23  1  0  0  0  0
 22 26  1  0  0  0  0
 23 31  1  0  0  0  0
 24 25  2  0  0  0  0
 25 26  1  0  0  0  0
  1 33  1  0  0  0  0
  2 34  1  0  0  0  0
  3 35  1  0  0  0  0
  4 36  1  0  0  0  0
  5 37  1  0  0  0  0
  6 38  1  0  0  0  0
  7 39  1  0  0  0  0
  8 40  1  0  0  0  0
  9 41  1  0  0  0  0
 10 42  1  0  0  0  0
 11 43  1  0  0  0  0
 19 44  1  0  0  0  0
 19 45  1  0  0  0  0
 19 46  1  0  0  0  0
 20 47  1  0  0  0  0
 20 48  1  0  0  0  0
 21 49  1  0  0  0  0
 21 50  1  0  0  0  0
 22 51  1  0  0  0  0
 22 52  1  0  0  0  0
 23 53  1  0  0  0  0
 23 54  1  0  0  0  0
 27 55  1  0  0  0  0
M  END
> <paper/assay>
http://dx.doi.org/10.1016/j.bmcl.2013.08.112

> <IC50 (um)>
3.4

> <real_space>
FALSE

> <SCR>
FALSE

> <BB>
FALSE

> <molport_or_mcule>
FALSE

> <PDB>
FALSE

> <Hybrid2>
-7.109322

> <docked_fragment>
x0161

> <Mpro-_dock>
4.711912

> <site>
active-noncovalent

$$$$
24747373
  -OEChem-04162001263D

 50 52  0     0  0  0  0  0  0999 V2000
   14.4102   -0.7148   23.2861 C   0  0  0  0  0  0  0  0  0  0  0  0
   14.1459    0.5823   22.8372 C   0  0  0  0  0  0  0  0  0  0  0  0
   12.1461   -0.9449   24.1336 C   0  0  0  0  0  0  0  0  0  0  0  0
   11.8564    0.3607   23.6897 C   0  0  0  0  0  0  0  0  0  0  0  0
   13.4272   -1.4685   23.9245 C   0  0  0  0  0  0  0  0  0  0  0  0
   12.8609    1.0927   23.0531 C   0  0  0  0  0  0  0  0  0  0  0  0
   10.6995    1.1883   23.7318 C   0  0  0  0  0  0  0  0  0  0  0  0
   11.0183    2.3844   23.1314 C   0  0  0  0  0  0  0  0  0  0  0  0
    8.3050    1.6715   24.3293 C   0  0  0  0  0  0  0  0  0  0  0  0
   11.5106    6.0657   22.7715 C   0  0  0  0  0  0  0  0  0  0  0  0
   12.6331    5.7660   24.9696 C   0  0  0  0  0  0  0  0  0  0  0  0
   10.2933    6.5615   23.5333 C   0  0  0  0  0  0  0  0  0  0  0  0
   11.3580    6.2779   25.6179 C   0  0  0  0  0  0  0  0  0  0  0  0
    7.1600    0.9604   25.0059 C   0  0  0  0  0  0  0  0  0  0  0  0
   14.2812   -2.8697   25.8202 C   0  0  0  0  0  0  0  0  0  0  0  0
   13.7436   -2.8502   24.3921 C   0  0  0  0  0  0  0  0  0  0  0  0
   13.0427    3.3891   22.0446 C   0  0  0  0  0  0  0  0  0  0  0  0
   13.4669    4.5234   22.9682 C   0  0  0  0  0  0  0  0  0  0  0  0
   12.3240    2.3171   22.7250 N   0  0  0  0  0  0  0  0  0  0  0  0
    9.4708    0.8765   24.2707 N   0  0  0  0  0  0  0  0  0  0  0  0
   12.2686    5.1074   23.6598 N   0  3  0  0  0  0  0  0  0  0  0  0
    8.1691    2.8117   23.8978 O   0  0  0  0  0  0  0  0  0  0  0  0
   10.6882    7.1947   24.7512 O   0  0  0  0  0  0  0  0  0  0  0  0
   10.2920    3.4761   22.9237 O   0  0  0  0  0  0  0  0  0  0  0  0
   15.4019   -1.1329   23.1281 H   0  0  0  0  0  0  0  0  0  0  0  0
   14.9152    1.1645   22.3409 H   0  0  0  0  0  0  0  0  0  0  0  0
   11.3840   -1.5380   24.6322 H   0  0  0  0  0  0  0  0  0  0  0  0
   11.2217    5.5256   21.8649 H   0  0  0  0  0  0  0  0  0  0  0  0
   12.1939    6.8856   22.5247 H   0  0  0  0  0  0  0  0  0  0  0  0
   13.3244    6.5834   24.7369 H   0  0  0  0  0  0  0  0  0  0  0  0
   13.1271    5.0167   25.5956 H   0  0  0  0  0  0  0  0  0  0  0  0
    9.7604    7.3054   22.9326 H   0  0  0  0  0  0  0  0  0  0  0  0
    9.5898    5.7486   23.7496 H   0  0  0  0  0  0  0  0  0  0  0  0
   10.6802    5.4583   25.8849 H   0  0  0  0  0  0  0  0  0  0  0  0
   11.6033    6.8148   26.5396 H   0  0  0  0  0  0  0  0  0  0  0  0
    7.1817    1.1628   26.0805 H   0  0  0  0  0  0  0  0  0  0  0  0
    7.2481   -0.1181   24.8467 H   0  0  0  0  0  0  0  0  0  0  0  0
    6.2087    1.3026   24.5878 H   0  0  0  0  0  0  0  0  0  0  0  0
   15.1750   -2.2435   25.9125 H   0  0  0  0  0  0  0  0  0  0  0  0
   14.5484   -3.8882   26.1189 H   0  0  0  0  0  0  0  0  0  0  0  0
   13.5334   -2.4940   26.5269 H   0  0  0  0  0  0  0  0  0  0  0  0
   12.8476   -3.4882   24.3352 H   0  0  0  0  0  0  0  0  0  0  0  0
   14.4806   -3.3215   23.7227 H   0  0  0  0  0  0  0  0  0  0  0  0
   12.3714    3.7738   21.2672 H   0  0  0  0  0  0  0  0  0  0  0  0
   13.9065    2.9520   21.5296 H   0  0  0  0  0  0  0  0  0  0  0  0
   14.1292    4.1554   23.7571 H   0  0  0  0  0  0  0  0  0  0  0  0
   13.9565    5.3437   22.4350 H   0  0  0  0  0  0  0  0  0  0  0  0
    9.3638   -0.0612   24.6945 H   0  0  0  0  0  0  0  0  0  0  0  0
   11.6398    4.3209   23.8739 H   0  0  0  0  0  0  0  0  0  0  0  0
    9.3767    3.3825   23.2686 H   0  0  0  0  0  0  0  0  0  0  0  0
  1  2  2  0  0  0  0
  1  5  1  0  0  0  0
  2  6  1  0  0  0  0
  3  4  1  0  0  0  0
  3  5  2  0  0  0  0
  4  6  2  0  0  0  0
  4  7  1  0  0  0  0
  5 16  1  0  0  0  0
  6 19  1  0  0  0  0
  7  8  2  0  0  0  0
  7 20  1  0  0  0  0
  8 19  1  0  0  0  0
  8 24  1  0  0  0  0
  9 14  1  0  0  0  0
  9 20  1  0  0  0  0
  9 22  2  0  0  0  0
 10 12  1  0  0  0  0
 10 21  1  0  0  0  0
 11 13  1  0  0  0  0
 11 21  1  0  0  0  0
 12 23  1  0  0  0  0
 13 23  1  0  0  0  0
 15 16  1  0  0  0  0
 17 18  1  0  0  0  0
 17 19  1  0  0  0  0
 18 21  1  0  0  0  0
  1 25  1  0  0  0  0
  2 26  1  0  0  0  0
  3 27  1  0  0  0  0
 10 28  1  0  0  0  0
 10 29  1  0  0  0  0
 11 30  1  0  0  0  0
 11 31  1  0  0  0  0
 12 32  1  0  0  0  0
 12 33  1  0  0  0  0
 13 34  1  0  0  0  0
 13 35  1  0  0  0  0
 14 36  1  0  0  0  0
 14 37  1  0  0  0  0
 14 38  1  0  0  0  0
 15 39  1  0  0  0  0
 15 40  1  0  0  0  0
 15 41  1  0  0  0  0
 16 42  1  0  0  0  0
 16 43  1  0  0  0  0
 17 44  1  0  0  0  0
 17 45  1  0  0  0  0
 18 46  1  0  0  0  0
 18 47  1  0  0  0  0
 20 48  1  0  0  0  0
 21 49  1  0  0  0  0
 24 50  1  0  0  0  0
M  CHG  1  21   1
M  END
> <paper/assay>
https://pubchem.ncbi.nlm.nih.gov/bioassay/1890

> <IC50 (um)>
6.563

> <real_space>
FALSE

> <SCR>
FALSE

> <BB>
FALSE

> <molport_or_mcule>
FALSE

> <PDB>
FALSE

> <Hybrid2>
-7.091981

> <docked_fragment>
x0161

> <Mpro-_dock>
2.486733

> <site>
active-noncovalent

$$$$
24747455
  -OEChem-04162001263D

 44 46  0     0  0  0  0  0  0999 V2000
   14.2672    0.7795   22.5782 C   0  0  0  0  0  0  0  0  0  0  0  0
   14.5373   -0.5473   22.9254 C   0  0  0  0  0  0  0  0  0  0  0  0
   12.2406   -0.8896   23.6361 C   0  0  0  0  0  0  0  0  0  0  0  0
   11.9446    0.4447   23.2934 C   0  0  0  0  0  0  0  0  0  0  0  0
   12.9627    1.2468   22.7734 C   0  0  0  0  0  0  0  0  0  0  0  0
   10.7696    1.2455   23.3495 C   0  0  0  0  0  0  0  0  0  0  0  0
   13.5411   -1.3708   23.4463 C   0  0  0  0  0  0  0  0  0  0  0  0
   11.0912    2.4950   22.8718 C   0  0  0  0  0  0  0  0  0  0  0  0
    8.3391    1.6328   23.8664 C   0  0  0  0  0  0  0  0  0  0  0  0
   11.5219    6.2018   22.8569 C   0  0  0  0  0  0  0  0  0  0  0  0
   12.5471    5.7309   25.0724 C   0  0  0  0  0  0  0  0  0  0  0  0
   10.2602    6.6084   23.5991 C   0  0  0  0  0  0  0  0  0  0  0  0
   11.2326    6.1624   25.7003 C   0  0  0  0  0  0  0  0  0  0  0  0
    7.1784    0.8452   24.4203 C   0  0  0  0  0  0  0  0  0  0  0  0
   13.1426    3.6253   21.9764 C   0  0  0  0  0  0  0  0  0  0  0  0
   13.4992    4.6820   23.0137 C   0  0  0  0  0  0  0  0  0  0  0  0
   12.4160    2.4860   22.5265 N   0  0  0  0  0  0  0  0  0  0  0  0
    9.5233    0.8663   23.7970 N   0  0  0  0  0  0  0  0  0  0  0  0
   12.2580    5.1829   23.6946 N   0  3  0  0  0  0  0  0  0  0  0  0
    8.1998    2.8042   23.5297 O   0  0  0  0  0  0  0  0  0  0  0  0
   10.5846    7.1397   24.8847 O   0  0  0  0  0  0  0  0  0  0  0  0
   10.3526    3.5880   22.7229 O   0  0  0  0  0  0  0  0  0  0  0  0
   13.9482   -3.1617   23.9015 Br  0  0  0  0  0  0  0  0  0  0  0  0
   15.0471    1.4161   22.1738 H   0  0  0  0  0  0  0  0  0  0  0  0
   15.5465   -0.9259   22.7787 H   0  0  0  0  0  0  0  0  0  0  0  0
   11.4629   -1.5315   24.0417 H   0  0  0  0  0  0  0  0  0  0  0  0
   11.2869    5.7378   21.8942 H   0  0  0  0  0  0  0  0  0  0  0  0
   12.1983    7.0517   22.7148 H   0  0  0  0  0  0  0  0  0  0  0  0
   13.2309    6.5772   24.9446 H   0  0  0  0  0  0  0  0  0  0  0  0
   13.0273    4.9385   25.6545 H   0  0  0  0  0  0  0  0  0  0  0  0
    9.7401    7.3925   23.0398 H   0  0  0  0  0  0  0  0  0  0  0  0
    9.5649    5.7677   23.7104 H   0  0  0  0  0  0  0  0  0  0  0  0
   10.5607    5.3112   25.8626 H   0  0  0  0  0  0  0  0  0  0  0  0
   11.4234    6.6211   26.6756 H   0  0  0  0  0  0  0  0  0  0  0  0
    7.1438    0.9525   25.5081 H   0  0  0  0  0  0  0  0  0  0  0  0
    7.2973   -0.2133   24.1721 H   0  0  0  0  0  0  0  0  0  0  0  0
    6.2413    1.2066   23.9866 H   0  0  0  0  0  0  0  0  0  0  0  0
   12.5001    4.0647   21.2037 H   0  0  0  0  0  0  0  0  0  0  0  0
   14.0385    3.2496   21.4679 H   0  0  0  0  0  0  0  0  0  0  0  0
   14.1318    4.2580   23.7989 H   0  0  0  0  0  0  0  0  0  0  0  0
   13.9955    5.5538   22.5775 H   0  0  0  0  0  0  0  0  0  0  0  0
    9.4161   -0.1069   24.1315 H   0  0  0  0  0  0  0  0  0  0  0  0
   11.6368    4.3700   23.8096 H   0  0  0  0  0  0  0  0  0  0  0  0
    9.4237    3.4489   23.0116 H   0  0  0  0  0  0  0  0  0  0  0  0
  1  2  2  0  0  0  0
  1  5  1  0  0  0  0
  2  7  1  0  0  0  0
  3  4  1  0  0  0  0
  3  7  2  0  0  0  0
  4  5  2  0  0  0  0
  4  6  1  0  0  0  0
  5 17  1  0  0  0  0
  6  8  2  0  0  0  0
  6 18  1  0  0  0  0
  7 23  1  0  0  0  0
  8 17  1  0  0  0  0
  8 22  1  0  0  0  0
  9 14  1  0  0  0  0
  9 18  1  0  0  0  0
  9 20  2  0  0  0  0
 10 12  1  0  0  0  0
 10 19  1  0  0  0  0
 11 13  1  0  0  0  0
 11 19  1  0  0  0  0
 12 21  1  0  0  0  0
 13 21  1  0  0  0  0
 15 16  1  0  0  0  0
 15 17  1  0  0  0  0
 16 19  1  0  0  0  0
  1 24  1  0  0  0  0
  2 25  1  0  0  0  0
  3 26  1  0  0  0  0
 10 27  1  0  0  0  0
 10 28  1  0  0  0  0
 11 29  1  0  0  0  0
 11 30  1  0  0  0  0
 12 31  1  0  0  0  0
 12 32  1  0  0  0  0
 13 33  1  0  0  0  0
 13 34  1  0  0  0  0
 14 35  1  0  0  0  0
 14 36  1  0  0  0  0
 14 37  1  0  0  0  0
 15 38  1  0  0  0  0
 15 39  1  0  0  0  0
 16 40  1  0  0  0  0
 16 41  1  0  0  0  0
 18 42  1  0  0  0  0
 19 43  1  0  0  0  0
 22 44  1  0  0  0  0
M  CHG  1  19   1
M  END
> <paper/assay>
https://pubchem.ncbi.nlm.nih.gov/bioassay/1890

> <IC50 (um)>
7.582

> <real_space>
FALSE

> <SCR>
FALSE

> <BB>
FALSE

> <molport_or_mcule>
FALSE

> <PDB>
FALSE

> <Hybrid2>
-7.048366

> <docked_fragment>
x0195

> <Mpro-_dock>
1.998385

> <site>
active-noncovalent

$$$$
2775844
  -OEChem-04162001263D

 27 28  0     0  0  0  0  0  0999 V2000
    6.6986   -3.4551   26.3255 C   0  0  0  0  0  0  0  0  0  0  0  0
    8.0469   -5.3491   25.6686 C   0  0  0  0  0  0  0  0  0  0  0  0
    7.0964   -2.7731   25.1757 C   0  0  0  0  0  0  0  0  0  0  0  0
    8.4447   -4.6671   24.5187 C   0  0  0  0  0  0  0  0  0  0  0  0
   11.1912   -2.1921   23.0232 C   0  0  0  0  0  0  0  0  0  0  0  0
    9.8416   -0.2991   23.6804 C   0  0  0  0  0  0  0  0  0  0  0  0
    7.1739   -4.7432   26.5720 C   0  0  0  0  0  0  0  0  0  0  0  0
   12.2512   -0.1613   23.7909 C   0  0  0  0  0  0  0  0  0  0  0  0
    7.9694   -3.3790   24.2722 C   0  0  0  0  0  0  0  0  0  0  0  0
    9.9382   -1.6070   23.2055 C   0  0  0  0  0  0  0  0  0  0  0  0
   12.3477   -1.4692   23.3160 C   0  0  0  0  0  0  0  0  0  0  0  0
   10.9981    0.4238   23.9732 C   0  0  0  0  0  0  0  0  0  0  0  0
    6.7541   -5.4630   27.7849 C   0  0  0  0  0  0  0  0  0  0  0  0
   13.3172    0.5052   24.0600 O   0  5  0  0  0  0  0  0  0  0  0  0
    7.2073   -6.6513   27.9888 O   0  5  0  0  0  0  0  0  0  0  0  0
    5.9470   -4.8814   28.6031 O   0  0  0  0  0  0  0  0  0  0  0  0
    8.8156   -3.5420   21.8517 O   0  0  0  0  0  0  0  0  0  0  0  0
    7.4673   -1.5163   22.5074 O   0  0  0  0  0  0  0  0  0  0  0  0
    8.4677   -2.5243   22.8333 S   0  0  0  0  0  0  0  0  0  0  0  0
   14.0084   -2.3708   23.0302 Br  0  0  0  0  0  0  0  0  0  0  0  0
   10.7471    2.2073   24.6127 Br  0  0  0  0  0  0  0  0  0  0  0  0
    6.0178   -2.9738   27.0228 H   0  0  0  0  0  0  0  0  0  0  0  0
    8.4232   -6.3522   25.8517 H   0  0  0  0  0  0  0  0  0  0  0  0
    6.7191   -1.7703   24.9929 H   0  0  0  0  0  0  0  0  0  0  0  0
    9.1260   -5.1484   23.8220 H   0  0  0  0  0  0  0  0  0  0  0  0
   11.2548   -3.2132   22.6541 H   0  0  0  0  0  0  0  0  0  0  0  0
    8.8593    0.1482   23.8166 H   0  0  0  0  0  0  0  0  0  0  0  0
  1  3  2  0  0  0  0
  1  7  1  0  0  0  0
  2  4  1  0  0  0  0
  2  7  2  0  0  0  0
  3  9  1  0  0  0  0
  4  9  2  0  0  0  0
  5 10  1  0  0  0  0
  5 11  2  0  0  0  0
  6 10  2  0  0  0  0
  6 12  1  0  0  0  0
  7 13  1  0  0  0  0
  8 11  1  0  0  0  0
  8 12  2  0  0  0  0
  8 14  1  0  0  0  0
  9 19  1  0  0  0  0
 10 19  1  0  0  0  0
 11 20  1  0  0  0  0
 12 21  1  0  0  0  0
 13 15  1  0  0  0  0
 13 16  2  0  0  0  0
 17 19  2  0  0  0  0
 18 19  2  0  0  0  0
  1 22  1  0  0  0  0
  2 23  1  0  0  0  0
  3 24  1  0  0  0  0
  4 25  1  0  0  0  0
  5 26  1  0  0  0  0
  6 27  1  0  0  0  0
M  CHG  2  14  -1  15  -1
M  END
> <paper/assay>
https://pubchem.ncbi.nlm.nih.gov/bioassay/269112

> <IC50 (um)>
16

> <real_space>
FALSE

> <SCR>
FALSE

> <BB>
FALSE

> <molport_or_mcule>
['https://mcule.com/MCULE-2048710189/', 'https://www.molport.com/shop/molecule-link/MolPort-001-762-480']

> <PDB>
FALSE

> <Hybrid2>
-7.043464

> <docked_fragment>
x0072

> <Mpro-_dock>
-0.377955

> <site>
active-noncovalent

$$$$
PJ 107
  -OEChem-04162001263D

 50 53  0     0  0  0  0  0  0999 V2000
   13.7103    0.5614   22.9621 C   0  0  0  0  0  0  0  0  0  0  0  0
   13.9187   -0.4803   22.0650 C   0  0  0  0  0  0  0  0  0  0  0  0
   13.0537    5.7262   22.2237 C   0  0  0  0  0  0  0  0  0  0  0  0
   12.4973    0.6534   23.6374 C   0  0  0  0  0  0  0  0  0  0  0  0
   12.9144   -1.4276   21.8453 C   0  0  0  0  0  0  0  0  0  0  0  0
   11.6679    5.9606   22.0567 C   0  0  0  0  0  0  0  0  0  0  0  0
   13.2008    4.3625   22.3264 C   0  0  0  0  0  0  0  0  0  0  0  0
   11.4924   -0.3032   23.4109 C   0  0  0  0  0  0  0  0  0  0  0  0
   11.6911   -1.3600   22.5075 C   0  0  0  0  0  0  0  0  0  0  0  0
   11.0670    4.7233   22.0691 C   0  0  0  0  0  0  0  0  0  0  0  0
   10.2580   -0.2689   24.0533 C   0  0  0  0  0  0  0  0  0  0  0  0
    9.5840   -2.1372   22.9680 C   0  0  0  0  0  0  0  0  0  0  0  0
    8.7913    2.2144   23.0535 C   0  0  0  0  0  0  0  0  0  0  0  0
    5.8604   -4.4433   23.0715 C   0  0  0  0  0  0  0  0  0  0  0  0
    6.1840   -3.6343   21.8191 C   0  0  0  0  0  0  0  0  0  0  0  0
    7.1157   -5.0548   23.6864 C   0  0  0  0  0  0  0  0  0  0  0  0
    7.2419   -2.5673   22.0946 C   0  0  0  0  0  0  0  0  0  0  0  0
    8.1782   -3.9948   23.9711 C   0  0  0  0  0  0  0  0  0  0  0  0
    8.5146   -3.1771   22.7106 C   0  0  0  0  0  0  0  0  0  0  0  0
    9.6403    4.2735   21.9413 C   0  0  0  0  0  0  0  0  0  0  0  0
    8.3608    1.6790   24.3989 C   0  0  0  0  0  0  0  0  0  0  0  0
   10.7370   -2.2804   22.2835 N   0  0  0  0  0  0  0  0  0  0  0  0
    9.2811   -1.1734   23.8525 N   0  0  0  0  0  0  0  0  0  0  0  0
    9.1991    3.5372   23.1041 N   0  0  0  0  0  0  0  0  0  0  0  0
    8.7546    1.5196   22.0393 O   0  0  0  0  0  0  0  0  0  0  0  0
   11.9945    3.7438   22.2329 O   0  0  0  0  0  0  0  0  0  0  0  0
    9.7998    0.9920   25.2432 S   0  0  0  0  0  0  0  0  0  0  0  0
   14.4893    1.2983   23.1328 H   0  0  0  0  0  0  0  0  0  0  0  0
   14.8626   -0.5592   21.5333 H   0  0  0  0  0  0  0  0  0  0  0  0
   13.8461    6.4594   22.2645 H   0  0  0  0  0  0  0  0  0  0  0  0
   12.3718    1.4806   24.3296 H   0  0  0  0  0  0  0  0  0  0  0  0
   13.1025   -2.2324   21.1370 H   0  0  0  0  0  0  0  0  0  0  0  0
   11.1720    6.9140   21.9424 H   0  0  0  0  0  0  0  0  0  0  0  0
   14.0514    3.7106   22.4612 H   0  0  0  0  0  0  0  0  0  0  0  0
    5.3727   -3.7938   23.8090 H   0  0  0  0  0  0  0  0  0  0  0  0
    5.1468   -5.2370   22.8237 H   0  0  0  0  0  0  0  0  0  0  0  0
    6.5424   -4.3087   21.0316 H   0  0  0  0  0  0  0  0  0  0  0  0
    5.2717   -3.1586   21.4421 H   0  0  0  0  0  0  0  0  0  0  0  0
    6.8553   -5.5732   24.6161 H   0  0  0  0  0  0  0  0  0  0  0  0
    7.5263   -5.8089   23.0036 H   0  0  0  0  0  0  0  0  0  0  0  0
    7.4880   -2.0474   21.1603 H   0  0  0  0  0  0  0  0  0  0  0  0
    6.8220   -1.8103   22.7706 H   0  0  0  0  0  0  0  0  0  0  0  0
    7.8179   -3.3290   24.7669 H   0  0  0  0  0  0  0  0  0  0  0  0
    9.0832   -4.4799   24.3577 H   0  0  0  0  0  0  0  0  0  0  0  0
    8.9495   -3.8863   21.9538 H   0  0  0  0  0  0  0  0  0  0  0  0
    8.9742    5.1338   21.8140 H   0  0  0  0  0  0  0  0  0  0  0  0
    9.5087    3.6280   21.0665 H   0  0  0  0  0  0  0  0  0  0  0  0
    7.5940    0.9056   24.2997 H   0  0  0  0  0  0  0  0  0  0  0  0
    7.9408    2.5004   24.9871 H   0  0  0  0  0  0  0  0  0  0  0  0
    9.1760    4.0345   23.9892 H   0  0  0  0  0  0  0  0  0  0  0  0
  1  2  1  0  0  0  0
  1  4  2  0  0  0  0
  2  5  2  0  0  0  0
  3  6  1  0  0  0  0
  3  7  2  0  0  0  0
  4  8  1  0  0  0  0
  5  9  1  0  0  0  0
  6 10  2  0  0  0  0
  7 26  1  0  0  0  0
  8  9  1  0  0  0  0
  8 11  2  0  0  0  0
  9 22  2  0  0  0  0
 10 20  1  0  0  0  0
 10 26  1  0  0  0  0
 11 23  1  0  0  0  0
 11 27  1  0  0  0  0
 12 19  1  0  0  0  0
 12 22  1  0  0  0  0
 12 23  2  0  0  0  0
 13 21  1  0  0  0  0
 13 24  1  0  0  0  0
 13 25  2  0  0  0  0
 14 15  1  0  0  0  0
 14 16  1  0  0  0  0
 15 17  1  0  0  0  0
 16 18  1  0  0  0  0
 17 19  1  0  0  0  0
 18 19  1  0  0  0  0
 20 24  1  0  0  0  0
 21 27  1  0  0  0  0
  1 28  1  0  0  0  0
  2 29  1  0  0  0  0
  3 30  1  0  0  0  0
  4 31  1  0  0  0  0
  5 32  1  0  0  0  0
  6 33  1  0  0  0  0
  7 34  1  0  0  0  0
 14 35  1  0  0  0  0
 14 36  1  0  0  0  0
 15 37  1  0  0  0  0
 15 38  1  0  0  0  0
 16 39  1  0  0  0  0
 16 40  1  0  0  0  0
 17 41  1  0  0  0  0
 17 42  1  0  0  0  0
 18 43  1  0  0  0  0
 18 44  1  0  0  0  0
 19 45  1  0  0  0  0
 20 46  1  0  0  0  0
 20 47  1  0  0  0  0
 21 48  1  0  0  0  0
 21 49  1  0  0  0  0
 24 50  1  0  0  0  0
M  END
> <paper/assay>
https://10.1016/j.bmc.2008.01.011

> <IC50 (um)>
18.2

> <real_space>
FALSE

> <SCR>
FALSE

> <BB>
FALSE

> <molport_or_mcule>
FALSE

> <PDB>
FALSE

> <Hybrid2>
-7.018990

> <docked_fragment>
x0874

> <Mpro-_dock>
4.031721

> <site>
active-noncovalent

$$$$
70871
  -OEChem-04162001263D

 29 30  0     0  0  0  0  0  0999 V2000
    5.8874   -0.3810   19.9730 C   0  0  0  0  0  0  0  0  0  0  0  0
    5.2833    1.0314   21.8378 C   0  0  0  0  0  0  0  0  0  0  0  0
   10.8338   -0.0909   24.4858 C   0  0  0  0  0  0  0  0  0  0  0  0
   11.4380   -1.5032   22.6211 C   0  0  0  0  0  0  0  0  0  0  0  0
    6.5748   -1.2309   20.8394 C   0  0  0  0  0  0  0  0  0  0  0  0
    5.9707    0.1814   22.7042 C   0  0  0  0  0  0  0  0  0  0  0  0
    9.5133   -0.5299   24.3906 C   0  0  0  0  0  0  0  0  0  0  0  0
   10.1174   -1.9423   22.5258 C   0  0  0  0  0  0  0  0  0  0  0  0
    5.2416    0.7502   20.4722 C   0  0  0  0  0  0  0  0  0  0  0  0
   11.7962   -0.5775   23.6010 C   0  0  0  0  0  0  0  0  0  0  0  0
    6.6165   -0.9497   22.2050 C   0  0  0  0  0  0  0  0  0  0  0  0
    9.1551   -1.4556   23.4106 C   0  0  0  0  0  0  0  0  0  0  0  0
    4.5430    1.6158   19.5899 N   0  0  0  0  0  0  0  0  0  0  0  0
   13.1400   -0.1294   23.6974 N   0  0  0  0  0  0  0  0  0  0  0  0
    4.5188    1.3452   18.3648 O   0  0  0  0  0  0  0  0  0  0  0  0
    3.9684    2.6280   20.0591 O   0  0  0  0  0  0  0  0  0  0  0  0
   13.4409    0.7045   24.5855 O   0  0  0  0  0  0  0  0  0  0  0  0
   13.9905   -0.5798   22.8921 O   0  0  0  0  0  0  0  0  0  0  0  0
    6.8597   -1.8517   24.5985 O   0  0  0  0  0  0  0  0  0  0  0  0
    7.5630   -3.3385   22.6891 O   0  0  0  0  0  0  0  0  0  0  0  0
    7.4769   -2.0137   23.2896 S   0  0  0  0  0  0  0  0  0  0  0  0
    5.8640   -0.6109   18.9105 H   0  0  0  0  0  0  0  0  0  0  0  0
    4.7849    1.9101   22.2401 H   0  0  0  0  0  0  0  0  0  0  0  0
   11.0995    0.6321   25.2533 H   0  0  0  0  0  0  0  0  0  0  0  0
   12.1779   -1.8901   21.9245 H   0  0  0  0  0  0  0  0  0  0  0  0
    7.0746   -2.1093   20.4401 H   0  0  0  0  0  0  0  0  0  0  0  0
    5.9976    0.4103   23.7662 H   0  0  0  0  0  0  0  0  0  0  0  0
    8.7716   -0.1443   25.0847 H   0  0  0  0  0  0  0  0  0  0  0  0
    9.8490   -2.6630   21.7582 H   0  0  0  0  0  0  0  0  0  0  0  0
  1  5  2  0  0  0  0
  1  9  1  0  0  0  0
  2  6  1  0  0  0  0
  2  9  2  0  0  0  0
  3  7  2  0  0  0  0
  3 10  1  0  0  0  0
  4  8  1  0  0  0  0
  4 10  2  0  0  0  0
  5 11  1  0  0  0  0
  6 11  2  0  0  0  0
  7 12  1  0  0  0  0
  8 12  2  0  0  0  0
  9 13  1  0  0  0  0
 10 14  1  0  0  0  0
 11 21  1  0  0  0  0
 12 21  1  0  0  0  0
 13 15  2  0  0  0  0
 13 16  2  0  0  0  0
 14 17  2  0  0  0  0
 14 18  2  0  0  0  0
 19 21  2  0  0  0  0
 20 21  2  0  0  0  0
  1 22  1  0  0  0  0
  2 23  1  0  0  0  0
  3 24  1  0  0  0  0
  4 25  1  0  0  0  0
  5 26  1  0  0  0  0
  6 27  1  0  0  0  0
  7 28  1  0  0  0  0
  8 29  1  0  0  0  0
M  END
> <paper/assay>
https://pubchem.ncbi.nlm.nih.gov/bioassay/269112

> <IC50 (um)>
25

> <real_space>
FALSE

> <SCR>
FALSE

> <BB>
FALSE

> <molport_or_mcule>
['https://www.molport.com/shop/molecule-link/MolPort-000-513-738', 'https://mcule.com/MCULE-1622320615/', 'http://www.sigmaaldrich.com/catalog/search?term=S463582
ALDRICH&interface=All&N=0&mode=match%20partialmax&lang=en&region=US&focus=product', 'http://www.sigmaaldrich.com/catalog/search?term=R157082
ALDRICH&interface=All&N=0&mode=match%20partialmax&lang=en&region=US&focus=product', 'http://www.sigmaaldrich.com/catalog/search?term=R157082&interface=All&N=0&mode=match%20partialmax&lang=en&region=US&focus=product', 'http://www.sigmaaldrich.com/catalog/search?term=S463582&interface=All&N=0&mode=match%20partialmax&lang=en&region=US&focus=product', 'https://www.molport.com/shop/molecule-link/MolPort-000-513-738']

> <PDB>
FALSE

> <Hybrid2>
-6.932912

> <docked_fragment>
x1093

> <Mpro-_dock>
0.454652

> <site>
active-noncovalent

$$$$
2799606
  -OEChem-04162001263D

 35 36  0     0  0  0  0  0  0999 V2000
   11.0198    0.1338   23.7367 C   0  0  0  0  0  0  0  0  0  0  0  0
   12.6715    1.6471   22.8318 C   0  0  0  0  0  0  0  0  0  0  0  0
    7.6645    3.6191   23.3092 C   0  0  0  0  0  0  0  0  0  0  0  0
    7.9541    6.0569   21.9840 C   0  0  0  0  0  0  0  0  0  0  0  0
   12.1922    0.3496   23.0125 C   0  0  0  0  0  0  0  0  0  0  0  0
    6.7139    4.0198   22.3704 C   0  0  0  0  0  0  0  0  0  0  0  0
   10.3266    1.2153   24.2802 C   0  0  0  0  0  0  0  0  0  0  0  0
   11.9783    2.7287   23.3754 C   0  0  0  0  0  0  0  0  0  0  0  0
    8.7599    4.4374   23.5855 C   0  0  0  0  0  0  0  0  0  0  0  0
   10.8059    2.5128   24.0996 C   0  0  0  0  0  0  0  0  0  0  0  0
    6.8587    5.2386   21.7077 C   0  0  0  0  0  0  0  0  0  0  0  0
    8.9047    5.6562   22.9228 C   0  0  0  0  0  0  0  0  0  0  0  0
    5.5560    3.1141   22.1018 C   0  0  0  0  0  0  0  0  0  0  0  0
   12.9348   -0.8065   22.4332 C   0  0  0  0  0  0  0  0  0  0  0  0
    9.1341    0.9573   25.0126 N   0  0  0  0  0  0  0  0  0  0  0  0
   12.4965    4.0381   23.1706 N   0  0  0  0  0  0  0  0  0  0  0  0
    8.7492   -0.2283   25.1436 O   0  0  0  0  0  0  0  0  0  0  0  0
    8.5053    1.9233   25.5047 O   0  0  0  0  0  0  0  0  0  0  0  0
   13.5538    4.1740   22.5115 O   0  0  0  0  0  0  0  0  0  0  0  0
   11.8796    5.0155   23.6552 O   0  0  0  0  0  0  0  0  0  0  0  0
   10.8597    4.9803   24.9630 O   0  0  0  0  0  0  0  0  0  0  0  0
    9.1972    3.3465   25.9211 O   0  0  0  0  0  0  0  0  0  0  0  0
   12.3528   -2.0154   22.6900 F   0  0  0  0  0  0  0  0  0  0  0  0
   13.0572   -0.7522   21.0738 F   0  0  0  0  0  0  0  0  0  0  0  0
   14.2094   -0.9051   22.9117 F   0  0  0  0  0  0  0  0  0  0  0  0
    9.9315    3.8769   24.7858 S   0  0  0  0  0  0  0  0  0  0  0  0
    5.7024    5.7675   20.5403 Cl  0  0  0  0  0  0  0  0  0  0  0  0
   10.2430    6.7046   23.2274 Cl  0  0  0  0  0  0  0  0  0  0  0  0
   10.6515   -0.8807   23.8740 H   0  0  0  0  0  0  0  0  0  0  0  0
   13.5861    1.8094   22.2652 H   0  0  0  0  0  0  0  0  0  0  0  0
    7.5496    2.6677   23.8235 H   0  0  0  0  0  0  0  0  0  0  0  0
    8.0664    7.0076   21.4667 H   0  0  0  0  0  0  0  0  0  0  0  0
    4.7254    3.3507   22.7764 H   0  0  0  0  0  0  0  0  0  0  0  0
    5.2066    3.2149   21.0672 H   0  0  0  0  0  0  0  0  0  0  0  0
    5.8348    2.0630   22.2445 H   0  0  0  0  0  0  0  0  0  0  0  0
  1  5  1  0  0  0  0
  1  7  2  0  0  0  0
  2  5  2  0  0  0  0
  2  8  1  0  0  0  0
  3  6  1  0  0  0  0
  3  9  2  0  0  0  0
  4 11  1  0  0  0  0
  4 12  2  0  0  0  0
  5 14  1  0  0  0  0
  6 11  2  0  0  0  0
  6 13  1  0  0  0  0
  7 10  1  0  0  0  0
  7 15  1  0  0  0  0
  8 10  2  0  0  0  0
  8 16  1  0  0  0  0
  9 12  1  0  0  0  0
  9 26  1  0  0  0  0
 10 26  1  0  0  0  0
 11 27  1  0  0  0  0
 12 28  1  0  0  0  0
 14 23  1  0  0  0  0
 14 24  1  0  0  0  0
 14 25  1  0  0  0  0
 15 17  2  0  0  0  0
 15 18  2  0  0  0  0
 16 19  2  0  0  0  0
 16 20  2  0  0  0  0
 21 26  2  0  0  0  0
 22 26  2  0  0  0  0
  1 29  1  0  0  0  0
  2 30  1  0  0  0  0
  3 31  1  0  0  0  0
  4 32  1  0  0  0  0
 13 33  1  0  0  0  0
 13 34  1  0  0  0  0
 13 35  1  0  0  0  0
M  END
> <paper/assay>
https://pubchem.ncbi.nlm.nih.gov/bioassay/269112

> <IC50 (um)>
0.3

> <real_space>
FALSE

> <SCR>
FALSE

> <BB>
FALSE

> <molport_or_mcule>
['https://www.molport.com/shop/molecule-link/MolPort-002-891-660', 'https://mcule.com/MCULE-6111337778/', 'https://www.molport.com/shop/molecule-link/MolPort-002-891-660', 'https://mcule.com/MCULE-6111337778/']

> <PDB>
FALSE

> <Hybrid2>
-6.275576

> <docked_fragment>
x0104

> <Mpro-_dock>
2.393945

> <site>
active-noncovalent

$$$$
3
  -OEChem-04162001263D

 35 36  0     0  0  0  0  0  0999 V2000
   11.0198    0.1338   23.7367 C   0  0  0  0  0  0  0  0  0  0  0  0
   12.6715    1.6471   22.8318 C   0  0  0  0  0  0  0  0  0  0  0  0
    7.6645    3.6191   23.3092 C   0  0  0  0  0  0  0  0  0  0  0  0
    7.9541    6.0569   21.9840 C   0  0  0  0  0  0  0  0  0  0  0  0
   12.1922    0.3496   23.0125 C   0  0  0  0  0  0  0  0  0  0  0  0
    6.7139    4.0198   22.3704 C   0  0  0  0  0  0  0  0  0  0  0  0
   10.3266    1.2153   24.2802 C   0  0  0  0  0  0  0  0  0  0  0  0
   11.9783    2.7287   23.3754 C   0  0  0  0  0  0  0  0  0  0  0  0
    8.7599    4.4374   23.5855 C   0  0  0  0  0  0  0  0  0  0  0  0
   10.8059    2.5128   24.0996 C   0  0  0  0  0  0  0  0  0  0  0  0
    6.8587    5.2386   21.7077 C   0  0  0  0  0  0  0  0  0  0  0  0
    8.9047    5.6562   22.9228 C   0  0  0  0  0  0  0  0  0  0  0  0
    5.5560    3.1141   22.1018 C   0  0  0  0  0  0  0  0  0  0  0  0
   12.9348   -0.8065   22.4332 C   0  0  0  0  0  0  0  0  0  0  0  0
    9.1341    0.9573   25.0126 N   0  0  0  0  0  0  0  0  0  0  0  0
   12.4965    4.0381   23.1706 N   0  0  0  0  0  0  0  0  0  0  0  0
    8.7492   -0.2283   25.1436 O   0  0  0  0  0  0  0  0  0  0  0  0
    8.5053    1.9233   25.5047 O   0  0  0  0  0  0  0  0  0  0  0  0
   13.5538    4.1740   22.5115 O   0  0  0  0  0  0  0  0  0  0  0  0
   11.8796    5.0155   23.6552 O   0  0  0  0  0  0  0  0  0  0  0  0
   10.8597    4.9803   24.9630 O   0  0  0  0  0  0  0  0  0  0  0  0
    9.1972    3.3465   25.9211 O   0  0  0  0  0  0  0  0  0  0  0  0
   12.3528   -2.0154   22.6900 F   0  0  0  0  0  0  0  0  0  0  0  0
   13.0572   -0.7522   21.0738 F   0  0  0  0  0  0  0  0  0  0  0  0
   14.2094   -0.9051   22.9117 F   0  0  0  0  0  0  0  0  0  0  0  0
    9.9315    3.8769   24.7858 S   0  0  0  0  0  0  0  0  0  0  0  0
    5.7024    5.7675   20.5403 Cl  0  0  0  0  0  0  0  0  0  0  0  0
   10.2430    6.7046   23.2274 Cl  0  0  0  0  0  0  0  0  0  0  0  0
   10.6515   -0.8807   23.8740 H   0  0  0  0  0  0  0  0  0  0  0  0
   13.5861    1.8094   22.2652 H   0  0  0  0  0  0  0  0  0  0  0  0
    7.5496    2.6677   23.8235 H   0  0  0  0  0  0  0  0  0  0  0  0
    8.0664    7.0076   21.4667 H   0  0  0  0  0  0  0  0  0  0  0  0
    4.7254    3.3507   22.7764 H   0  0  0  0  0  0  0  0  0  0  0  0
    5.2066    3.2149   21.0672 H   0  0  0  0  0  0  0  0  0  0  0  0
    5.8348    2.0630   22.2445 H   0  0  0  0  0  0  0  0  0  0  0  0
  1  5  1  0  0  0  0
  1  7  2  0  0  0  0
  2  5  2  0  0  0  0
  2  8  1  0  0  0  0
  3  6  1  0  0  0  0
  3  9  2  0  0  0  0
  4 11  1  0  0  0  0
  4 12  2  0  0  0  0
  5 14  1  0  0  0  0
  6 11  2  0  0  0  0
  6 13  1  0  0  0  0
  7 10  1  0  0  0  0
  7 15  1  0  0  0  0
  8 10  2  0  0  0  0
  8 16  1  0  0  0  0
  9 12  1  0  0  0  0
  9 26  1  0  0  0  0
 10 26  1  0  0  0  0
 11 27  1  0  0  0  0
 12 28  1  0  0  0  0
 14 23  1  0  0  0  0
 14 24  1  0  0  0  0
 14 25  1  0  0  0  0
 15 17  2  0  0  0  0
 15 18  2  0  0  0  0
 16 19  2  0  0  0  0
 16 20  2  0  0  0  0
 21 26  2  0  0  0  0
 22 26  2  0  0  0  0
  1 29  1  0  0  0  0
  2 30  1  0  0  0  0
  3 31  1  0  0  0  0
  4 32  1  0  0  0  0
 13 33  1  0  0  0  0
 13 34  1  0  0  0  0
 13 35  1  0  0  0  0
M  END
> <paper/assay>
https://doi.org/10.1021/jm060207o

> <IC50 (um)>
0.3

> <real_space>
FALSE

> <SCR>
FALSE

> <BB>
FALSE

> <molport_or_mcule>
['https://www.molport.com/shop/molecule-link/MolPort-002-891-660', 'https://mcule.com/MCULE-6111337778/', 'https://www.molport.com/shop/molecule-link/MolPort-002-891-660', 'https://mcule.com/MCULE-6111337778/']

> <PDB>
2GZ7

> <Hybrid2>
-6.275576

> <docked_fragment>
x0104

> <Mpro-_dock>
2.393945

> <site>
active-noncovalent

$$$$
3206295
  -OEChem-04162001263D

 62 66  0     1  0  0  0  0  0999 V2000
   14.2495   -2.4545   22.5608 C   0  0  0  0  0  0  0  0  0  0  0  0
   13.0542   -2.3354   23.2764 C   0  0  0  0  0  0  0  0  0  0  0  0
    6.2171   -1.0822   24.6917 C   0  0  0  0  0  0  0  0  0  0  0  0
    5.8893   -0.5302   18.1979 C   0  0  0  0  0  0  0  0  0  0  0  0
   10.1363    6.7261   23.6078 C   0  0  0  0  0  0  0  0  0  0  0  0
    6.5803    0.2506   24.4987 C   0  0  0  0  0  0  0  0  0  0  0  0
   14.9251   -1.3221   22.0871 C   0  0  0  0  0  0  0  0  0  0  0  0
   12.4891   -1.0840   23.5460 C   0  0  0  0  0  0  0  0  0  0  0  0
    6.8589   -2.0910   23.9734 C   0  0  0  0  0  0  0  0  0  0  0  0
    5.4500    0.1965   19.3302 C   0  0  0  0  0  0  0  0  0  0  0  0
   10.6327    5.6150   24.3305 C   0  0  0  0  0  0  0  0  0  0  0  0
    8.2271   -0.4341   22.8689 C   0  0  0  0  0  0  0  0  0  0  0  0
    6.7613    0.2964   17.5283 C   0  0  0  0  0  0  0  0  0  0  0  0
    8.8899    6.3611   23.1547 C   0  0  0  0  0  0  0  0  0  0  0  0
    7.5853    0.5747   23.5873 C   0  0  0  0  0  0  0  0  0  0  0  0
   14.3691   -0.0618   22.3506 C   0  0  0  0  0  0  0  0  0  0  0  0
   13.1813    0.0248   23.0637 C   0  0  0  0  0  0  0  0  0  0  0  0
    7.8638   -1.7670   23.0619 C   0  0  0  0  0  0  0  0  0  0  0  0
    6.0851    1.4152   19.2720 C   0  0  0  0  0  0  0  0  0  0  0  0
    9.6541    4.6503   24.2677 C   0  0  0  0  0  0  0  0  0  0  0  0
   10.4840    1.6410   23.2024 C   0  0  0  0  0  0  0  0  0  0  0  0
    7.8028    2.4480   21.9263 C   0  0  0  0  0  0  0  0  0  0  0  0
    8.0701   -4.0924   22.6084 C   0  0  0  0  0  0  0  0  0  0  0  0
    6.0588    2.6299   20.1541 C   0  0  0  0  0  0  0  0  0  0  0  0
    9.5490    3.2571   24.8172 C   0  0  0  0  0  0  0  0  0  0  0  0
   11.8312    2.0625   23.7620 C   0  0  0  0  0  0  0  0  0  0  0  0
    7.9783    2.0186   23.3780 C   0  0  2  0  0  0  0  0  0  0  0  0
   14.7944    1.1980   22.0209 N   0  0  0  0  0  0  0  0  0  0  0  0
   13.9144    2.0689   22.5028 N   0  0  0  0  0  0  0  0  0  0  0  0
   12.9514    1.3689   23.1250 N   0  0  0  0  0  0  0  0  0  0  0  0
    6.4868    2.3293   21.5013 N   0  0  0  0  0  0  0  0  0  0  0  0
    9.3655    2.2673   23.7630 N   0  0  0  0  0  0  0  0  0  0  0  0
   10.4101    0.7944   22.3078 O   0  0  0  0  0  0  0  0  0  0  0  0
    8.7410    2.8153   21.2217 O   0  0  0  0  0  0  0  0  0  0  0  0
    6.8863    1.4841   18.1766 O   0  0  0  0  0  0  0  0  0  0  0  0
    8.5884    5.0973   23.5527 O   0  0  0  0  0  0  0  0  0  0  0  0
    8.4905   -2.7516   22.3614 O   0  0  0  0  0  0  0  0  0  0  0  0
   14.6623   -3.4415   22.3682 H   0  0  0  0  0  0  0  0  0  0  0  0
   12.5532   -3.2329   23.6310 H   0  0  0  0  0  0  0  0  0  0  0  0
    5.4350   -1.3344   25.4017 H   0  0  0  0  0  0  0  0  0  0  0  0
    5.6055   -1.5309   17.9060 H   0  0  0  0  0  0  0  0  0  0  0  0
   10.6258    7.6741   23.4380 H   0  0  0  0  0  0  0  0  0  0  0  0
    6.0743    1.0298   25.0627 H   0  0  0  0  0  0  0  0  0  0  0  0
   15.8521   -1.4241   21.5326 H   0  0  0  0  0  0  0  0  0  0  0  0
   11.5627   -0.9900   24.1005 H   0  0  0  0  0  0  0  0  0  0  0  0
    6.5714   -3.1272   24.1282 H   0  0  0  0  0  0  0  0  0  0  0  0
    4.7564   -0.1302   20.0918 H   0  0  0  0  0  0  0  0  0  0  0  0
   11.5857    5.5308   24.8330 H   0  0  0  0  0  0  0  0  0  0  0  0
    9.0107   -0.1845   22.1574 H   0  0  0  0  0  0  0  0  0  0  0  0
    7.3441    0.1933   16.6248 H   0  0  0  0  0  0  0  0  0  0  0  0
    8.1324    6.8599   22.5681 H   0  0  0  0  0  0  0  0  0  0  0  0
    8.6501   -4.7775   21.9853 H   0  0  0  0  0  0  0  0  0  0  0  0
    7.0055   -4.1891   22.3814 H   0  0  0  0  0  0  0  0  0  0  0  0
    8.2391   -4.3296   23.6615 H   0  0  0  0  0  0  0  0  0  0  0  0
    6.7176    3.4098   19.7569 H   0  0  0  0  0  0  0  0  0  0  0  0
    5.0504    3.0533   20.2098 H   0  0  0  0  0  0  0  0  0  0  0  0
   10.4543    2.9925   25.3744 H   0  0  0  0  0  0  0  0  0  0  0  0
    8.7044    3.1701   25.5087 H   0  0  0  0  0  0  0  0  0  0  0  0
   11.9825    3.1365   23.6085 H   0  0  0  0  0  0  0  0  0  0  0  0
   11.8790    1.8425   24.8340 H   0  0  0  0  0  0  0  0  0  0  0  0
    7.3777    2.6765   24.0177 H   0  0  0  0  0  0  0  0  0  0  0  0
    5.7782    2.0153   22.1577 H   0  0  0  0  0  0  0  0  0  0  0  0
  1  2  1  0  0  0  0
  1  7  2  0  0  0  0
  2  8  2  0  0  0  0
  3  6  1  0  0  0  0
  3  9  2  0  0  0  0
  4 10  1  0  0  0  0
  4 13  2  0  0  0  0
  5 11  1  0  0  0  0
  5 14  2  0  0  0  0
  6 15  2  0  0  0  0
  7 16  1  0  0  0  0
  8 17  1  0  0  0  0
  9 18  1  0  0  0  0
 10 19  2  0  0  0  0
 11 20  2  0  0  0  0
 12 15  1  0  0  0  0
 12 18  2  0  0  0  0
 13 35  1  0  0  0  0
 14 36  1  0  0  0  0
 15 27  1  0  0  0  0
 16 17  2  0  0  0  0
 16 28  1  0  0  0  0
 17 30  1  0  0  0  0
 18 37  1  0  0  0  0
 19 24  1  0  0  0  0
 19 35  1  0  0  0  0
 20 25  1  0  0  0  0
 20 36  1  0  0  0  0
 21 26  1  0  0  0  0
 21 32  1  0  0  0  0
 21 33  2  0  0  0  0
 22 27  1  0  0  0  0
 22 31  1  0  0  0  0
 22 34  2  0  0  0  0
 23 37  1  0  0  0  0
 24 31  1  0  0  0  0
 25 32  1  0  0  0  0
 26 30  1  0  0  0  0
 27 32  1  0  0  0  0
 28 29  2  0  0  0  0
 29 30  1  0  0  0  0
  1 38  1  0  0  0  0
  2 39  1  0  0  0  0
  3 40  1  0  0  0  0
  4 41  1  0  0  0  0
  5 42  1  0  0  0  0
  6 43  1  0  0  0  0
  7 44  1  0  0  0  0
  8 45  1  0  0  0  0
  9 46  1  0  0  0  0
 10 47  1  0  0  0  0
 11 48  1  0  0  0  0
 12 49  1  0  0  0  0
 13 50  1  0  0  0  0
 14 51  1  0  0  0  0
 23 52  1  0  0  0  0
 23 53  1  0  0  0  0
 23 54  1  0  0  0  0
 24 55  1  0  0  0  0
 24 56  1  0  0  0  0
 25 57  1  0  0  0  0
 25 58  1  0  0  0  0
 26 59  1  0  0  0  0
 26 60  1  0  0  0  0
 27 61  1  0  0  0  0
 31 62  1  0  0  0  0
M  END
> <paper/assay>
https://pubchem.ncbi.nlm.nih.gov/bioassay/1890

> <IC50 (um)>
7.755

> <real_space>
FALSE

> <SCR>
FALSE

> <BB>
FALSE

> <molport_or_mcule>
FALSE

> <PDB>
FALSE

> <Hybrid2>
-6.161955

> <docked_fragment>
x0195

> <Mpro-_dock>
7.334132

> <site>
active-noncovalent

$$$$
3191469
  -OEChem-04162001263D

 73 77  0     1  0  0  0  0  0999 V2000
    3.7013    2.1545   20.3563 C   0  0  0  0  0  0  0  0  0  0  0  0
    4.4080    1.6593   21.4565 C   0  0  0  0  0  0  0  0  0  0  0  0
   13.3499   -0.9802   21.9425 C   0  0  0  0  0  0  0  0  0  0  0  0
   12.4981    0.1600   23.8948 C   0  0  0  0  0  0  0  0  0  0  0  0
    4.1809    1.9824   19.0512 C   0  0  0  0  0  0  0  0  0  0  0  0
    5.6179    0.9749   21.2959 C   0  0  0  0  0  0  0  0  0  0  0  0
    8.6032   -1.1193   24.4764 C   0  0  0  0  0  0  0  0  0  0  0  0
    9.6246   -2.9942   23.3456 C   0  0  0  0  0  0  0  0  0  0  0  0
    9.0825   -0.2612   23.4866 C   0  0  0  0  0  0  0  0  0  0  0  0
   10.1038   -2.1362   22.3558 C   0  0  0  0  0  0  0  0  0  0  0  0
   14.1913   -1.7411   22.7540 C   0  0  0  0  0  0  0  0  0  0  0  0
   13.3395   -0.6011   24.7064 C   0  0  0  0  0  0  0  0  0  0  0  0
   12.5033   -0.0296   22.5129 C   0  0  0  0  0  0  0  0  0  0  0  0
    5.3926    1.2981   18.8766 C   0  0  0  0  0  0  0  0  0  0  0  0
    6.0717    0.8179   19.9880 C   0  0  0  0  0  0  0  0  0  0  0  0
    8.8743   -2.4858   24.4059 C   0  0  0  0  0  0  0  0  0  0  0  0
    9.8327   -0.7697   22.4263 C   0  0  0  0  0  0  0  0  0  0  0  0
   14.1861   -1.5516   24.1359 C   0  0  0  0  0  0  0  0  0  0  0  0
    7.6324   -3.0210   26.5262 C   0  0  0  0  0  0  0  0  0  0  0  0
    9.5293    0.3847   20.2372 C   0  0  0  0  0  0  0  0  0  0  0  0
   11.2961    2.1585   22.2465 C   0  0  0  0  0  0  0  0  0  0  0  0
   14.3587    6.0356   24.8859 C   0  0  0  0  0  0  0  0  0  0  0  0
   13.0499    6.0346   24.1369 C   0  0  0  0  0  0  0  0  0  0  0  0
   15.2420    5.2113   23.9736 C   0  0  0  0  0  0  0  0  0  0  0  0
   13.0220    4.6225   23.5785 C   0  0  1  0  0  0  0  0  0  0  0  0
    7.3153   -4.2410   27.3542 C   0  0  0  0  0  0  0  0  0  0  0  0
   14.9503   -2.0501   26.3321 C   0  0  0  0  0  0  0  0  0  0  0  0
    8.2654   -0.4587   20.1469 C   0  0  0  0  0  0  0  0  0  0  0  0
   12.1867    4.4858   22.3205 C   0  0  0  0  0  0  0  0  0  0  0  0
   11.5913    0.7945   21.6341 C   0  0  2  0  0  0  0  0  0  0  0  0
    6.0952    0.9837   17.7435 N   0  0  0  0  0  0  0  0  0  0  0  0
    7.1895    0.3239   18.1073 N   0  0  0  0  0  0  0  0  0  0  0  0
    7.1757    0.2251   19.4469 N   0  0  0  0  0  0  0  0  0  0  0  0
    8.3954   -3.3441   25.3960 N   0  0  0  0  0  0  0  0  0  0  0  0
   12.2143    3.1364   21.8545 N   0  0  0  0  0  0  0  0  0  0  0  0
   10.3352    0.1294   21.3886 N   0  0  0  0  0  0  0  0  0  0  0  0
    7.2326   -1.9115   26.8637 O   0  0  0  0  0  0  0  0  0  0  0  0
    9.7949    1.1812   19.3332 O   0  0  0  0  0  0  0  0  0  0  0  0
   10.3689    2.3504   23.0308 O   0  0  0  0  0  0  0  0  0  0  0  0
   14.3885    4.2763   23.2970 O   0  0  0  0  0  0  0  0  0  0  0  0
   15.0063   -2.2952   24.9277 O   0  0  0  0  0  0  0  0  0  0  0  0
    2.7641    2.6819   20.5153 H   0  0  0  0  0  0  0  0  0  0  0  0
    4.0101    1.8087   22.4573 H   0  0  0  0  0  0  0  0  0  0  0  0
   13.3606   -1.1344   20.8669 H   0  0  0  0  0  0  0  0  0  0  0  0
   11.8418    0.8985   24.3480 H   0  0  0  0  0  0  0  0  0  0  0  0
    3.6256    2.3702   18.2035 H   0  0  0  0  0  0  0  0  0  0  0  0
    6.1670    0.5905   22.1476 H   0  0  0  0  0  0  0  0  0  0  0  0
    8.0197   -0.7117   25.2979 H   0  0  0  0  0  0  0  0  0  0  0  0
    9.8415   -4.0574   23.2806 H   0  0  0  0  0  0  0  0  0  0  0  0
    8.8652    0.8020   23.5524 H   0  0  0  0  0  0  0  0  0  0  0  0
   10.6879   -2.5431   21.5346 H   0  0  0  0  0  0  0  0  0  0  0  0
   14.8484   -2.4804   22.3037 H   0  0  0  0  0  0  0  0  0  0  0  0
   13.3305   -0.4489   25.7820 H   0  0  0  0  0  0  0  0  0  0  0  0
   14.7568    7.0356   25.0764 H   0  0  0  0  0  0  0  0  0  0  0  0
   14.2366    5.5262   25.8492 H   0  0  0  0  0  0  0  0  0  0  0  0
   12.1868    6.2588   24.7698 H   0  0  0  0  0  0  0  0  0  0  0  0
   13.0874    6.7769   23.3304 H   0  0  0  0  0  0  0  0  0  0  0  0
   15.7184    5.8377   23.2120 H   0  0  0  0  0  0  0  0  0  0  0  0
   16.0212    4.6716   24.5189 H   0  0  0  0  0  0  0  0  0  0  0  0
   12.6608    3.9207   24.3398 H   0  0  0  0  0  0  0  0  0  0  0  0
    8.1006   -4.3971   28.0992 H   0  0  0  0  0  0  0  0  0  0  0  0
    7.2590   -5.1221   26.7086 H   0  0  0  0  0  0  0  0  0  0  0  0
    6.3531   -4.1103   27.8581 H   0  0  0  0  0  0  0  0  0  0  0  0
   15.6536   -2.7097   26.8462 H   0  0  0  0  0  0  0  0  0  0  0  0
   13.9347   -2.2296   26.6940 H   0  0  0  0  0  0  0  0  0  0  0  0
   15.2242   -1.0097   26.5226 H   0  0  0  0  0  0  0  0  0  0  0  0
    8.4679   -1.3877   19.6031 H   0  0  0  0  0  0  0  0  0  0  0  0
    7.9006   -0.6981   21.1516 H   0  0  0  0  0  0  0  0  0  0  0  0
   11.1637    4.7785   22.5659 H   0  0  0  0  0  0  0  0  0  0  0  0
   12.6081    5.1533   21.5660 H   0  0  0  0  0  0  0  0  0  0  0  0
   12.0405    0.9397   20.6441 H   0  0  0  0  0  0  0  0  0  0  0  0
    8.6270   -4.3384   25.2884 H   0  0  0  0  0  0  0  0  0  0  0  0
   12.9498    2.8661   21.1956 H   0  0  0  0  0  0  0  0  0  0  0  0
  1  2  1  0  0  0  0
  1  5  2  0  0  0  0
  2  6  2  0  0  0  0
  3 11  2  0  0  0  0
  3 13  1  0  0  0  0
  4 12  1  0  0  0  0
  4 13  2  0  0  0  0
  5 14  1  0  0  0  0
  6 15  1  0  0  0  0
  7  9  2  0  0  0  0
  7 16  1  0  0  0  0
  8 10  1  0  0  0  0
  8 16  2  0  0  0  0
  9 17  1  0  0  0  0
 10 17  2  0  0  0  0
 11 18  1  0  0  0  0
 12 18  2  0  0  0  0
 13 30  1  0  0  0  0
 14 15  2  0  0  0  0
 14 31  1  0  0  0  0
 15 33  1  0  0  0  0
 16 34  1  0  0  0  0
 17 36  1  0  0  0  0
 18 41  1  0  0  0  0
 19 26  1  0  0  0  0
 19 34  1  0  0  0  0
 19 37  2  0  0  0  0
 20 28  1  0  0  0  0
 20 36  1  0  0  0  0
 20 38  2  0  0  0  0
 21 30  1  0  0  0  0
 21 35  1  0  0  0  0
 21 39  2  0  0  0  0
 22 23  1  0  0  0  0
 22 24  1  0  0  0  0
 23 25  1  0  0  0  0
 24 40  1  0  0  0  0
 25 29  1  0  0  0  0
 25 40  1  0  0  0  0
 27 41  1  0  0  0  0
 28 33  1  0  0  0  0
 29 35  1  0  0  0  0
 30 36  1  0  0  0  0
 31 32  2  0  0  0  0
 32 33  1  0  0  0  0
  1 42  1  0  0  0  0
  2 43  1  0  0  0  0
  3 44  1  0  0  0  0
  4 45  1  0  0  0  0
  5 46  1  0  0  0  0
  6 47  1  0  0  0  0
  7 48  1  0  0  0  0
  8 49  1  0  0  0  0
  9 50  1  0  0  0  0
 10 51  1  0  0  0  0
 11 52  1  0  0  0  0
 12 53  1  0  0  0  0
 22 54  1  0  0  0  0
 22 55  1  0  0  0  0
 23 56  1  0  0  0  0
 23 57  1  0  0  0  0
 24 58  1  0  0  0  0
 24 59  1  0  0  0  0
 25 60  1  0  0  0  0
 26 61  1  0  0  0  0
 26 62  1  0  0  0  0
 26 63  1  0  0  0  0
 27 64  1  0  0  0  0
 27 65  1  0  0  0  0
 27 66  1  0  0  0  0
 28 67  1  0  0  0  0
 28 68  1  0  0  0  0
 29 69  1  0  0  0  0
 29 70  1  0  0  0  0
 30 71  1  0  0  0  0
 34 72  1  0  0  0  0
 35 73  1  0  0  0  0
M  END
> <paper/assay>
https://pubchem.ncbi.nlm.nih.gov/bioassay/1890

> <IC50 (um)>
9.352

> <real_space>
FALSE

> <SCR>
FALSE

> <BB>
FALSE

> <molport_or_mcule>
FALSE

> <PDB>
FALSE

> <Hybrid2>
-6.090816

> <docked_fragment>
x0678

> <Mpro-_dock>
7.479159

> <site>
active-noncovalent

$$$$
2774892
  -OEChem-04162001263D

 39 40  0     0  0  0  0  0  0999 V2000
   10.3194   -4.0921   25.5861 C   0  0  0  0  0  0  0  0  0  0  0  0
   10.5507   -4.5651   23.2282 C   0  0  0  0  0  0  0  0  0  0  0  0
   13.3575    0.9598   22.3967 C   0  0  0  0  0  0  0  0  0  0  0  0
   13.1275    1.4321   24.7549 C   0  0  0  0  0  0  0  0  0  0  0  0
   11.5530   -3.4412   25.5766 C   0  0  0  0  0  0  0  0  0  0  0  0
   11.7843   -3.9141   23.2186 C   0  0  0  0  0  0  0  0  0  0  0  0
   13.5693   -0.3878   22.6872 C   0  0  0  0  0  0  0  0  0  0  0  0
   13.3393    0.0844   25.0454 C   0  0  0  0  0  0  0  0  0  0  0  0
    9.8182   -4.6541   24.4119 C   0  0  0  0  0  0  0  0  0  0  0  0
   13.1366    1.8699   23.4305 C   0  0  0  0  0  0  0  0  0  0  0  0
   12.2854   -3.3522   24.3929 C   0  0  0  0  0  0  0  0  0  0  0  0
   13.5602   -0.8256   24.0116 C   0  0  0  0  0  0  0  0  0  0  0  0
    6.2662   -5.2377   24.1799 C   0  0  0  0  0  0  0  0  0  0  0  0
   11.3524    4.9288   23.3607 C   0  0  0  0  0  0  0  0  0  0  0  0
    5.7799   -5.8457   23.0849 C   0  0  0  0  0  0  0  0  0  0  0  0
   10.4888    5.2486   24.3391 C   0  0  0  0  0  0  0  0  0  0  0  0
    7.5262   -4.4517   24.1460 C   0  0  0  0  0  0  0  0  0  0  0  0
   11.5846    3.5205   22.9491 C   0  0  0  0  0  0  0  0  0  0  0  0
    7.5840   -3.2553   23.9014 O   0  0  0  0  0  0  0  0  0  0  0  0
   10.7153    2.7785   22.5152 O   0  0  0  0  0  0  0  0  0  0  0  0
   14.3489   -2.6231   25.7390 O   0  0  0  0  0  0  0  0  0  0  0  0
   14.6261   -3.0424   23.2695 O   0  0  0  0  0  0  0  0  0  0  0  0
    8.6142   -5.2889   24.4210 O   0  0  0  0  0  0  0  0  0  0  0  0
   12.9294    3.1850   23.1471 O   0  0  0  0  0  0  0  0  0  0  0  0
   13.8303   -2.5381   24.3810 S   0  0  0  0  0  0  0  0  0  0  0  0
    5.4777   -5.2921   25.7228 Cl  0  0  0  0  0  0  0  0  0  0  0  0
   12.2623    6.1102   22.4766 Cl  0  0  0  0  0  0  0  0  0  0  0  0
    4.2969   -6.7511   23.1085 Cl  0  0  0  0  0  0  0  0  0  0  0  0
    6.5972   -5.8249   21.5532 Cl  0  0  0  0  0  0  0  0  0  0  0  0
   10.1946    6.8936   24.8151 Cl  0  0  0  0  0  0  0  0  0  0  0  0
    9.6139    4.0580   25.2509 Cl  0  0  0  0  0  0  0  0  0  0  0  0
    9.7529   -4.1577   26.5111 H   0  0  0  0  0  0  0  0  0  0  0  0
   10.1655   -5.0009   22.3104 H   0  0  0  0  0  0  0  0  0  0  0  0
   13.3649    1.2948   21.3630 H   0  0  0  0  0  0  0  0  0  0  0  0
   12.9561    2.1363   25.5645 H   0  0  0  0  0  0  0  0  0  0  0  0
   11.9339   -3.0071   26.4970 H   0  0  0  0  0  0  0  0  0  0  0  0
   12.3469   -3.8508   22.2911 H   0  0  0  0  0  0  0  0  0  0  0  0
   13.7404   -1.0881   21.8741 H   0  0  0  0  0  0  0  0  0  0  0  0
   13.3306   -0.2460   26.0806 H   0  0  0  0  0  0  0  0  0  0  0  0
  1  5  2  0  0  0  0
  1  9  1  0  0  0  0
  2  6  1  0  0  0  0
  2  9  2  0  0  0  0
  3  7  2  0  0  0  0
  3 10  1  0  0  0  0
  4  8  1  0  0  0  0
  4 10  2  0  0  0  0
  5 11  1  0  0  0  0
  6 11  2  0  0  0  0
  7 12  1  0  0  0  0
  8 12  2  0  0  0  0
  9 23  1  0  0  0  0
 10 24  1  0  0  0  0
 11 25  1  0  0  0  0
 12 25  1  0  0  0  0
 13 15  2  0  0  0  0
 13 17  1  0  0  0  0
 13 26  1  0  0  0  0
 14 16  2  0  0  0  0
 14 18  1  0  0  0  0
 14 27  1  0  0  0  0
 15 28  1  0  0  0  0
 15 29  1  0  0  0  0
 16 30  1  0  0  0  0
 16 31  1  0  0  0  0
 17 19  2  0  0  0  0
 17 23  1  0  0  0  0
 18 20  2  0  0  0  0
 18 24  1  0  0  0  0
 21 25  2  0  0  0  0
 22 25  2  0  0  0  0
  1 32  1  0  0  0  0
  2 33  1  0  0  0  0
  3 34  1  0  0  0  0
  4 35  1  0  0  0  0
  5 36  1  0  0  0  0
  6 37  1  0  0  0  0
  7 38  1  0  0  0  0
  8 39  1  0  0  0  0
M  END
> <paper/assay>
https://pubchem.ncbi.nlm.nih.gov/bioassay/269112

> <IC50 (um)>
0.9

> <real_space>
FALSE

> <SCR>
FALSE

> <BB>
FALSE

> <molport_or_mcule>
FALSE

> <PDB>
FALSE

> <Hybrid2>
-5.738641

> <docked_fragment>
x0161

> <Mpro-_dock>
10.649827

> <site>
active-noncovalent

$$$$
4
  -OEChem-04162001263D

 39 40  0     0  0  0  0  0  0999 V2000
   10.3194   -4.0921   25.5861 C   0  0  0  0  0  0  0  0  0  0  0  0
   10.5507   -4.5651   23.2282 C   0  0  0  0  0  0  0  0  0  0  0  0
   13.3575    0.9598   22.3967 C   0  0  0  0  0  0  0  0  0  0  0  0
   13.1275    1.4321   24.7549 C   0  0  0  0  0  0  0  0  0  0  0  0
   11.5530   -3.4412   25.5766 C   0  0  0  0  0  0  0  0  0  0  0  0
   11.7843   -3.9141   23.2186 C   0  0  0  0  0  0  0  0  0  0  0  0
   13.5693   -0.3878   22.6872 C   0  0  0  0  0  0  0  0  0  0  0  0
   13.3393    0.0844   25.0454 C   0  0  0  0  0  0  0  0  0  0  0  0
    9.8182   -4.6541   24.4119 C   0  0  0  0  0  0  0  0  0  0  0  0
   13.1366    1.8699   23.4305 C   0  0  0  0  0  0  0  0  0  0  0  0
   12.2854   -3.3522   24.3929 C   0  0  0  0  0  0  0  0  0  0  0  0
   13.5602   -0.8256   24.0116 C   0  0  0  0  0  0  0  0  0  0  0  0
    6.2662   -5.2377   24.1799 C   0  0  0  0  0  0  0  0  0  0  0  0
   11.3524    4.9288   23.3607 C   0  0  0  0  0  0  0  0  0  0  0  0
    5.7799   -5.8457   23.0849 C   0  0  0  0  0  0  0  0  0  0  0  0
   10.4888    5.2486   24.3391 C   0  0  0  0  0  0  0  0  0  0  0  0
    7.5262   -4.4517   24.1460 C   0  0  0  0  0  0  0  0  0  0  0  0
   11.5846    3.5205   22.9491 C   0  0  0  0  0  0  0  0  0  0  0  0
    7.5840   -3.2553   23.9014 O   0  0  0  0  0  0  0  0  0  0  0  0
   10.7153    2.7785   22.5152 O   0  0  0  0  0  0  0  0  0  0  0  0
   14.3489   -2.6231   25.7390 O   0  0  0  0  0  0  0  0  0  0  0  0
   14.6261   -3.0424   23.2695 O   0  0  0  0  0  0  0  0  0  0  0  0
    8.6142   -5.2889   24.4210 O   0  0  0  0  0  0  0  0  0  0  0  0
   12.9294    3.1850   23.1471 O   0  0  0  0  0  0  0  0  0  0  0  0
   13.8303   -2.5381   24.3810 S   0  0  0  0  0  0  0  0  0  0  0  0
    5.4777   -5.2921   25.7228 Cl  0  0  0  0  0  0  0  0  0  0  0  0
   12.2623    6.1102   22.4766 Cl  0  0  0  0  0  0  0  0  0  0  0  0
    4.2969   -6.7511   23.1085 Cl  0  0  0  0  0  0  0  0  0  0  0  0
    6.5972   -5.8249   21.5532 Cl  0  0  0  0  0  0  0  0  0  0  0  0
   10.1946    6.8936   24.8151 Cl  0  0  0  0  0  0  0  0  0  0  0  0
    9.6139    4.0580   25.2509 Cl  0  0  0  0  0  0  0  0  0  0  0  0
    9.7529   -4.1577   26.5111 H   0  0  0  0  0  0  0  0  0  0  0  0
   10.1655   -5.0009   22.3104 H   0  0  0  0  0  0  0  0  0  0  0  0
   13.3649    1.2948   21.3630 H   0  0  0  0  0  0  0  0  0  0  0  0
   12.9561    2.1363   25.5645 H   0  0  0  0  0  0  0  0  0  0  0  0
   11.9339   -3.0071   26.4970 H   0  0  0  0  0  0  0  0  0  0  0  0
   12.3469   -3.8508   22.2911 H   0  0  0  0  0  0  0  0  0  0  0  0
   13.7404   -1.0881   21.8741 H   0  0  0  0  0  0  0  0  0  0  0  0
   13.3306   -0.2460   26.0806 H   0  0  0  0  0  0  0  0  0  0  0  0
  1  5  2  0  0  0  0
  1  9  1  0  0  0  0
  2  6  1  0  0  0  0
  2  9  2  0  0  0  0
  3  7  2  0  0  0  0
  3 10  1  0  0  0  0
  4  8  1  0  0  0  0
  4 10  2  0  0  0  0
  5 11  1  0  0  0  0
  6 11  2  0  0  0  0
  7 12  1  0  0  0  0
  8 12  2  0  0  0  0
  9 23  1  0  0  0  0
 10 24  1  0  0  0  0
 11 25  1  0  0  0  0
 12 25  1  0  0  0  0
 13 15  2  0  0  0  0
 13 17  1  0  0  0  0
 13 26  1  0  0  0  0
 14 16  2  0  0  0  0
 14 18  1  0  0  0  0
 14 27  1  0  0  0  0
 15 28  1  0  0  0  0
 15 29  1  0  0  0  0
 16 30  1  0  0  0  0
 16 31  1  0  0  0  0
 17 19  2  0  0  0  0
 17 23  1  0  0  0  0
 18 20  2  0  0  0  0
 18 24  1  0  0  0  0
 21 25  2  0  0  0  0
 22 25  2  0  0  0  0
  1 32  1  0  0  0  0
  2 33  1  0  0  0  0
  3 34  1  0  0  0  0
  4 35  1  0  0  0  0
  5 36  1  0  0  0  0
  6 37  1  0  0  0  0
  7 38  1  0  0  0  0
  8 39  1  0  0  0  0
M  END
> <paper/assay>
https://doi.org/10.1021/jm060207o

> <IC50 (um)>
0.9

> <real_space>
FALSE

> <SCR>
FALSE

> <BB>
FALSE

> <molport_or_mcule>
FALSE

> <PDB>
FALSE

> <Hybrid2>
-5.738641

> <docked_fragment>
x0161

> <Mpro-_dock>
10.649827

> <site>
active-noncovalent

$$$$
2799801
  -OEChem-04162001263D

 57 58  0     1  0  0  0  0  0999 V2000
    7.4235    6.3647   22.7300 C   0  0  0  0  0  0  0  0  0  0  0  0
    6.3292   -6.0313   28.1713 C   0  0  0  0  0  0  0  0  0  0  0  0
   11.0976    2.6149   23.4889 C   0  0  0  0  0  0  0  0  0  0  0  0
   10.1230    2.0506   21.3514 C   0  0  0  0  0  0  0  0  0  0  0  0
    8.1024   -3.3763   23.7052 C   0  0  0  0  0  0  0  0  0  0  0  0
    9.0756   -2.8113   25.8431 C   0  0  0  0  0  0  0  0  0  0  0  0
   11.4326    1.2758   23.6897 C   0  0  0  0  0  0  0  0  0  0  0  0
   10.4580    0.7115   21.5522 C   0  0  0  0  0  0  0  0  0  0  0  0
    9.1646   -2.7476   23.0555 C   0  0  0  0  0  0  0  0  0  0  0  0
   10.1379   -2.1827   25.1934 C   0  0  0  0  0  0  0  0  0  0  0  0
   10.4428    3.0023   22.3198 C   0  0  0  0  0  0  0  0  0  0  0  0
    8.0578   -3.4081   25.0990 C   0  0  0  0  0  0  0  0  0  0  0  0
   11.1128    0.3242   22.7213 C   0  0  0  0  0  0  0  0  0  0  0  0
   10.1823   -2.1509   23.7996 C   0  0  0  0  0  0  0  0  0  0  0  0
    9.3106    4.8700   22.9991 C   0  0  0  0  0  0  0  0  0  0  0  0
    7.1458   -5.2963   26.0125 C   0  0  0  0  0  0  0  0  0  0  0  0
    9.3342    7.1469   24.0786 C   0  0  0  0  0  0  0  0  0  0  0  0
    4.6717   -5.5707   26.4045 C   0  0  0  0  0  0  0  0  0  0  0  0
   12.3823    6.7231   26.0673 C   0  0  0  0  0  0  0  0  0  0  0  0
    3.0158   -5.5272   23.1362 C   0  0  0  0  0  0  0  0  0  0  0  0
   11.0851    7.3862   25.6560 C   0  0  0  0  0  0  0  0  0  0  0  0
    3.1221   -5.3146   24.6312 C   0  0  0  0  0  0  0  0  0  0  0  0
    8.8860    6.3149   22.8920 C   0  0  2  0  0  0  0  0  0  0  0  0
    6.0660   -6.0760   26.7235 C   0  0  2  0  0  0  0  0  0  0  0  0
    6.2711    6.4042   22.5990 N   0  0  0  0  0  0  0  0  0  0  0  0
    6.5382   -5.9990   29.3124 N   0  0  0  0  0  0  0  0  0  0  0  0
   10.1029    4.3505   22.1184 N   0  0  0  0  0  0  0  0  0  0  0  0
    6.9916   -4.0360   25.7508 N   0  0  0  0  0  0  0  0  0  0  0  0
    8.7450    8.1311   24.5075 O   0  0  0  0  0  0  0  0  0  0  0  0
    3.8733   -5.1471   27.2308 O   0  0  0  0  0  0  0  0  0  0  0  0
   11.6573   -1.9469   21.6502 O   0  0  0  0  0  0  0  0  0  0  0  0
   12.6457   -1.4292   23.9099 O   0  0  0  0  0  0  0  0  0  0  0  0
   10.5175    6.6607   24.5606 O   0  0  0  0  0  0  0  0  0  0  0  0
    4.4276   -5.7079   25.0664 O   0  0  0  0  0  0  0  0  0  0  0  0
   11.5319   -1.3517   22.9733 S   0  0  0  0  0  0  0  0  0  0  0  0
   11.3499    3.3491   24.2496 H   0  0  0  0  0  0  0  0  0  0  0  0
    9.6122    2.3432   20.4376 H   0  0  0  0  0  0  0  0  0  0  0  0
    7.3134   -3.8376   23.1169 H   0  0  0  0  0  0  0  0  0  0  0  0
    9.0490   -2.8306   26.9296 H   0  0  0  0  0  0  0  0  0  0  0  0
   11.9432    0.9853   24.6039 H   0  0  0  0  0  0  0  0  0  0  0  0
   10.2045   -0.0215   20.7912 H   0  0  0  0  0  0  0  0  0  0  0  0
    9.1895   -2.7294   21.9692 H   0  0  0  0  0  0  0  0  0  0  0  0
   10.9255   -1.7213   25.7828 H   0  0  0  0  0  0  0  0  0  0  0  0
    8.9184    4.2909   23.8571 H   0  0  0  0  0  0  0  0  0  0  0  0
    8.0648   -5.8464   25.7331 H   0  0  0  0  0  0  0  0  0  0  0  0
   12.2095    5.6909   26.3846 H   0  0  0  0  0  0  0  0  0  0  0  0
   13.0960    6.7229   25.2369 H   0  0  0  0  0  0  0  0  0  0  0  0
   12.8520    7.2717   26.8905 H   0  0  0  0  0  0  0  0  0  0  0  0
    3.7572   -4.9258   22.6028 H   0  0  0  0  0  0  0  0  0  0  0  0
    3.1686   -6.5818   22.8844 H   0  0  0  0  0  0  0  0  0  0  0  0
    2.0171   -5.2560   22.7780 H   0  0  0  0  0  0  0  0  0  0  0  0
   11.2649    8.4180   25.3399 H   0  0  0  0  0  0  0  0  0  0  0  0
   10.3729    7.3847   26.4866 H   0  0  0  0  0  0  0  0  0  0  0  0
    2.3780   -5.9188   25.1587 H   0  0  0  0  0  0  0  0  0  0  0  0
    2.9700   -4.2603   24.8809 H   0  0  0  0  0  0  0  0  0  0  0  0
    9.3523    6.7568   22.0025 H   0  0  0  0  0  0  0  0  0  0  0  0
    6.1064   -7.1213   26.3921 H   0  0  0  0  0  0  0  0  0  0  0  0
  1 23  1  0  0  0  0
  1 25  3  0  0  0  0
  2 24  1  0  0  0  0
  2 26  3  0  0  0  0
  3  7  2  0  0  0  0
  3 11  1  0  0  0  0
  4  8  1  0  0  0  0
  4 11  2  0  0  0  0
  5  9  2  0  0  0  0
  5 12  1  0  0  0  0
  6 10  1  0  0  0  0
  6 12  2  0  0  0  0
  7 13  1  0  0  0  0
  8 13  2  0  0  0  0
  9 14  1  0  0  0  0
 10 14  2  0  0  0  0
 11 27  1  0  0  0  0
 12 28  1  0  0  0  0
 13 35  1  0  0  0  0
 14 35  1  0  0  0  0
 15 23  1  0  0  0  0
 15 27  2  0  0  0  0
 16 24  1  0  0  0  0
 16 28  2  0  0  0  0
 17 23  1  0  0  0  0
 17 29  2  0  0  0  0
 17 33  1  0  0  0  0
 18 24  1  0  0  0  0
 18 30  2  0  0  0  0
 18 34  1  0  0  0  0
 19 21  1  0  0  0  0
 20 22  1  0  0  0  0
 21 33  1  0  0  0  0
 22 34  1  0  0  0  0
 31 35  2  0  0  0  0
 32 35  2  0  0  0  0
  3 36  1  0  0  0  0
  4 37  1  0  0  0  0
  5 38  1  0  0  0  0
  6 39  1  0  0  0  0
  7 40  1  0  0  0  0
  8 41  1  0  0  0  0
  9 42  1  0  0  0  0
 10 43  1  0  0  0  0
 15 44  1  0  0  0  0
 16 45  1  0  0  0  0
 19 46  1  0  0  0  0
 19 47  1  0  0  0  0
 19 48  1  0  0  0  0
 20 49  1  0  0  0  0
 20 50  1  0  0  0  0
 20 51  1  0  0  0  0
 21 52  1  0  0  0  0
 21 53  1  0  0  0  0
 22 54  1  0  0  0  0
 22 55  1  0  0  0  0
 23 56  1  0  0  0  0
 24 57  1  0  0  0  0
M  END
> <paper/assay>
https://pubchem.ncbi.nlm.nih.gov/bioassay/269112

> <IC50 (um)>
16

> <real_space>
FALSE

> <SCR>
FALSE

> <BB>
FALSE

> <molport_or_mcule>
FALSE

> <PDB>
FALSE

> <Hybrid2>
-5.371338

> <docked_fragment>
x0072

> <Mpro-_dock>
13.541646

> <site>
active-noncovalent

$$$$
2799800
  -OEChem-04162001263D

 73 74  0     0  0  0  0  0  0999 V2000
   10.3499    2.4816   24.7835 C   0  0  0  0  0  0  0  0  0  0  0  0
    9.7837    2.6305   22.4395 C   0  0  0  0  0  0  0  0  0  0  0  0
    9.4496   -3.7016   24.6092 C   0  0  0  0  0  0  0  0  0  0  0  0
    8.8839   -3.5541   22.2650 C   0  0  0  0  0  0  0  0  0  0  0  0
   10.9735    1.2550   24.5549 C   0  0  0  0  0  0  0  0  0  0  0  0
   10.4074    1.4040   22.2109 C   0  0  0  0  0  0  0  0  0  0  0  0
   10.3936   -2.6879   24.4452 C   0  0  0  0  0  0  0  0  0  0  0  0
    9.8278   -2.5403   22.1010 C   0  0  0  0  0  0  0  0  0  0  0  0
    9.7549    3.1693   23.7257 C   0  0  0  0  0  0  0  0  0  0  0  0
    8.6948   -4.1348   23.5191 C   0  0  0  0  0  0  0  0  0  0  0  0
   11.0023    0.7162   23.2686 C   0  0  0  0  0  0  0  0  0  0  0  0
   10.5826   -2.1072   23.1911 C   0  0  0  0  0  0  0  0  0  0  0  0
    9.9190    5.3946   23.8282 C   0  0  0  0  0  0  0  0  0  0  0  0
    6.5895   -4.7126   23.9915 C   0  0  0  0  0  0  0  0  0  0  0  0
    7.9270    6.8858   23.6140 C   0  0  0  0  0  0  0  0  0  0  0  0
    9.6073    7.2583   25.4754 C   0  0  0  0  0  0  0  0  0  0  0  0
    4.9479   -5.6407   25.6291 C   0  0  0  0  0  0  0  0  0  0  0  0
    4.3665   -5.5235   23.1642 C   0  0  0  0  0  0  0  0  0  0  0  0
    6.5503    6.1549   20.2993 C   0  0  0  0  0  0  0  0  0  0  0  0
   12.2165    6.1451   27.7921 C   0  0  0  0  0  0  0  0  0  0  0  0
    6.8701   -6.1627   28.7030 C   0  0  0  0  0  0  0  0  0  0  0  0
    1.3612   -7.5700   22.7238 C   0  0  0  0  0  0  0  0  0  0  0  0
    6.4980    6.5748   21.7528 C   0  0  0  0  0  0  0  0  0  0  0  0
   11.0052    6.9430   27.3589 C   0  0  0  0  0  0  0  0  0  0  0  0
    5.6316   -5.8690   27.8837 C   0  0  0  0  0  0  0  0  0  0  0  0
    2.3239   -6.4463   22.4043 C   0  0  0  0  0  0  0  0  0  0  0  0
    9.3792    6.7924   24.0476 C   0  0  0  0  0  0  0  0  0  0  0  0
    5.4619   -5.7015   24.2016 C   0  0  0  0  0  0  0  0  0  0  0  0
    9.1436    4.3658   23.9490 N   0  0  0  0  0  0  0  0  0  0  0  0
    7.7501   -5.1530   23.6826 N   0  0  0  0  0  0  0  0  0  0  0  0
    7.0025    7.2311   24.3380 O   0  0  0  0  0  0  0  0  0  0  0  0
    8.9122    8.0802   26.0585 O   0  0  0  0  0  0  0  0  0  0  0  0
    3.7890   -5.4056   25.9449 O   0  0  0  0  0  0  0  0  0  0  0  0
    4.3590   -4.6538   22.3026 O   0  0  0  0  0  0  0  0  0  0  0  0
   12.1941   -0.8170   21.5862 O   0  0  0  0  0  0  0  0  0  0  0  0
   12.7712   -1.0533   24.0280 O   0  0  0  0  0  0  0  0  0  0  0  0
    7.8200    6.5292   22.2990 O   0  0  0  0  0  0  0  0  0  0  0  0
   10.6873    6.6092   26.0041 O   0  0  0  0  0  0  0  0  0  0  0  0
    5.9754   -5.8912   26.4946 O   0  0  0  0  0  0  0  0  0  0  0  0
    3.4123   -6.4868   23.3328 O   0  0  0  0  0  0  0  0  0  0  0  0
   11.7827   -0.8191   22.9832 S   0  0  0  0  0  0  0  0  0  0  0  0
   10.3316    2.8930   25.7893 H   0  0  0  0  0  0  0  0  0  0  0  0
    9.3222    3.1590   21.6093 H   0  0  0  0  0  0  0  0  0  0  0  0
    9.3101   -4.1488   25.5900 H   0  0  0  0  0  0  0  0  0  0  0  0
    8.3007   -3.8857   21.4098 H   0  0  0  0  0  0  0  0  0  0  0  0
   11.4344    0.7282   25.3861 H   0  0  0  0  0  0  0  0  0  0  0  0
   10.4243    0.9936   21.2049 H   0  0  0  0  0  0  0  0  0  0  0  0
   10.9756   -2.3578   25.3015 H   0  0  0  0  0  0  0  0  0  0  0  0
    9.9667   -2.0947   21.1198 H   0  0  0  0  0  0  0  0  0  0  0  0
   10.9905    5.3107   23.5617 H   0  0  0  0  0  0  0  0  0  0  0  0
    6.3415   -3.6406   24.1165 H   0  0  0  0  0  0  0  0  0  0  0  0
    7.1900    6.8278   19.7215 H   0  0  0  0  0  0  0  0  0  0  0  0
    6.9354    5.1342   20.2060 H   0  0  0  0  0  0  0  0  0  0  0  0
    5.5470    6.1579   19.8605 H   0  0  0  0  0  0  0  0  0  0  0  0
   12.0174    5.0713   27.7348 H   0  0  0  0  0  0  0  0  0  0  0  0
   13.0792    6.3789   27.1596 H   0  0  0  0  0  0  0  0  0  0  0  0
   12.4976    6.3978   28.8199 H   0  0  0  0  0  0  0  0  0  0  0  0
    7.2743   -7.1492   28.4593 H   0  0  0  0  0  0  0  0  0  0  0  0
    7.6426   -5.4088   28.5188 H   0  0  0  0  0  0  0  0  0  0  0  0
    6.6415   -6.1293   29.7734 H   0  0  0  0  0  0  0  0  0  0  0  0
    1.8549   -8.5423   22.6405 H   0  0  0  0  0  0  0  0  0  0  0  0
    0.9636   -7.4611   23.7381 H   0  0  0  0  0  0  0  0  0  0  0  0
    0.5044   -7.5494   22.0422 H   0  0  0  0  0  0  0  0  0  0  0  0
    5.8567    5.8978   22.3250 H   0  0  0  0  0  0  0  0  0  0  0  0
    6.1138    7.5951   21.8441 H   0  0  0  0  0  0  0  0  0  0  0  0
   11.2110    8.0159   27.4186 H   0  0  0  0  0  0  0  0  0  0  0  0
   10.1440    6.7075   27.9914 H   0  0  0  0  0  0  0  0  0  0  0  0
    5.2324   -4.8811   28.1322 H   0  0  0  0  0  0  0  0  0  0  0  0
    4.8612   -6.6236   28.0682 H   0  0  0  0  0  0  0  0  0  0  0  0
    1.8240   -5.4768   22.4894 H   0  0  0  0  0  0  0  0  0  0  0  0
    2.7209   -6.5571   21.3909 H   0  0  0  0  0  0  0  0  0  0  0  0
    9.9575    7.4785   23.4130 H   0  0  0  0  0  0  0  0  0  0  0  0
    5.8664   -6.7104   24.0395 H   0  0  0  0  0  0  0  0  0  0  0  0
  1  5  2  0  0  0  0
  1  9  1  0  0  0  0
  2  6  1  0  0  0  0
  2  9  2  0  0  0  0
  3  7  2  0  0  0  0
  3 10  1  0  0  0  0
  4  8  1  0  0  0  0
  4 10  2  0  0  0  0
  5 11  1  0  0  0  0
  6 11  2  0  0  0  0
  7 12  1  0  0  0  0
  8 12  2  0  0  0  0
  9 29  1  0  0  0  0
 10 30  1  0  0  0  0
 11 41  1  0  0  0  0
 12 41  1  0  0  0  0
 13 27  1  0  0  0  0
 13 29  2  0  0  0  0
 14 28  1  0  0  0  0
 14 30  2  0  0  0  0
 15 27  1  0  0  0  0
 15 31  2  0  0  0  0
 15 37  1  0  0  0  0
 16 27  1  0  0  0  0
 16 32  2  0  0  0  0
 16 38  1  0  0  0  0
 17 28  1  0  0  0  0
 17 33  2  0  0  0  0
 17 39  1  0  0  0  0
 18 28  1  0  0  0  0
 18 34  2  0  0  0  0
 18 40  1  0  0  0  0
 19 23  1  0  0  0  0
 20 24  1  0  0  0  0
 21 25  1  0  0  0  0
 22 26  1  0  0  0  0
 23 37  1  0  0  0  0
 24 38  1  0  0  0  0
 25 39  1  0  0  0  0
 26 40  1  0  0  0  0
 35 41  2  0  0  0  0
 36 41  2  0  0  0  0
  1 42  1  0  0  0  0
  2 43  1  0  0  0  0
  3 44  1  0  0  0  0
  4 45  1  0  0  0  0
  5 46  1  0  0  0  0
  6 47  1  0  0  0  0
  7 48  1  0  0  0  0
  8 49  1  0  0  0  0
 13 50  1  0  0  0  0
 14 51  1  0  0  0  0
 19 52  1  0  0  0  0
 19 53  1  0  0  0  0
 19 54  1  0  0  0  0
 20 55  1  0  0  0  0
 20 56  1  0  0  0  0
 20 57  1  0  0  0  0
 21 58  1  0  0  0  0
 21 59  1  0  0  0  0
 21 60  1  0  0  0  0
 22 61  1  0  0  0  0
 22 62  1  0  0  0  0
 22 63  1  0  0  0  0
 23 64  1  0  0  0  0
 23 65  1  0  0  0  0
 24 66  1  0  0  0  0
 24 67  1  0  0  0  0
 25 68  1  0  0  0  0
 25 69  1  0  0  0  0
 26 70  1  0  0  0  0
 26 71  1  0  0  0  0
 27 72  1  0  0  0  0
 28 73  1  0  0  0  0
M  END
> <paper/assay>
https://pubchem.ncbi.nlm.nih.gov/bioassay/269112

> <IC50 (um)>
32

> <real_space>
FALSE

> <SCR>
FALSE

> <BB>
FALSE

> <molport_or_mcule>
['https://www.molport.com/shop/molecule-link/MolPort-002-891-809', 'https://mcule.com/MCULE-4798847033/']

> <PDB>
FALSE

> <Hybrid2>
-5.365859

> <docked_fragment>
x0305

> <Mpro-_dock>
18.409584

> <site>
active-noncovalent

$$$$
N3
  -OEChem-04162001263D

 97 99  0     1  0  0  0  0  0999 V2000
    4.3431    2.3822   20.9927 C   0  0  0  0  0  0  0  0  0  0  0  0
    5.6704    2.4093   20.5650 C   0  0  0  0  0  0  0  0  0  0  0  0
    3.8840    3.3344   21.9029 C   0  0  0  0  0  0  0  0  0  0  0  0
    6.5388    3.3885   21.0474 C   0  0  0  0  0  0  0  0  0  0  0  0
    4.7524    4.3135   22.3854 C   0  0  0  0  0  0  0  0  0  0  0  0
    2.8553   -6.5249   24.1140 C   0  0  0  0  0  0  0  0  0  0  0  0
    6.0798    4.3406   21.9576 C   0  0  0  0  0  0  0  0  0  0  0  0
    4.1431   -6.4414   24.6709 C   0  0  0  0  0  0  0  0  0  0  0  0
    2.5881   -7.8684   24.1113 C   0  0  0  0  0  0  0  0  0  0  0  0
   13.9311    6.0323   22.4296 C   0  0  0  0  0  0  0  0  0  0  0  0
    9.0812    5.0986   25.4451 C   0  0  0  0  0  0  0  0  0  0  0  0
   10.1895    4.3517   25.3459 C   0  0  0  0  0  0  0  0  0  0  0  0
    4.9484   -5.2179   24.9196 C   0  0  0  0  0  0  0  0  0  0  0  0
    8.5310    5.7676   24.2466 C   0  0  0  0  0  0  0  0  0  0  0  0
   11.1267    1.8338   23.1390 C   0  0  0  0  0  0  0  0  0  0  0  0
    7.9218   -4.0203   24.5717 C   0  0  0  0  0  0  0  0  0  0  0  0
    9.9110   -1.0053   24.0069 C   0  0  0  0  0  0  0  0  0  0  0  0
   11.9749    5.2456   21.3339 C   0  0  0  0  0  0  0  0  0  0  0  0
   13.0044    5.6537   20.2982 C   0  0  0  0  0  0  0  0  0  0  0  0
   12.8155    5.0156   22.5927 C   0  0  2  0  0  0  0  0  0  0  0  0
    1.4408   -8.6753   23.6778 C   0  0  0  0  0  0  0  0  0  0  0  0
    7.9786   -4.6755   26.9914 C   0  0  0  0  0  0  0  0  0  0  0  0
   14.2424   -1.1419   24.2562 C   0  0  0  0  0  0  0  0  0  0  0  0
   15.1013   -1.0439   21.9081 C   0  0  0  0  0  0  0  0  0  0  0  0
    7.4150   -2.8064   21.5761 C   0  0  0  0  0  0  0  0  0  0  0  0
    7.3374   -0.4981   22.5523 C   0  0  0  0  0  0  0  0  0  0  0  0
    7.0135    5.3941   22.4772 C   0  0  0  0  0  0  0  0  0  0  0  0
   12.0331    5.1980   23.8784 C   0  0  0  0  0  0  0  0  0  0  0  0
   13.1010    0.3771   22.6113 C   0  0  0  0  0  0  0  0  0  0  0  0
   10.9308    4.1454   24.0519 C   0  0  1  0  0  0  0  0  0  0  0  0
   11.8075    0.4994   23.4269 C   0  0  2  0  0  0  0  0  0  0  0  0
    7.0881   -4.3301   25.8080 C   0  0  2  0  0  0  0  0  0  0  0  0
    9.0652   -2.1357   23.4241 C   0  0  2  0  0  0  0  0  0  0  0  0
   13.8526   -0.9582   22.7868 C   0  0  0  0  0  0  0  0  0  0  0  0
    8.2462   -1.6792   22.1981 C   0  0  0  0  0  0  0  0  0  0  0  0
    4.6369   -7.6412   24.9892 N   0  0  0  0  0  0  0  0  0  0  0  0
   13.9953    6.3468   21.0744 N   0  0  0  0  0  0  0  0  0  0  0  0
    6.2014   -5.4168   25.4852 N   0  0  0  0  0  0  0  0  0  0  0  0
   11.4743    2.8064   24.0663 N   0  0  0  0  0  0  0  0  0  0  0  0
   10.8610   -0.5372   23.1063 N   0  0  0  0  0  0  0  0  0  0  0  0
    8.2474   -2.6723   24.4822 N   0  0  0  0  0  0  0  0  0  0  0  0
   14.6549    6.4543   23.3180 O   0  0  0  0  0  0  0  0  0  0  0  0
    4.4735   -4.1201   24.6408 O   0  0  0  0  0  0  0  0  0  0  0  0
    8.8251    6.8892   23.8646 O   0  0  0  0  0  0  0  0  0  0  0  0
   10.3317    1.9939   22.2151 O   0  0  0  0  0  0  0  0  0  0  0  0
    8.2876   -4.8828   23.7759 O   0  0  0  0  0  0  0  0  0  0  0  0
    9.7750   -0.5938   25.1573 O   0  0  0  0  0  0  0  0  0  0  0  0
    3.6439   -8.5451   24.6313 O   0  0  0  0  0  0  0  0  0  0  0  0
    7.6510    4.9094   23.6638 O   0  0  0  0  0  0  0  0  0  0  0  0
    3.6667    1.6205   20.6159 H   0  0  0  0  0  0  0  0  0  0  0  0
    6.0278    1.6686   19.8554 H   0  0  0  0  0  0  0  0  0  0  0  0
    2.8504    3.3143   22.2353 H   0  0  0  0  0  0  0  0  0  0  0  0
    7.5715    3.4017   20.7087 H   0  0  0  0  0  0  0  0  0  0  0  0
    4.3860    5.0512   23.0943 H   0  0  0  0  0  0  0  0  0  0  0  0
    2.2140   -5.7286   23.7656 H   0  0  0  0  0  0  0  0  0  0  0  0
    8.5700    5.2281   26.3930 H   0  0  0  0  0  0  0  0  0  0  0  0
   10.5996    3.8633   26.2277 H   0  0  0  0  0  0  0  0  0  0  0  0
   11.2538    6.0585   21.4862 H   0  0  0  0  0  0  0  0  0  0  0  0
   11.4211    4.3494   21.0385 H   0  0  0  0  0  0  0  0  0  0  0  0
   13.4824    4.7887   19.8284 H   0  0  0  0  0  0  0  0  0  0  0  0
   12.5975    6.3164   19.5305 H   0  0  0  0  0  0  0  0  0  0  0  0
   13.2717    4.0176   22.5618 H   0  0  0  0  0  0  0  0  0  0  0  0
    1.5351   -8.9778   22.6191 H   0  0  0  0  0  0  0  0  0  0  0  0
    1.3259   -9.5998   24.2746 H   0  0  0  0  0  0  0  0  0  0  0  0
    0.4814   -8.1335   23.7805 H   0  0  0  0  0  0  0  0  0  0  0  0
    8.6184   -5.5372   26.7686 H   0  0  0  0  0  0  0  0  0  0  0  0
    8.6327   -3.8374   27.2538 H   0  0  0  0  0  0  0  0  0  0  0  0
    7.3770   -4.9270   27.8716 H   0  0  0  0  0  0  0  0  0  0  0  0
   14.9129   -0.3404   24.5842 H   0  0  0  0  0  0  0  0  0  0  0  0
   14.7644   -2.0932   24.4043 H   0  0  0  0  0  0  0  0  0  0  0  0
   13.3607   -1.1336   24.9061 H   0  0  0  0  0  0  0  0  0  0  0  0
   15.8050   -0.2367   22.1384 H   0  0  0  0  0  0  0  0  0  0  0  0
   15.6191   -1.9969   22.0616 H   0  0  0  0  0  0  0  0  0  0  0  0
   14.8467   -0.9831   20.8460 H   0  0  0  0  0  0  0  0  0  0  0  0
    6.6917   -3.2080   22.2924 H   0  0  0  0  0  0  0  0  0  0  0  0
    6.8677   -2.4664   20.6910 H   0  0  0  0  0  0  0  0  0  0  0  0
    8.0629   -3.6340   21.2671 H   0  0  0  0  0  0  0  0  0  0  0  0
    6.6124   -0.7823   23.3221 H   0  0  0  0  0  0  0  0  0  0  0  0
    7.9264    0.3385   22.9436 H   0  0  0  0  0  0  0  0  0  0  0  0
    6.7841   -0.1376   21.6788 H   0  0  0  0  0  0  0  0  0  0  0  0
    7.7803    5.6389   21.7344 H   0  0  0  0  0  0  0  0  0  0  0  0
    6.4675    6.3139   22.7129 H   0  0  0  0  0  0  0  0  0  0  0  0
   11.5881    6.2010   23.8716 H   0  0  0  0  0  0  0  0  0  0  0  0
   12.7324    5.1636   24.7239 H   0  0  0  0  0  0  0  0  0  0  0  0
   13.7751    1.1991   22.8904 H   0  0  0  0  0  0  0  0  0  0  0  0
   12.8753    0.5245   21.5468 H   0  0  0  0  0  0  0  0  0  0  0  0
   10.2395    4.1918   23.2019 H   0  0  0  0  0  0  0  0  0  0  0  0
   12.0056    0.4301   24.5013 H   0  0  0  0  0  0  0  0  0  0  0  0
    6.4570   -3.4679   26.0492 H   0  0  0  0  0  0  0  0  0  0  0  0
    9.7473   -2.9441   23.1318 H   0  0  0  0  0  0  0  0  0  0  0  0
   13.1847   -1.7853   22.5166 H   0  0  0  0  0  0  0  0  0  0  0  0
    8.9442   -1.3288   21.4264 H   0  0  0  0  0  0  0  0  0  0  0  0
   14.6686    6.9949   20.6782 H   0  0  0  0  0  0  0  0  0  0  0  0
    6.4974   -6.3549   25.7453 H   0  0  0  0  0  0  0  0  0  0  0  0
   12.1347    2.5770   24.8030 H   0  0  0  0  0  0  0  0  0  0  0  0
   10.9132   -0.9589   22.1813 H   0  0  0  0  0  0  0  0  0  0  0  0
    7.8659   -2.0233   25.1664 H   0  0  0  0  0  0  0  0  0  0  0  0
  1  2  1  0  0  0  0
  1  3  2  0  0  0  0
  2  4  2  0  0  0  0
  3  5  1  0  0  0  0
  4  7  1  0  0  0  0
  5  7  2  0  0  0  0
  6  8  1  0  0  0  0
  6  9  2  0  0  0  0
  7 27  1  0  0  0  0
  8 13  1  0  0  0  0
  8 36  2  0  0  0  0
  9 21  1  0  0  0  0
  9 48  1  0  0  0  0
 10 20  1  0  0  0  0
 10 37  1  0  0  0  0
 10 42  2  0  0  0  0
 11 12  2  0  0  0  0
 11 14  1  0  0  0  0
 12 30  1  0  0  0  0
 13 38  1  0  0  0  0
 13 43  2  0  0  0  0
 14 44  2  0  0  0  0
 14 49  1  0  0  0  0
 15 31  1  0  0  0  0
 15 39  1  0  0  0  0
 15 45  2  0  0  0  0
 16 32  1  0  0  0  0
 16 41  1  0  0  0  0
 16 46  2  0  0  0  0
 17 33  1  0  0  0  0
 17 40  1  0  0  0  0
 17 47  2  0  0  0  0
 18 19  1  0  0  0  0
 18 20  1  0  0  0  0
 19 37  1  0  0  0  0
 20 28  1  0  0  0  0
 22 32  1  0  0  0  0
 23 34  1  0  0  0  0
 24 34  1  0  0  0  0
 25 35  1  0  0  0  0
 26 35  1  0  0  0  0
 27 49  1  0  0  0  0
 28 30  1  0  0  0  0
 29 31  1  0  0  0  0
 29 34  1  0  0  0  0
 30 39  1  0  0  0  0
 31 40  1  0  0  0  0
 32 38  1  0  0  0  0
 33 35  1  0  0  0  0
 33 41  1  0  0  0  0
 36 48  1  0  0  0  0
  1 50  1  0  0  0  0
  2 51  1  0  0  0  0
  3 52  1  0  0  0  0
  4 53  1  0  0  0  0
  5 54  1  0  0  0  0
  6 55  1  0  0  0  0
 11 56  1  0  0  0  0
 12 57  1  0  0  0  0
 18 58  1  0  0  0  0
 18 59  1  0  0  0  0
 19 60  1  0  0  0  0
 19 61  1  0  0  0  0
 20 62  1  0  0  0  0
 21 63  1  0  0  0  0
 21 64  1  0  0  0  0
 21 65  1  0  0  0  0
 22 66  1  0  0  0  0
 22 67  1  0  0  0  0
 22 68  1  0  0  0  0
 23 69  1  0  0  0  0
 23 70  1  0  0  0  0
 23 71  1  0  0  0  0
 24 72  1  0  0  0  0
 24 73  1  0  0  0  0
 24 74  1  0  0  0  0
 25 75  1  0  0  0  0
 25 76  1  0  0  0  0
 25 77  1  0  0  0  0
 26 78  1  0  0  0  0
 26 79  1  0  0  0  0
 26 80  1  0  0  0  0
 27 81  1  0  0  0  0
 27 82  1  0  0  0  0
 28 83  1  0  0  0  0
 28 84  1  0  0  0  0
 29 85  1  0  0  0  0
 29 86  1  0  0  0  0
 30 87  1  0  0  0  0
 31 88  1  0  0  0  0
 32 89  1  0  0  0  0
 33 90  1  0  0  0  0
 34 91  1  0  0  0  0
 35 92  1  0  0  0  0
 37 93  1  0  0  0  0
 38 94  1  0  0  0  0
 39 95  1  0  0  0  0
 40 96  1  0  0  0  0
 41 97  1  0  0  0  0
M  END
> <paper/assay>
https://www.nature.com/articles/s41586-020-2223-y

> <IC50 (um)>
-1

> <real_space>
FALSE

> <SCR>
FALSE

> <BB>
FALSE

> <molport_or_mcule>
FALSE

> <PDB>
FALSE

> <Hybrid2>
-0.912793

> <docked_fragment>
x0967

> <Mpro-_dock>
21.809795

> <site>
active-noncovalent

$$$$
