DUN-NEW-f8c-22
 OpenBabel03242009303D

 37 38  0  0  1  0  0  0  0  0999 V2000
    8.7590   -4.3450   28.6084 C   0  0  0  0  0  0  0  0  0  0  0  0
    7.7263   -3.4585   28.3033 C   0  0  0  0  0  0  0  0  0  0  0  0
    9.7762   -4.5763   27.6823 C   0  0  0  0  0  0  0  0  0  0  0  0
    7.7106   -2.8033   27.0720 C   0  0  0  0  0  0  0  0  0  0  0  0
    9.7604   -3.9210   26.4510 C   0  0  0  0  0  0  0  0  0  0  0  0
    8.7277   -3.0345   26.1458 C   0  0  0  0  0  0  0  0  0  0  0  0
   10.6807   -0.1255   22.6076 C   0  0  0  0  0  0  0  0  0  0  0  0
    9.0267   -1.8376   21.9437 C   0  0  0  0  0  0  0  0  0  0  0  0
    7.6696   -2.1449   22.5637 C   0  0  0  0  0  0  0  0  0  0  0  0
   10.0890   -2.0407   24.1756 C   0  0  0  0  0  0  0  0  0  0  0  0
    8.7111   -2.3213   24.8042 C   0  0  1  0  0  0  0  0  0  0  0  0
    6.6151   -5.2738   24.3929 C   0  0  0  0  0  0  0  0  0  0  0  0
   12.0274    0.0242   23.2693 C   0  0  0  0  0  0  0  0  0  0  0  0
    9.9483   -1.2684   22.9302 N   0  0  0  0  0  0  0  0  0  0  0  0
    7.8339   -2.9958   23.7794 N   0  0  0  0  0  0  0  0  0  0  0  0
   10.2913    0.7497   21.8300 O   0  0  0  0  0  0  0  0  0  0  0  0
    9.2161   -5.1254   24.1928 O   0  0  0  0  0  0  0  0  0  0  0  0
    7.8169   -4.9412   22.0966 O   0  0  0  0  0  0  0  0  0  0  0  0
    8.0280   -4.6760   23.5022 S   0  0  0  0  0  0  0  0  0  0  0  0
   12.9726   -1.3887   22.8132 Cl  0  0  0  0  0  0  0  0  0  0  0  0
    8.7718   -4.8541   29.5677 H   0  0  0  0  0  0  0  0  0  0  0  0
    6.9348   -3.2775   29.0247 H   0  0  0  0  0  0  0  0  0  0  0  0
   10.5809   -5.2656   27.9199 H   0  0  0  0  0  0  0  0  0  0  0  0
    6.9018   -2.1144   26.8428 H   0  0  0  0  0  0  0  0  0  0  0  0
   10.5570   -4.1075   25.7355 H   0  0  0  0  0  0  0  0  0  0  0  0
    9.4954   -2.7526   21.5627 H   0  0  0  0  0  0  0  0  0  0  0  0
    8.8997   -1.1601   21.0935 H   0  0  0  0  0  0  0  0  0  0  0  0
    7.1564   -1.2188   22.8495 H   0  0  0  0  0  0  0  0  0  0  0  0
    7.0202   -2.6519   21.8419 H   0  0  0  0  0  0  0  0  0  0  0  0
   10.7232   -1.5226   24.8987 H   0  0  0  0  0  0  0  0  0  0  0  0
   10.6051   -2.9730   23.9140 H   0  0  0  0  0  0  0  0  0  0  0  0
    8.2080   -1.3350   25.0214 H   0  0  0  0  0  0  0  0  0  0  0  0
    6.5924   -6.3617   24.3124 H   0  0  0  0  0  0  0  0  0  0  0  0
    6.7117   -4.9694   25.4361 H   0  0  0  0  0  0  0  0  0  0  0  0
    5.7187   -4.8386   23.9486 H   0  0  0  0  0  0  0  0  0  0  0  0
   11.8898    0.0488   24.3443 H   0  0  0  0  0  0  0  0  0  0  0  0
   12.5024    0.9254   22.8992 H   0  0  0  0  0  0  0  0  0  0  0  0
  1  2  1  0  0  0  0
  1  3  2  0  0  0  0
  1 21  1  0  0  0  0
  2  4  2  0  0  0  0
  2 22  1  0  0  0  0
  3  5  1  0  0  0  0
  3 23  1  0  0  0  0
  4  6  1  0  0  0  0
  4 24  1  0  0  0  0
  5  6  2  0  0  0  0
  5 25  1  0  0  0  0
  6 11  1  0  0  0  0
  7 13  1  0  0  0  0
  7 14  1  0  0  0  0
  7 16  2  0  0  0  0
  8  9  1  0  0  0  0
  8 14  1  0  0  0  0
  8 26  1  0  0  0  0
  8 27  1  0  0  0  0
  9 15  1  0  0  0  0
  9 28  1  0  0  0  0
  9 29  1  0  0  0  0
 10 11  1  0  0  0  0
 10 14  1  0  0  0  0
 10 30  1  0  0  0  0
 10 31  1  0  0  0  0
 11 15  1  0  0  0  0
 11 32  1  1  0  0  0
 12 19  1  0  0  0  0
 12 33  1  0  0  0  0
 12 34  1  0  0  0  0
 12 35  1  0  0  0  0
 13 20  1  0  0  0  0
 13 36  1  0  0  0  0
 13 37  1  0  0  0  0
 15 19  1  0  0  0  0
 17 19  2  0  0  0  0
 18 19  2  0  0  0  0
M  END
>  <Chemgauss4 Score>
-4.62094497680664

>  <Number of Confs>
21

$$$$
