HAR-NEW-972-1
 OpenBabel03242009303D

 45 47  0  0  1  0  0  0  0  0999 V2000
   10.4390   -4.2463   25.0176 C   0  0  0  0  0  0  0  0  0  0  0  0
    9.2279   -4.3918   25.7374 C   0  0  0  0  0  0  0  0  0  0  0  0
   10.4351   -2.9842   24.4604 C   0  0  0  0  0  0  0  0  0  0  0  0
    8.5248   -3.2130   25.5901 C   0  0  0  0  0  0  0  0  0  0  0  0
    9.1680   -0.3884   21.4594 C   0  0  0  0  0  0  0  0  0  0  0  0
    8.7038   -5.5507   26.5141 C   0  0  0  0  0  0  0  0  0  0  0  0
    7.2059   -2.8919   26.1931 C   0  0  0  0  0  0  0  0  0  0  0  0
    6.5441   -4.1843   26.7095 C   0  0  0  0  0  0  0  0  0  0  0  0
   12.4882    0.0175   23.3171 C   0  0  0  0  0  0  0  0  0  0  0  0
   12.0578   -1.0525   24.3126 C   0  0  0  0  0  0  0  0  0  0  0  0
   11.2914    0.4917   22.4966 C   0  0  0  0  0  0  0  0  0  0  0  0
   10.9371   -1.9596   22.1812 C   0  0  0  0  0  0  0  0  0  0  0  0
   11.4669   -2.2823   23.5940 C   0  0  2  0  0  0  0  0  0  0  0  0
    7.5248   -5.1420   27.4352 C   0  0  2  0  0  0  0  0  0  0  0  0
    8.7543    1.0520   21.2776 C   0  0  0  0  0  0  0  0  0  0  0  0
    8.0287   -4.5375   28.7502 C   0  0  0  0  0  0  0  0  0  0  0  0
    9.2639   -2.3628   24.8162 N   0  0  0  0  0  0  0  0  0  0  0  0
   10.4100   -0.5995   22.0644 N   0  0  0  0  0  0  0  0  0  0  0  0
    7.0001   -4.5966   29.7333 N   0  0  0  0  0  0  0  0  0  0  0  0
    8.4123   -1.2896   21.0889 O   0  0  0  0  0  0  0  0  0  0  0  0
    7.1902    1.0288   20.4709 Cl  0  0  0  0  0  0  0  0  0  0  0  0
   11.2287   -4.9785   24.9171 H   0  0  0  0  0  0  0  0  0  0  0  0
    8.3782   -6.3468   25.8301 H   0  0  0  0  0  0  0  0  0  0  0  0
    9.5259   -5.9629   27.1177 H   0  0  0  0  0  0  0  0  0  0  0  0
    7.3121   -2.1755   27.0144 H   0  0  0  0  0  0  0  0  0  0  0  0
    6.5654   -2.4337   25.4306 H   0  0  0  0  0  0  0  0  0  0  0  0
    5.7265   -3.9175   27.4031 H   0  0  0  0  0  0  0  0  0  0  0  0
    6.0638   -4.7018   25.8620 H   0  0  0  0  0  0  0  0  0  0  0  0
   12.9283    0.8628   23.8489 H   0  0  0  0  0  0  0  0  0  0  0  0
   13.2517   -0.3862   22.6478 H   0  0  0  0  0  0  0  0  0  0  0  0
   12.9165   -1.3524   24.9267 H   0  0  0  0  0  0  0  0  0  0  0  0
   11.3138   -0.6297   25.0017 H   0  0  0  0  0  0  0  0  0  0  0  0
   10.6720    1.1885   23.0912 H   0  0  0  0  0  0  0  0  0  0  0  0
   11.6485    1.0694   21.6257 H   0  0  0  0  0  0  0  0  0  0  0  0
   11.7306   -2.1543   21.4410 H   0  0  0  0  0  0  0  0  0  0  0  0
   10.1118   -2.6463   21.9122 H   0  0  0  0  0  0  0  0  0  0  0  0
   12.3098   -3.0294   23.4715 H   0  0  0  0  0  0  0  0  0  0  0  0
    6.9577   -6.0616   27.6877 H   0  0  0  0  0  0  0  0  0  0  0  0
    9.4871    1.5521   20.6546 H   0  0  0  0  0  0  0  0  0  0  0  0
    8.6638    1.5172   22.2524 H   0  0  0  0  0  0  0  0  0  0  0  0
    8.8928   -5.1210   29.0634 H   0  0  0  0  0  0  0  0  0  0  0  0
    8.3050   -3.5045   28.5456 H   0  0  0  0  0  0  0  0  0  0  0  0
    8.9908   -1.4276   24.5456 H   0  0  0  0  0  0  0  0  0  0  0  0
    6.7900   -3.6744   30.0715 H   0  0  0  0  0  0  0  0  0  0  0  0
    6.1661   -4.9935   29.3386 H   0  0  0  0  0  0  0  0  0  0  0  0
  1  2  1  0  0  0  0
  1  3  2  0  0  0  0
  1 22  1  0  0  0  0
  2  4  2  0  0  0  0
  2  6  1  0  0  0  0
  3 13  1  0  0  0  0
  3 17  1  0  0  0  0
  4  7  1  0  0  0  0
  4 17  1  0  0  0  0
  5 15  1  0  0  0  0
  5 18  1  0  0  0  0
  5 20  2  0  0  0  0
  6 14  1  0  0  0  0
  6 23  1  0  0  0  0
  6 24  1  0  0  0  0
  7  8  1  0  0  0  0
  7 25  1  0  0  0  0
  7 26  1  0  0  0  0
  8 14  1  0  0  0  0
  8 27  1  0  0  0  0
  8 28  1  0  0  0  0
  9 10  1  0  0  0  0
  9 11  1  0  0  0  0
  9 29  1  0  0  0  0
  9 30  1  0  0  0  0
 10 13  1  0  0  0  0
 10 31  1  0  0  0  0
 10 32  1  0  0  0  0
 11 18  1  0  0  0  0
 11 33  1  0  0  0  0
 11 34  1  0  0  0  0
 12 13  1  0  0  0  0
 12 18  1  0  0  0  0
 12 35  1  0  0  0  0
 12 36  1  0  0  0  0
 13 37  1  6  0  0  0
 14 16  1  0  0  0  0
 14 38  1  1  0  0  0
 15 21  1  0  0  0  0
 15 39  1  0  0  0  0
 15 40  1  0  0  0  0
 16 19  1  0  0  0  0
 16 41  1  0  0  0  0
 16 42  1  0  0  0  0
 17 43  1  0  0  0  0
 19 44  1  0  0  0  0
 19 45  1  0  0  0  0
M  END
>  <Chemgauss4 Score>
-5.38805389404297

>  <Number of Confs>
200

$$$$
