KIM-UNI-60f-4
 OpenBabel03242009303D

 33 34  0  0  0  0  0  0  0  0999 V2000
    8.7759   -4.3725   28.5219 C   0  0  0  0  0  0  0  0  0  0  0  0
    8.2760   -5.6291   28.2208 C   0  0  0  0  0  0  0  0  0  0  0  0
    8.2089   -5.1619   25.9724 C   0  0  0  0  0  0  0  0  0  0  0  0
    8.9919   -3.4888   27.4703 C   0  0  0  0  0  0  0  0  0  0  0  0
    8.7055   -3.8833   26.1681 C   0  0  0  0  0  0  0  0  0  0  0  0
    7.8424   -2.1607   24.6439 C   0  0  0  0  0  0  0  0  0  0  0  0
   10.1982   -3.0179   24.4045 C   0  0  0  0  0  0  0  0  0  0  0  0
   12.3054   -1.1494   22.7177 C   0  0  0  0  0  0  0  0  0  0  0  0
    8.2295   -1.1244   23.6225 C   0  0  0  0  0  0  0  0  0  0  0  0
    9.0640   -1.7879   22.5573 C   0  0  0  0  0  0  0  0  0  0  0  0
    9.5296   -2.1272   27.7664 C   0  0  0  0  0  0  0  0  0  0  0  0
   11.4700   -2.3588   22.3663 C   0  0  0  0  0  0  0  0  0  0  0  0
    7.9859   -6.0481   26.9686 N   0  0  0  0  0  0  0  0  0  0  0  0
    8.9132   -3.0003   25.0384 N   0  0  0  0  0  0  0  0  0  0  0  0
   10.2513   -2.3621   23.1626 N   0  0  0  0  0  0  0  0  0  0  0  0
   11.7065   -0.3595   23.6754 N   0  0  0  0  0  0  0  0  0  0  0  0
    6.6796   -2.2181   25.0443 O   0  0  0  0  0  0  0  0  0  0  0  0
   11.2036   -3.5209   24.9170 O   0  0  0  0  0  0  0  0  0  0  0  0
   13.4129   -0.9191   22.2397 O   0  0  0  0  0  0  0  0  0  0  0  0
    8.9888   -4.0956   29.5489 H   0  0  0  0  0  0  0  0  0  0  0  0
    8.0897   -6.3553   29.0052 H   0  0  0  0  0  0  0  0  0  0  0  0
    7.9666   -5.5281   24.9791 H   0  0  0  0  0  0  0  0  0  0  0  0
    7.3228   -0.6712   23.2073 H   0  0  0  0  0  0  0  0  0  0  0  0
    8.8110   -0.3393   24.1169 H   0  0  0  0  0  0  0  0  0  0  0  0
    8.4847   -2.5783   22.0681 H   0  0  0  0  0  0  0  0  0  0  0  0
    9.3922   -1.0717   21.7953 H   0  0  0  0  0  0  0  0  0  0  0  0
   10.6254   -2.1375   27.7391 H   0  0  0  0  0  0  0  0  0  0  0  0
    9.1685   -1.3914   27.0373 H   0  0  0  0  0  0  0  0  0  0  0  0
    9.2076   -1.7806   28.7562 H   0  0  0  0  0  0  0  0  0  0  0  0
   12.0142   -3.2837   22.5760 H   0  0  0  0  0  0  0  0  0  0  0  0
   11.1956   -2.3189   21.3086 H   0  0  0  0  0  0  0  0  0  0  0  0
   10.8048   -0.6092   24.0678 H   0  0  0  0  0  0  0  0  0  0  0  0
   12.1358    0.4914   24.0246 H   0  0  0  0  0  0  0  0  0  0  0  0
  1  2  2  0  0  0  0
  1  4  1  0  0  0  0
  1 20  1  0  0  0  0
  2 13  1  0  0  0  0
  2 21  1  0  0  0  0
  3  5  1  0  0  0  0
  3 13  2  0  0  0  0
  3 22  1  0  0  0  0
  4  5  2  0  0  0  0
  4 11  1  0  0  0  0
  5 14  1  0  0  0  0
  6  9  1  0  0  0  0
  6 14  1  0  0  0  0
  6 17  2  0  0  0  0
  7 14  1  0  0  0  0
  7 15  1  0  0  0  0
  7 18  2  0  0  0  0
  8 12  1  0  0  0  0
  8 16  1  0  0  0  0
  8 19  2  0  0  0  0
  9 10  1  0  0  0  0
  9 23  1  0  0  0  0
  9 24  1  0  0  0  0
 10 15  1  0  0  0  0
 10 25  1  0  0  0  0
 10 26  1  0  0  0  0
 11 27  1  0  0  0  0
 11 28  1  0  0  0  0
 11 29  1  0  0  0  0
 12 15  1  0  0  0  0
 12 30  1  0  0  0  0
 12 31  1  0  0  0  0
 16 32  1  0  0  0  0
 16 33  1  0  0  0  0
M  END
>  <Chemgauss4 Score>
-5.32330465316772

>  <Number of Confs>
62

$$$$
