CAR-INS-33b-1
 OpenBabel03242009303D

 45 48  0  0  0  0  0  0  0  0999 V2000
    6.6461   -6.0428   28.9907 C   0  0  0  0  0  0  0  0  0  0  0  0
    7.7649   -5.8585   28.1784 C   0  0  0  0  0  0  0  0  0  0  0  0
    5.3836   -6.1897   28.4162 C   0  0  0  0  0  0  0  0  0  0  0  0
    8.6156   -0.3068   23.3702 C   0  0  0  0  0  0  0  0  0  0  0  0
    6.3586   -5.9679   26.2169 C   0  0  0  0  0  0  0  0  0  0  0  0
    7.4601   -0.4215   22.6087 C   0  0  0  0  0  0  0  0  0  0  0  0
    8.5820   -1.0372   20.6621 C   0  0  0  0  0  0  0  0  0  0  0  0
   11.9360   -0.9421   21.9965 C   0  0  0  0  0  0  0  0  0  0  0  0
    9.8213   -0.5814   22.7093 C   0  0  0  0  0  0  0  0  0  0  0  0
    7.6212   -5.8211   26.7915 C   0  0  0  0  0  0  0  0  0  0  0  0
   11.1903   -0.5852   23.0967 C   0  0  0  0  0  0  0  0  0  0  0  0
    9.7780   -0.9427   21.3617 C   0  0  0  0  0  0  0  0  0  0  0  0
    5.2398   -6.1522   27.0293 C   0  0  0  0  0  0  0  0  0  0  0  0
   11.7656   -0.2712   24.4260 C   0  0  0  0  0  0  0  0  0  0  0  0
    8.7984   -5.6269   25.9357 C   0  0  0  0  0  0  0  0  0  0  0  0
   10.9653   -0.5521   25.6347 C   0  0  0  0  0  0  0  0  0  0  0  0
   10.3325   -4.0818   24.7636 C   0  0  0  0  0  0  0  0  0  0  0  0
    8.4254   -3.1045   25.9684 C   0  0  0  0  0  0  0  0  0  0  0  0
   11.2790   -3.0792   25.4237 C   0  0  0  0  0  0  0  0  0  0  0  0
    9.3591   -2.1176   26.6590 C   0  0  0  0  0  0  0  0  0  0  0  0
    7.4199   -0.7717   21.3026 N   0  0  0  0  0  0  0  0  0  0  0  0
   11.0740   -1.1557   20.9540 N   0  0  0  0  0  0  0  0  0  0  0  0
    9.1604   -4.3210   25.6028 N   0  0  0  0  0  0  0  0  0  0  0  0
   10.5609   -1.8669   25.8537 N   0  0  0  0  0  0  0  0  0  0  0  0
   12.8948    0.1955   24.5277 O   0  0  0  0  0  0  0  0  0  0  0  0
    9.3882   -6.6465   25.5816 O   0  0  0  0  0  0  0  0  0  0  0  0
   10.7077    0.3946   26.3803 O   0  0  0  0  0  0  0  0  0  0  0  0
    4.0276   -6.2932   26.4774 F   0  0  0  0  0  0  0  0  0  0  0  0
    6.7580   -6.0720   30.0705 H   0  0  0  0  0  0  0  0  0  0  0  0
    8.7441   -5.7446   28.6365 H   0  0  0  0  0  0  0  0  0  0  0  0
    4.5123   -6.3331   29.0486 H   0  0  0  0  0  0  0  0  0  0  0  0
    8.5773   -0.0197   24.4147 H   0  0  0  0  0  0  0  0  0  0  0  0
    6.2346   -5.9399   25.1373 H   0  0  0  0  0  0  0  0  0  0  0  0
    6.4905   -0.2225   23.0554 H   0  0  0  0  0  0  0  0  0  0  0  0
    8.5210   -1.3153   19.6182 H   0  0  0  0  0  0  0  0  0  0  0  0
   13.0016   -1.0638   21.8586 H   0  0  0  0  0  0  0  0  0  0  0  0
    9.9766   -3.6960   23.8009 H   0  0  0  0  0  0  0  0  0  0  0  0
   10.8634   -5.0188   24.5669 H   0  0  0  0  0  0  0  0  0  0  0  0
    7.5789   -3.3270   26.6226 H   0  0  0  0  0  0  0  0  0  0  0  0
    8.0213   -2.6728   25.0449 H   0  0  0  0  0  0  0  0  0  0  0  0
   11.7338   -3.5173   26.3201 H   0  0  0  0  0  0  0  0  0  0  0  0
   12.0887   -2.8342   24.7318 H   0  0  0  0  0  0  0  0  0  0  0  0
    8.8316   -1.1777   26.8521 H   0  0  0  0  0  0  0  0  0  0  0  0
    9.6913   -2.5129   27.6264 H   0  0  0  0  0  0  0  0  0  0  0  0
   11.3501   -1.4298   20.0212 H   0  0  0  0  0  0  0  0  0  0  0  0
  1  2  2  0  0  0  0
  1  3  1  0  0  0  0
  1 29  1  0  0  0  0
  2 10  1  0  0  0  0
  2 30  1  0  0  0  0
  3 13  2  0  0  0  0
  3 31  1  0  0  0  0
  4  6  2  0  0  0  0
  4  9  1  0  0  0  0
  4 32  1  0  0  0  0
  5 10  2  0  0  0  0
  5 13  1  0  0  0  0
  5 33  1  0  0  0  0
  6 21  1  0  0  0  0
  6 34  1  0  0  0  0
  7 12  1  0  0  0  0
  7 21  2  0  0  0  0
  7 35  1  0  0  0  0
  8 11  2  0  0  0  0
  8 22  1  0  0  0  0
  8 36  1  0  0  0  0
  9 11  1  0  0  0  0
  9 12  2  0  0  0  0
 10 15  1  0  0  0  0
 11 14  1  0  0  0  0
 12 22  1  0  0  0  0
 13 28  1  0  0  0  0
 14 16  1  0  0  0  0
 14 25  2  0  0  0  0
 15 23  1  0  0  0  0
 15 26  2  0  0  0  0
 16 24  1  0  0  0  0
 16 27  2  0  0  0  0
 17 19  1  0  0  0  0
 17 23  1  0  0  0  0
 17 37  1  0  0  0  0
 17 38  1  0  0  0  0
 18 20  1  0  0  0  0
 18 23  1  0  0  0  0
 18 39  1  0  0  0  0
 18 40  1  0  0  0  0
 19 24  1  0  0  0  0
 19 41  1  0  0  0  0
 19 42  1  0  0  0  0
 20 24  1  0  0  0  0
 20 43  1  0  0  0  0
 20 44  1  0  0  0  0
 22 45  1  0  0  0  0
M  END
>  <Chemgauss4 Score>
-4.96536922454834

>  <Number of Confs>
200

$$$$
