SAL-INS-1ea-4
 OpenBabel03242009303D

 51 53  0  0  1  0  0  0  0  0999 V2000
   11.5199   -0.0925   24.9115 C   0  0  0  0  0  0  0  0  0  0  0  0
   12.0220    0.2332   23.6516 C   0  0  0  0  0  0  0  0  0  0  0  0
   11.0302   -1.3754   25.1569 C   0  0  0  0  0  0  0  0  0  0  0  0
   12.0345   -0.7239   22.6370 C   0  0  0  0  0  0  0  0  0  0  0  0
    7.5709   -2.6288   21.5194 C   0  0  0  0  0  0  0  0  0  0  0  0
    5.8153   -2.5106   23.1750 C   0  0  0  0  0  0  0  0  0  0  0  0
    7.6838   -1.2387   21.5399 C   0  0  0  0  0  0  0  0  0  0  0  0
    5.9283   -1.1204   23.1956 C   0  0  0  0  0  0  0  0  0  0  0  0
   11.0426   -2.3325   24.1423 C   0  0  0  0  0  0  0  0  0  0  0  0
   11.5448   -2.0068   22.8824 C   0  0  0  0  0  0  0  0  0  0  0  0
    6.6365   -3.2647   22.3369 C   0  0  0  0  0  0  0  0  0  0  0  0
    6.8626   -0.4845   22.3780 C   0  0  0  0  0  0  0  0  0  0  0  0
    8.7540   -4.6719   27.7290 C   0  0  0  0  0  0  0  0  0  0  0  0
    6.7599   -4.6737   26.1837 C   0  0  0  0  0  0  0  0  0  0  0  0
    6.2167   -5.4663   25.0036 C   0  0  0  0  0  0  0  0  0  0  0  0
    8.8947   -5.7772   25.5222 C   0  0  0  0  0  0  0  0  0  0  0  0
    8.5861   -5.3153   24.0947 C   0  0  2  0  0  0  0  0  0  0  0  0
   10.5089   -3.7140   24.4256 C   0  0  0  0  0  0  0  0  0  0  0  0
    7.9038   -3.8961   28.7056 C   0  0  0  0  0  0  0  0  0  0  0  0
    9.1149   -3.9065   23.8281 C   0  0  0  0  0  0  0  0  0  0  0  0
    8.1420   -5.0226   26.5243 N   0  0  0  0  0  0  0  0  0  0  0  0
    7.1233   -5.3945   23.8365 N   0  0  0  0  0  0  0  0  0  0  0  0
    9.9155   -4.9594   28.0270 O   0  0  0  0  0  0  0  0  0  0  0  0
    5.0842   -5.3531   22.2885 O   0  0  0  0  0  0  0  0  0  0  0  0
    7.3930   -5.5292   21.2956 O   0  0  0  0  0  0  0  0  0  0  0  0
   11.5635   -2.9297   21.8802 O   0  0  0  0  0  0  0  0  0  0  0  0
    6.4935   -5.0242   22.3108 S   0  0  0  0  0  0  0  0  0  0  0  0
    7.0020    1.2305   22.4034 Cl  0  0  0  0  0  0  0  0  0  0  0  0
    7.0646   -5.0839   29.6968 Cl  0  0  0  0  0  0  0  0  0  0  0  0
   11.5094    0.6527   25.7018 H   0  0  0  0  0  0  0  0  0  0  0  0
   12.4023    1.2323   23.4608 H   0  0  0  0  0  0  0  0  0  0  0  0
   10.6396   -1.6187   26.1415 H   0  0  0  0  0  0  0  0  0  0  0  0
   12.4269   -0.4643   21.6576 H   0  0  0  0  0  0  0  0  0  0  0  0
    8.2156   -3.2067   20.8627 H   0  0  0  0  0  0  0  0  0  0  0  0
    5.0840   -2.9959   23.8159 H   0  0  0  0  0  0  0  0  0  0  0  0
    8.4163   -0.7566   20.8975 H   0  0  0  0  0  0  0  0  0  0  0  0
    5.2817   -0.5455   23.8536 H   0  0  0  0  0  0  0  0  0  0  0  0
    6.7575   -3.5934   25.9572 H   0  0  0  0  0  0  0  0  0  0  0  0
    6.0851   -4.8061   27.0420 H   0  0  0  0  0  0  0  0  0  0  0  0
    6.0763   -6.5242   25.2829 H   0  0  0  0  0  0  0  0  0  0  0  0
    5.2160   -5.0986   24.7236 H   0  0  0  0  0  0  0  0  0  0  0  0
    8.6884   -6.8534   25.6179 H   0  0  0  0  0  0  0  0  0  0  0  0
    9.9615   -5.6409   25.7586 H   0  0  0  0  0  0  0  0  0  0  0  0
    9.0851   -5.9787   23.3816 H   0  0  0  0  0  0  0  0  0  0  0  0
   11.1962   -4.4674   24.0194 H   0  0  0  0  0  0  0  0  0  0  0  0
   10.4768   -3.8842   25.5096 H   0  0  0  0  0  0  0  0  0  0  0  0
    7.1872   -3.3005   28.1516 H   0  0  0  0  0  0  0  0  0  0  0  0
    8.5497   -3.2840   29.3245 H   0  0  0  0  0  0  0  0  0  0  0  0
    8.4153   -3.1783   24.2530 H   0  0  0  0  0  0  0  0  0  0  0  0
    9.1375   -3.7344   22.7464 H   0  0  0  0  0  0  0  0  0  0  0  0
   11.9414   -2.5423   21.0752 H   0  0  0  0  0  0  0  0  0  0  0  0
  1  2  1  0  0  0  0
  1  3  2  0  0  0  0
  1 30  1  0  0  0  0
  2  4  2  0  0  0  0
  2 31  1  0  0  0  0
  3  9  1  0  0  0  0
  3 32  1  0  0  0  0
  4 10  1  0  0  0  0
  4 33  1  0  0  0  0
  5  7  2  0  0  0  0
  5 11  1  0  0  0  0
  5 34  1  0  0  0  0
  6  8  1  0  0  0  0
  6 11  2  0  0  0  0
  6 35  1  0  0  0  0
  7 12  1  0  0  0  0
  7 36  1  0  0  0  0
  8 12  2  0  0  0  0
  8 37  1  0  0  0  0
  9 10  2  0  0  0  0
  9 18  1  0  0  0  0
 10 26  1  0  0  0  0
 11 27  1  0  0  0  0
 12 28  1  0  0  0  0
 13 19  1  0  0  0  0
 13 21  1  0  0  0  0
 13 23  2  0  0  0  0
 14 15  1  0  0  0  0
 14 21  1  0  0  0  0
 14 38  1  0  0  0  0
 14 39  1  0  0  0  0
 15 22  1  0  0  0  0
 15 40  1  0  0  0  0
 15 41  1  0  0  0  0
 16 17  1  0  0  0  0
 16 21  1  0  0  0  0
 16 42  1  0  0  0  0
 16 43  1  0  0  0  0
 17 20  1  0  0  0  0
 17 22  1  0  0  0  0
 17 44  1  6  0  0  0
 18 20  1  0  0  0  0
 18 45  1  0  0  0  0
 18 46  1  0  0  0  0
 19 29  1  0  0  0  0
 19 47  1  0  0  0  0
 19 48  1  0  0  0  0
 20 49  1  0  0  0  0
 20 50  1  0  0  0  0
 22 27  1  0  0  0  0
 24 27  2  0  0  0  0
 25 27  2  0  0  0  0
 26 51  1  0  0  0  0
M  END
>  <Chemgauss4 Score>
-5.06978273391724

>  <Number of Confs>
200

$$$$
