CHR-SOS-709-21
 OpenBabel03242009303D

 25 26  0  0  0  0  0  0  0  0999 V2000
   12.2142   -1.5526   22.0179 C   0  0  0  0  0  0  0  0  0  0  0  0
   11.6245   -2.5928   22.7360 C   0  0  0  0  0  0  0  0  0  0  0  0
   11.8226   -0.2343   22.2513 C   0  0  0  0  0  0  0  0  0  0  0  0
    7.8937   -4.2578   28.8125 C   0  0  0  0  0  0  0  0  0  0  0  0
   10.2515   -0.9965   23.9209 C   0  0  0  0  0  0  0  0  0  0  0  0
    7.7655   -5.5899   28.4538 C   0  0  0  0  0  0  0  0  0  0  0  0
    8.7534   -5.2277   26.4115 C   0  0  0  0  0  0  0  0  0  0  0  0
   10.6432   -2.3148   23.6875 C   0  0  0  0  0  0  0  0  0  0  0  0
    8.9277   -3.8785   26.6744 C   0  0  0  0  0  0  0  0  0  0  0  0
   10.8412    0.0438   23.2027 C   0  0  0  0  0  0  0  0  0  0  0  0
    8.4870   -3.3923   27.9003 C   0  0  0  0  0  0  0  0  0  0  0  0
   10.0285   -3.3999   24.4353 C   0  0  0  0  0  0  0  0  0  0  0  0
    8.1815   -6.0990   27.2725 N   0  0  0  0  0  0  0  0  0  0  0  0
    9.5400   -3.0471   25.7030 N   0  0  0  0  0  0  0  0  0  0  0  0
    9.9790   -4.5538   23.9870 O   0  0  0  0  0  0  0  0  0  0  0  0
   10.3588    1.6707   23.4905 Cl  0  0  0  0  0  0  0  0  0  0  0  0
    8.6572   -1.7283   28.3261 Cl  0  0  0  0  0  0  0  0  0  0  0  0
   12.9784   -1.7692   21.2774 H   0  0  0  0  0  0  0  0  0  0  0  0
   11.9379   -3.6160   22.5452 H   0  0  0  0  0  0  0  0  0  0  0  0
   12.2909    0.5660   21.6840 H   0  0  0  0  0  0  0  0  0  0  0  0
    7.5374   -3.9164   29.7788 H   0  0  0  0  0  0  0  0  0  0  0  0
    9.4861   -0.7826   24.6642 H   0  0  0  0  0  0  0  0  0  0  0  0
    7.3104   -6.3062   29.1303 H   0  0  0  0  0  0  0  0  0  0  0  0
    9.0770   -5.6670   25.4726 H   0  0  0  0  0  0  0  0  0  0  0  0
    9.6381   -2.0674   25.9578 H   0  0  0  0  0  0  0  0  0  0  0  0
  1  2  2  0  0  0  0
  1  3  1  0  0  0  0
  1 18  1  0  0  0  0
  2  8  1  0  0  0  0
  2 19  1  0  0  0  0
  3 10  2  0  0  0  0
  3 20  1  0  0  0  0
  4  6  2  0  0  0  0
  4 11  1  0  0  0  0
  4 21  1  0  0  0  0
  5  8  2  0  0  0  0
  5 10  1  0  0  0  0
  5 22  1  0  0  0  0
  6 13  1  0  0  0  0
  6 23  1  0  0  0  0
  7  9  1  0  0  0  0
  7 13  2  0  0  0  0
  7 24  1  0  0  0  0
  8 12  1  0  0  0  0
  9 11  2  0  0  0  0
  9 14  1  0  0  0  0
 10 16  1  0  0  0  0
 11 17  1  0  0  0  0
 12 14  1  0  0  0  0
 12 15  2  0  0  0  0
 14 25  1  0  0  0  0
M  END
>  <Chemgauss4 Score>
-4.90644788742065

>  <Number of Confs>
6

$$$$
