ALP-POS-c59291d4-2
  -OEChem-08222022433D

 51 54  0     0  0  0  0  0  0999 V2000
    8.0200   -4.4440   25.9270 N   0  0  0  0  0  0  0  0  0  0  0  0
    6.7870   -5.8860   28.7460 C   0  0  0  0  0  0  0  0  0  0  0  0
    8.9790   -3.8150   27.8980 O   0  0  0  0  0  0  0  0  0  0  0  0
    7.9350   -5.9760   27.7610 C   0  0  0  0  0  0  0  0  0  0  0  0
    9.5820   -0.1080   22.7000 N   0  0  0  0  0  0  0  0  0  0  0  0
    9.2950    1.3000   20.9480 O   0  0  0  0  0  0  0  0  0  0  0  0
    8.3630   -4.6360   27.2220 C   0  0  0  0  0  0  0  0  0  0  0  0
    7.2710   -0.1460   19.8310 N   0  0  0  0  0  0  0  0  0  0  0  0
    8.3450   -3.3440   25.0980 C   0  0  0  0  0  0  0  0  0  0  0  0
    7.5840   -0.2700   18.5160 N   0  0  0  0  0  0  0  0  0  0  0  0
    9.1890   -3.5540   24.0140 C   0  0  0  0  0  0  0  0  0  0  0  0
    6.7100    0.3850   17.8100 N   0  0  0  0  0  0  0  0  0  0  0  0
    9.5890   -2.4950   23.2210 C   0  0  0  0  0  0  0  0  0  0  0  0
    9.1280   -1.2090   23.4870 C   0  0  0  0  0  0  0  0  0  0  0  0
    8.2550   -1.0010   24.5520 C   0  0  0  0  0  0  0  0  0  0  0  0
    7.8700   -2.0610   25.3550 C   0  0  0  0  0  0  0  0  0  0  0  0
   10.7220    0.6590   23.1850 C   0  0  0  0  0  0  0  0  0  0  0  0
   12.0010   -0.1370   23.1560 C   0  0  0  0  0  0  0  0  0  0  0  0
   12.4650   -0.9240   22.0610 C   0  0  0  0  0  0  0  0  0  0  0  0
   13.5940   -1.6420   22.3430 C   0  0  0  0  0  0  0  0  0  0  0  0
   12.8090   -0.2700   24.2450 C   0  0  0  0  0  0  0  0  0  0  0  0
    9.0430    0.2380   21.4940 C   0  0  0  0  0  0  0  0  0  0  0  0
    8.0950   -0.7700   20.8440 C   0  0  0  0  0  0  0  0  0  0  0  0
    5.7970    0.9500   18.6730 C   0  0  0  0  0  0  0  0  0  0  0  0
    4.6610    1.7170   18.4380 C   0  0  0  0  0  0  0  0  0  0  0  0
    3.8860    2.1050   19.5250 C   0  0  0  0  0  0  0  0  0  0  0  0
    4.2460    1.7520   20.8250 C   0  0  0  0  0  0  0  0  0  0  0  0
    5.3890    1.0010   21.0690 C   0  0  0  0  0  0  0  0  0  0  0  0
    6.1460    0.6070   19.9750 C   0  0  0  0  0  0  0  0  0  0  0  0
   14.0980   -1.3460   23.9570 S   0  0  0  0  0  0  0  0  0  0  0  0
    7.4712   -5.1658   25.5054 H   0  0  0  0  0  0  0  0  0  0  0  0
    6.5259   -6.8947   29.0987 H   0  0  0  0  0  0  0  0  0  0  0  0
    7.0868   -5.2644   29.6025 H   0  0  0  0  0  0  0  0  0  0  0  0
    5.9147   -5.4333   28.2519 H   0  0  0  0  0  0  0  0  0  0  0  0
    8.7944   -6.4394   28.2676 H   0  0  0  0  0  0  0  0  0  0  0  0
    7.6223   -6.6083   26.9170 H   0  0  0  0  0  0  0  0  0  0  0  0
    9.5349   -4.5522   23.7896 H   0  0  0  0  0  0  0  0  0  0  0  0
   10.2609   -2.6658   22.3929 H   0  0  0  0  0  0  0  0  0  0  0  0
    7.8770   -0.0093   24.7522 H   0  0  0  0  0  0  0  0  0  0  0  0
    7.1986   -1.8919   26.1839 H   0  0  0  0  0  0  0  0  0  0  0  0
   10.8450    1.5492   22.5507 H   0  0  0  0  0  0  0  0  0  0  0  0
   10.5232    0.9714   24.2208 H   0  0  0  0  0  0  0  0  0  0  0  0
   11.9717   -0.9504   21.1006 H   0  0  0  0  0  0  0  0  0  0  0  0
   14.0964   -2.3006   21.6500 H   0  0  0  0  0  0  0  0  0  0  0  0
   12.6509    0.2459   25.1805 H   0  0  0  0  0  0  0  0  0  0  0  0
    7.4440   -1.1999   21.6194 H   0  0  0  0  0  0  0  0  0  0  0  0
    8.6888   -1.5705   20.3786 H   0  0  0  0  0  0  0  0  0  0  0  0
    4.3870    2.0047   17.4337 H   0  0  0  0  0  0  0  0  0  0  0  0
    2.9921    2.6883   19.3601 H   0  0  0  0  0  0  0  0  0  0  0  0
    3.6282    2.0665   21.6531 H   0  0  0  0  0  0  0  0  0  0  0  0
    5.6781    0.7333   22.0746 H   0  0  0  0  0  0  0  0  0  0  0  0
  1  7  1  0  0  0  0
  1  9  1  0  0  0  0
  2  4  1  0  0  0  0
  3  7  2  0  0  0  0
  4  7  1  0  0  0  0
  5 14  1  0  0  0  0
  5 17  1  0  0  0  0
  5 22  1  0  0  0  0
  6 22  2  0  0  0  0
  8 10  1  0  0  0  0
  8 23  1  0  0  0  0
  8 29  1  0  0  0  0
  9 11  2  0  0  0  0
  9 16  1  0  0  0  0
 10 12  2  0  0  0  0
 11 13  1  0  0  0  0
 12 24  1  0  0  0  0
 13 14  2  0  0  0  0
 14 15  1  0  0  0  0
 15 16  2  0  0  0  0
 17 18  1  0  0  0  0
 18 19  1  0  0  0  0
 18 21  2  0  0  0  0
 19 20  2  0  0  0  0
 20 30  1  0  0  0  0
 21 30  1  0  0  0  0
 22 23  1  0  0  0  0
 24 25  2  0  0  0  0
 24 29  1  0  0  0  0
 25 26  1  0  0  0  0
 26 27  2  0  0  0  0
 27 28  1  0  0  0  0
 28 29  2  0  0  0  0
  1 31  1  0  0  0  0
  2 32  1  0  0  0  0
  2 33  1  0  0  0  0
  2 34  1  0  0  0  0
  4 35  1  0  0  0  0
  4 36  1  0  0  0  0
 11 37  1  0  0  0  0
 13 38  1  0  0  0  0
 15 39  1  0  0  0  0
 16 40  1  0  0  0  0
 17 41  1  0  0  0  0
 17 42  1  0  0  0  0
 19 43  1  0  0  0  0
 20 44  1  0  0  0  0
 21 45  1  0  0  0  0
 23 46  1  0  0  0  0
 23 47  1  0  0  0  0
 25 48  1  0  0  0  0
 26 49  1  0  0  0  0
 27 50  1  0  0  0  0
 28 51  1  0  0  0  0
M  END
> <canonical_CID>
ALP-POS-c59291d4-2

> <r_inhibition_at_20_uM>

> <r_inhibition_at_50_uM>
78.12914402174

> <r_avg_IC50>
12.5622562146219

> <f_inhibition_at_20_uM>
79.65146

> <f_inhibition_at_50_uM>
89.29024

> <f_avg_IC50>
1.62763709078255

> <f_avg_pIC50>
5.78844242195303

> <relative_solubility_at_20_uM>
0.95

> <relative_solubility_at_100_uM>
0.9

> <trypsin_IC50>
99.0

> <NMR_std_ratio>

> <acrylamide>
False

> <chloroacetamide>
False

> <series>
3-aminopyridine-like

> <clash_score>
0.0

$$$$
BENZO_1_1
  -OEChem-08222022433D

 51 54  0     0  0  0  0  0  0999 V2000
   14.2642   -1.7450   23.4813 C   0  0  0  0  0  0  0  0  0  0  0  0
   14.0779   -0.6681   24.3480 C   0  0  0  0  0  0  0  0  0  0  0  0
   13.2991   -2.0403   22.5184 C   0  0  0  0  0  0  0  0  0  0  0  0
    3.8860    2.1050   19.5250 C   0  0  0  0  0  0  0  0  0  0  0  0
    4.2460    1.7520   20.8250 C   0  0  0  0  0  0  0  0  0  0  0  0
   12.9266    0.1135   24.2518 C   0  0  0  0  0  0  0  0  0  0  0  0
   12.1478   -1.2587   22.4222 C   0  0  0  0  0  0  0  0  0  0  0  0
    4.6610    1.7170   18.4380 C   0  0  0  0  0  0  0  0  0  0  0  0
    5.3890    1.0010   21.0690 C   0  0  0  0  0  0  0  0  0  0  0  0
    9.5890   -2.4950   23.2210 C   0  0  0  0  0  0  0  0  0  0  0  0
    8.2550   -1.0010   24.5520 C   0  0  0  0  0  0  0  0  0  0  0  0
    9.1890   -3.5540   24.0140 C   0  0  0  0  0  0  0  0  0  0  0  0
    7.8700   -2.0610   25.3550 C   0  0  0  0  0  0  0  0  0  0  0  0
   11.9616   -0.1817   23.2889 C   0  0  0  0  0  0  0  0  0  0  0  0
    5.7970    0.9500   18.6730 C   0  0  0  0  0  0  0  0  0  0  0  0
    6.1460    0.6070   19.9750 C   0  0  0  0  0  0  0  0  0  0  0  0
    9.1280   -1.2090   23.4870 C   0  0  0  0  0  0  0  0  0  0  0  0
    8.3450   -3.3440   25.0980 C   0  0  0  0  0  0  0  0  0  0  0  0
    9.0430    0.2380   21.4940 C   0  0  0  0  0  0  0  0  0  0  0  0
    8.4648   -5.7555   25.6631 C   0  0  0  0  0  0  0  0  0  0  0  0
    7.1043   -4.1977   27.0670 C   0  0  0  0  0  0  0  0  0  0  0  0
   10.7220    0.6590   23.1850 C   0  0  0  0  0  0  0  0  0  0  0  0
    6.7100    0.3850   17.8100 N   0  0  0  0  0  0  0  0  0  0  0  0
    7.5840   -0.2700   18.5160 N   0  0  0  0  0  0  0  0  0  0  0  0
    7.2710   -0.1460   19.8310 N   0  0  0  0  0  0  0  0  0  0  0  0
    8.0950   -0.7700   20.8440 N   0  0  0  0  0  0  0  0  0  0  0  0
    9.5820   -0.1080   22.7000 N   0  0  0  0  0  0  0  0  0  0  0  0
    7.9731   -4.4180   25.9279 N   0  0  0  0  0  0  0  0  0  0  0  0
    9.2950    1.3000   20.9480 O   0  0  0  0  0  0  0  0  0  0  0  0
   15.1613   -2.3527   23.5555 H   0  0  0  0  0  0  0  0  0  0  0  0
   14.8297   -0.4373   25.0971 H   0  0  0  0  0  0  0  0  0  0  0  0
   13.4443   -2.8780   21.8427 H   0  0  0  0  0  0  0  0  0  0  0  0
    2.9846    2.6932   19.3610 H   0  0  0  0  0  0  0  0  0  0  0  0
    3.6235    2.0692   21.6570 H   0  0  0  0  0  0  0  0  0  0  0  0
   12.7899    0.9506   24.9315 H   0  0  0  0  0  0  0  0  0  0  0  0
   11.4013   -1.4963   21.6690 H   0  0  0  0  0  0  0  0  0  0  0  0
    4.3785    2.0113   17.4257 H   0  0  0  0  0  0  0  0  0  0  0  0
    5.6763    0.7332   22.0915 H   0  0  0  0  0  0  0  0  0  0  0  0
   10.2682   -2.6746   22.3864 H   0  0  0  0  0  0  0  0  0  0  0  0
    7.8692   -0.0022   24.7600 H   0  0  0  0  0  0  0  0  0  0  0  0
    9.5433   -4.5619   23.7809 H   0  0  0  0  0  0  0  0  0  0  0  0
    7.1923   -1.8829   26.1908 H   0  0  0  0  0  0  0  0  0  0  0  0
    8.0648   -6.4497   26.4169 H   0  0  0  0  0  0  0  0  0  0  0  0
    8.1393   -6.0741   24.6619 H   0  0  0  0  0  0  0  0  0  0  0  0
    9.5638   -5.7577   25.7094 H   0  0  0  0  0  0  0  0  0  0  0  0
    6.9311   -5.1516   27.5867 H   0  0  0  0  0  0  0  0  0  0  0  0
    7.5789   -3.4850   27.7576 H   0  0  0  0  0  0  0  0  0  0  0  0
    6.1433   -3.7889   26.7215 H   0  0  0  0  0  0  0  0  0  0  0  0
   10.4561    1.0772   24.1620 H   0  0  0  0  0  0  0  0  0  0  0  0
   10.8743    1.5008   22.5014 H   0  0  0  0  0  0  0  0  0  0  0  0
    8.0593   -1.6239   21.0632 H   0  0  0  0  0  0  0  0  0  0  0  0
  1  2  1  0  0  0  0
  1  3  2  0  0  0  0
  2  6  2  0  0  0  0
  3  7  1  0  0  0  0
  4  5  1  0  0  0  0
  4  8  2  0  0  0  0
  5  9  2  0  0  0  0
  6 14  1  0  0  0  0
  7 14  2  0  0  0  0
  8 15  1  0  0  0  0
  9 16  1  0  0  0  0
 10 12  2  0  0  0  0
 10 17  1  0  0  0  0
 11 13  1  0  0  0  0
 11 17  2  0  0  0  0
 12 18  1  0  0  0  0
 13 18  2  0  0  0  0
 14 22  1  0  0  0  0
 15 16  2  0  0  0  0
 15 23  1  0  0  0  0
 16 25  1  0  0  0  0
 17 27  1  0  0  0  0
 18 28  1  0  0  0  0
 19 26  1  0  0  0  0
 19 27  1  0  0  0  0
 19 29  2  0  0  0  0
 20 28  1  0  0  0  0
 21 28  1  0  0  0  0
 22 27  1  0  0  0  0
 23 24  2  0  0  0  0
 24 25  1  0  0  0  0
 25 26  1  0  0  0  0
  1 30  1  0  0  0  0
  2 31  1  0  0  0  0
  3 32  1  0  0  0  0
  4 33  1  0  0  0  0
  5 34  1  0  0  0  0
  6 35  1  0  0  0  0
  7 36  1  0  0  0  0
  8 37  1  0  0  0  0
  9 38  1  0  0  0  0
 10 39  1  0  0  0  0
 11 40  1  0  0  0  0
 12 41  1  0  0  0  0
 13 42  1  0  0  0  0
 20 43  1  0  0  0  0
 20 44  1  0  0  0  0
 20 45  1  0  0  0  0
 21 46  1  0  0  0  0
 21 47  1  0  0  0  0
 21 48  1  0  0  0  0
 22 49  1  0  0  0  0
 22 50  1  0  0  0  0
 26 51  1  0  0  0  0
M  END
> <clash_score>
0

> <docking_score>
-9.325623512268066

> <overlap_score>
0.9344972372055054

$$$$
BENZO_5_1
  -OEChem-08222022433D

 53 56  0     0  0  0  0  0  0999 V2000
   14.2642   -1.7450   23.4813 C   0  0  0  0  0  0  0  0  0  0  0  0
   14.0779   -0.6681   24.3480 C   0  0  0  0  0  0  0  0  0  0  0  0
   13.2991   -2.0403   22.5184 C   0  0  0  0  0  0  0  0  0  0  0  0
    3.8860    2.1050   19.5250 C   0  0  0  0  0  0  0  0  0  0  0  0
    4.2460    1.7520   20.8250 C   0  0  0  0  0  0  0  0  0  0  0  0
   12.9266    0.1135   24.2518 C   0  0  0  0  0  0  0  0  0  0  0  0
   12.1478   -1.2587   22.4222 C   0  0  0  0  0  0  0  0  0  0  0  0
    4.6610    1.7170   18.4380 C   0  0  0  0  0  0  0  0  0  0  0  0
    5.3890    1.0010   21.0690 C   0  0  0  0  0  0  0  0  0  0  0  0
    9.1890   -3.5540   24.0140 C   0  0  0  0  0  0  0  0  0  0  0  0
    7.8700   -2.0610   25.3550 C   0  0  0  0  0  0  0  0  0  0  0  0
    9.5890   -2.4950   23.2210 C   0  0  0  0  0  0  0  0  0  0  0  0
    8.2550   -1.0010   24.5520 C   0  0  0  0  0  0  0  0  0  0  0  0
   11.9616   -0.1817   23.2889 C   0  0  0  0  0  0  0  0  0  0  0  0
    5.7970    0.9500   18.6730 C   0  0  0  0  0  0  0  0  0  0  0  0
    6.1460    0.6070   19.9750 C   0  0  0  0  0  0  0  0  0  0  0  0
    8.3450   -3.3440   25.0980 C   0  0  0  0  0  0  0  0  0  0  0  0
    9.1280   -1.2090   23.4870 C   0  0  0  0  0  0  0  0  0  0  0  0
    7.1414   -4.3827   27.0480 C   0  0  0  0  0  0  0  0  0  0  0  0
    9.0430    0.2380   21.4940 C   0  0  0  0  0  0  0  0  0  0  0  0
    8.0788   -6.0701   28.6849 C   0  0  0  0  0  0  0  0  0  0  0  0
   10.7220    0.6590   23.1850 C   0  0  0  0  0  0  0  0  0  0  0  0
    7.0022   -5.7697   27.6575 C   0  0  0  0  0  0  0  0  0  0  0  0
    6.7100    0.3850   17.8100 N   0  0  0  0  0  0  0  0  0  0  0  0
    7.5840   -0.2700   18.5160 N   0  0  0  0  0  0  0  0  0  0  0  0
    7.2710   -0.1460   19.8310 N   0  0  0  0  0  0  0  0  0  0  0  0
    7.9771   -4.4058   25.9196 N   0  0  0  0  0  0  0  0  0  0  0  0
    8.0950   -0.7700   20.8440 N   0  0  0  0  0  0  0  0  0  0  0  0
    9.5820   -0.1080   22.7000 N   0  0  0  0  0  0  0  0  0  0  0  0
    6.5738   -3.4040   27.5217 O   0  0  0  0  0  0  0  0  0  0  0  0
    9.2950    1.3000   20.9480 O   0  0  0  0  0  0  0  0  0  0  0  0
   15.1613   -2.3527   23.5555 H   0  0  0  0  0  0  0  0  0  0  0  0
   14.8297   -0.4373   25.0971 H   0  0  0  0  0  0  0  0  0  0  0  0
   13.4443   -2.8780   21.8427 H   0  0  0  0  0  0  0  0  0  0  0  0
    2.9846    2.6932   19.3610 H   0  0  0  0  0  0  0  0  0  0  0  0
    3.6235    2.0692   21.6570 H   0  0  0  0  0  0  0  0  0  0  0  0
   12.7899    0.9506   24.9315 H   0  0  0  0  0  0  0  0  0  0  0  0
   11.4013   -1.4963   21.6690 H   0  0  0  0  0  0  0  0  0  0  0  0
    4.3785    2.0113   17.4257 H   0  0  0  0  0  0  0  0  0  0  0  0
    5.6763    0.7332   22.0915 H   0  0  0  0  0  0  0  0  0  0  0  0
    9.5436   -4.5614   23.7799 H   0  0  0  0  0  0  0  0  0  0  0  0
    7.1918   -1.8823   26.1906 H   0  0  0  0  0  0  0  0  0  0  0  0
   10.2676   -2.6754   22.3861 H   0  0  0  0  0  0  0  0  0  0  0  0
    7.8686   -0.0026   24.7598 H   0  0  0  0  0  0  0  0  0  0  0  0
    9.0770   -6.0025   28.2398 H   0  0  0  0  0  0  0  0  0  0  0  0
    7.9512   -7.0801   29.0865 H   0  0  0  0  0  0  0  0  0  0  0  0
    8.0347   -5.3622   29.5191 H   0  0  0  0  0  0  0  0  0  0  0  0
   10.4561    1.0772   24.1620 H   0  0  0  0  0  0  0  0  0  0  0  0
   10.8743    1.5008   22.5014 H   0  0  0  0  0  0  0  0  0  0  0  0
    6.0157   -5.8445   28.1295 H   0  0  0  0  0  0  0  0  0  0  0  0
    7.0497   -6.5103   26.8509 H   0  0  0  0  0  0  0  0  0  0  0  0
    8.3624   -5.3252   25.6740 H   0  0  0  0  0  0  0  0  0  0  0  0
    8.0593   -1.6239   21.0632 H   0  0  0  0  0  0  0  0  0  0  0  0
  1  2  1  0  0  0  0
  1  3  2  0  0  0  0
  2  6  2  0  0  0  0
  3  7  1  0  0  0  0
  4  5  1  0  0  0  0
  4  8  2  0  0  0  0
  5  9  2  0  0  0  0
  6 14  1  0  0  0  0
  7 14  2  0  0  0  0
  8 15  1  0  0  0  0
  9 16  1  0  0  0  0
 10 12  2  0  0  0  0
 10 17  1  0  0  0  0
 11 13  1  0  0  0  0
 11 17  2  0  0  0  0
 12 18  1  0  0  0  0
 13 18  2  0  0  0  0
 14 22  1  0  0  0  0
 15 16  2  0  0  0  0
 15 24  1  0  0  0  0
 16 26  1  0  0  0  0
 17 27  1  0  0  0  0
 18 29  1  0  0  0  0
 19 23  1  0  0  0  0
 19 27  1  0  0  0  0
 19 30  2  0  0  0  0
 20 28  1  0  0  0  0
 20 29  1  0  0  0  0
 20 31  2  0  0  0  0
 21 23  1  0  0  0  0
 22 29  1  0  0  0  0
 24 25  2  0  0  0  0
 25 26  1  0  0  0  0
 26 28  1  0  0  0  0
  1 32  1  0  0  0  0
  2 33  1  0  0  0  0
  3 34  1  0  0  0  0
  4 35  1  0  0  0  0
  5 36  1  0  0  0  0
  6 37  1  0  0  0  0
  7 38  1  0  0  0  0
  8 39  1  0  0  0  0
  9 40  1  0  0  0  0
 10 41  1  0  0  0  0
 11 42  1  0  0  0  0
 12 43  1  0  0  0  0
 13 44  1  0  0  0  0
 21 45  1  0  0  0  0
 21 46  1  0  0  0  0
 21 47  1  0  0  0  0
 22 48  1  0  0  0  0
 22 49  1  0  0  0  0
 23 50  1  0  0  0  0
 23 51  1  0  0  0  0
 27 52  1  0  0  0  0
 28 53  1  0  0  0  0
M  END
> <clash_score>
0

> <docking_score>
-8.886115074157715

> <overlap_score>
0.9713157415390015

$$$$
BENZO_3_1
  -OEChem-08222022433D

 51 54  0     0  0  0  0  0  0999 V2000
    3.8860    2.1050   19.5250 C   0  0  0  0  0  0  0  0  0  0  0  0
    4.2460    1.7520   20.8250 C   0  0  0  0  0  0  0  0  0  0  0  0
    4.6610    1.7170   18.4380 C   0  0  0  0  0  0  0  0  0  0  0  0
    5.3890    1.0010   21.0690 C   0  0  0  0  0  0  0  0  0  0  0  0
    9.5890   -2.4950   23.2210 C   0  0  0  0  0  0  0  0  0  0  0  0
    8.2550   -1.0010   24.5520 C   0  0  0  0  0  0  0  0  0  0  0  0
    9.1890   -3.5540   24.0140 C   0  0  0  0  0  0  0  0  0  0  0  0
    7.8700   -2.0610   25.3550 C   0  0  0  0  0  0  0  0  0  0  0  0
   12.7320   -0.4464   24.4370 C   0  0  0  0  0  0  0  0  0  0  0  0
   12.5970   -0.8682   22.2832 C   0  0  0  0  0  0  0  0  0  0  0  0
   11.9616   -0.1817   23.2889 C   0  0  0  0  0  0  0  0  0  0  0  0
    5.7970    0.9500   18.6730 C   0  0  0  0  0  0  0  0  0  0  0  0
    6.1460    0.6070   19.9750 C   0  0  0  0  0  0  0  0  0  0  0  0
    9.1280   -1.2090   23.4870 C   0  0  0  0  0  0  0  0  0  0  0  0
    8.3450   -3.3440   25.0980 C   0  0  0  0  0  0  0  0  0  0  0  0
    9.0430    0.2380   21.4940 C   0  0  0  0  0  0  0  0  0  0  0  0
   14.6393   -2.3180   22.2082 C   0  0  0  0  0  0  0  0  0  0  0  0
    7.2639   -5.5576   25.3810 C   0  0  0  0  0  0  0  0  0  0  0  0
    8.3072   -4.4047   27.3383 C   0  0  0  0  0  0  0  0  0  0  0  0
   10.7220    0.6590   23.1850 C   0  0  0  0  0  0  0  0  0  0  0  0
   13.7770   -1.2393   24.1852 N   0  0  0  0  0  0  0  0  0  0  0  0
    6.7100    0.3850   17.8100 N   0  0  0  0  0  0  0  0  0  0  0  0
    7.5840   -0.2700   18.5160 N   0  0  0  0  0  0  0  0  0  0  0  0
   13.6676   -1.4788   22.8673 N   0  0  0  0  0  0  0  0  0  0  0  0
    7.2710   -0.1460   19.8310 N   0  0  0  0  0  0  0  0  0  0  0  0
    8.0950   -0.7700   20.8440 N   0  0  0  0  0  0  0  0  0  0  0  0
    9.5820   -0.1080   22.7000 N   0  0  0  0  0  0  0  0  0  0  0  0
    7.9731   -4.4180   25.9279 N   0  0  0  0  0  0  0  0  0  0  0  0
    9.2950    1.3000   20.9480 O   0  0  0  0  0  0  0  0  0  0  0  0
    2.9846    2.6932   19.3610 H   0  0  0  0  0  0  0  0  0  0  0  0
    3.6235    2.0692   21.6570 H   0  0  0  0  0  0  0  0  0  0  0  0
    4.3785    2.0113   17.4257 H   0  0  0  0  0  0  0  0  0  0  0  0
    5.6763    0.7332   22.0915 H   0  0  0  0  0  0  0  0  0  0  0  0
   10.2682   -2.6746   22.3864 H   0  0  0  0  0  0  0  0  0  0  0  0
    7.8692   -0.0022   24.7600 H   0  0  0  0  0  0  0  0  0  0  0  0
    9.5433   -4.5619   23.7809 H   0  0  0  0  0  0  0  0  0  0  0  0
    7.1923   -1.8829   26.1908 H   0  0  0  0  0  0  0  0  0  0  0  0
   12.5771   -0.0965   25.4478 H   0  0  0  0  0  0  0  0  0  0  0  0
   12.3832   -0.9726   21.2281 H   0  0  0  0  0  0  0  0  0  0  0  0
   15.4522   -1.6787   21.8540 H   0  0  0  0  0  0  0  0  0  0  0  0
   15.0179   -3.0613   22.9154 H   0  0  0  0  0  0  0  0  0  0  0  0
   14.1626   -2.8324   21.3691 H   0  0  0  0  0  0  0  0  0  0  0  0
    7.0648   -6.2850   26.1817 H   0  0  0  0  0  0  0  0  0  0  0  0
    6.3111   -5.2219   24.9456 H   0  0  0  0  0  0  0  0  0  0  0  0
    7.8773   -6.0308   24.6001 H   0  0  0  0  0  0  0  0  0  0  0  0
    7.9341   -5.3244   27.8127 H   0  0  0  0  0  0  0  0  0  0  0  0
    9.3994   -4.3488   27.4557 H   0  0  0  0  0  0  0  0  0  0  0  0
    7.8417   -3.5305   27.8170 H   0  0  0  0  0  0  0  0  0  0  0  0
   10.4561    1.0772   24.1620 H   0  0  0  0  0  0  0  0  0  0  0  0
   10.8743    1.5008   22.5014 H   0  0  0  0  0  0  0  0  0  0  0  0
    8.0593   -1.6239   21.0632 H   0  0  0  0  0  0  0  0  0  0  0  0
  1  2  1  0  0  0  0
  1  3  2  0  0  0  0
  2  4  2  0  0  0  0
  3 12  1  0  0  0  0
  4 13  1  0  0  0  0
  5  7  2  0  0  0  0
  5 14  1  0  0  0  0
  6  8  1  0  0  0  0
  6 14  2  0  0  0  0
  7 15  1  0  0  0  0
  8 15  2  0  0  0  0
  9 11  1  0  0  0  0
  9 21  2  0  0  0  0
 10 11  2  0  0  0  0
 10 24  1  0  0  0  0
 11 20  1  0  0  0  0
 12 13  2  0  0  0  0
 12 22  1  0  0  0  0
 13 25  1  0  0  0  0
 14 27  1  0  0  0  0
 15 28  1  0  0  0  0
 16 26  1  0  0  0  0
 16 27  1  0  0  0  0
 16 29  2  0  0  0  0
 17 24  1  0  0  0  0
 18 28  1  0  0  0  0
 19 28  1  0  0  0  0
 20 27  1  0  0  0  0
 21 24  1  0  0  0  0
 22 23  2  0  0  0  0
 23 25  1  0  0  0  0
 25 26  1  0  0  0  0
  1 30  1  0  0  0  0
  2 31  1  0  0  0  0
  3 32  1  0  0  0  0
  4 33  1  0  0  0  0
  5 34  1  0  0  0  0
  6 35  1  0  0  0  0
  7 36  1  0  0  0  0
  8 37  1  0  0  0  0
  9 38  1  0  0  0  0
 10 39  1  0  0  0  0
 17 40  1  0  0  0  0
 17 41  1  0  0  0  0
 17 42  1  0  0  0  0
 18 43  1  0  0  0  0
 18 44  1  0  0  0  0
 18 45  1  0  0  0  0
 19 46  1  0  0  0  0
 19 47  1  0  0  0  0
 19 48  1  0  0  0  0
 20 49  1  0  0  0  0
 20 50  1  0  0  0  0
 26 51  1  0  0  0  0
M  END
> <clash_score>
0

> <docking_score>
-7.647930145263672

> <overlap_score>
0.949985146522522

$$$$
BENZO_0_1
  -OEChem-08222022433D

 48 51  0     0  0  0  0  0  0999 V2000
    3.8860    2.1050   19.5250 C   0  0  0  0  0  0  0  0  0  0  0  0
    4.2460    1.7520   20.8250 C   0  0  0  0  0  0  0  0  0  0  0  0
    4.6610    1.7170   18.4380 C   0  0  0  0  0  0  0  0  0  0  0  0
    5.3890    1.0010   21.0690 C   0  0  0  0  0  0  0  0  0  0  0  0
    9.5890   -2.4950   23.2210 C   0  0  0  0  0  0  0  0  0  0  0  0
    8.2550   -1.0010   24.5520 C   0  0  0  0  0  0  0  0  0  0  0  0
    9.1890   -3.5540   24.0140 C   0  0  0  0  0  0  0  0  0  0  0  0
    7.8700   -2.0610   25.3550 C   0  0  0  0  0  0  0  0  0  0  0  0
   12.6785   -0.3937   24.5018 C   0  0  0  0  0  0  0  0  0  0  0  0
   13.7775   -1.2037   24.3186 C   0  0  0  0  0  0  0  0  0  0  0  0
   12.5401   -0.8378   22.2246 C   0  0  0  0  0  0  0  0  0  0  0  0
   11.9616   -0.1817   23.2889 C   0  0  0  0  0  0  0  0  0  0  0  0
    5.7970    0.9500   18.6730 C   0  0  0  0  0  0  0  0  0  0  0  0
    6.1460    0.6070   19.9750 C   0  0  0  0  0  0  0  0  0  0  0  0
    9.1280   -1.2090   23.4870 C   0  0  0  0  0  0  0  0  0  0  0  0
    8.3450   -3.3440   25.0980 C   0  0  0  0  0  0  0  0  0  0  0  0
    9.0430    0.2380   21.4940 C   0  0  0  0  0  0  0  0  0  0  0  0
    7.2639   -5.5576   25.3810 C   0  0  0  0  0  0  0  0  0  0  0  0
    8.3072   -4.4047   27.3383 C   0  0  0  0  0  0  0  0  0  0  0  0
   10.7220    0.6590   23.1850 C   0  0  0  0  0  0  0  0  0  0  0  0
    6.7100    0.3850   17.8100 N   0  0  0  0  0  0  0  0  0  0  0  0
    7.5840   -0.2700   18.5160 N   0  0  0  0  0  0  0  0  0  0  0  0
    7.2710   -0.1460   19.8310 N   0  0  0  0  0  0  0  0  0  0  0  0
    8.0950   -0.7700   20.8440 N   0  0  0  0  0  0  0  0  0  0  0  0
    9.5820   -0.1080   22.7000 N   0  0  0  0  0  0  0  0  0  0  0  0
    7.9731   -4.4180   25.9279 N   0  0  0  0  0  0  0  0  0  0  0  0
    9.2950    1.3000   20.9480 O   0  0  0  0  0  0  0  0  0  0  0  0
   13.9416   -1.7051   22.6894 S   0  0  0  0  0  0  0  0  0  0  0  0
    2.9846    2.6932   19.3610 H   0  0  0  0  0  0  0  0  0  0  0  0
    3.6235    2.0692   21.6570 H   0  0  0  0  0  0  0  0  0  0  0  0
    4.3785    2.0113   17.4257 H   0  0  0  0  0  0  0  0  0  0  0  0
    5.6763    0.7332   22.0915 H   0  0  0  0  0  0  0  0  0  0  0  0
   10.2682   -2.6746   22.3864 H   0  0  0  0  0  0  0  0  0  0  0  0
    7.8692   -0.0022   24.7600 H   0  0  0  0  0  0  0  0  0  0  0  0
    9.5433   -4.5619   23.7809 H   0  0  0  0  0  0  0  0  0  0  0  0
    7.1923   -1.8829   26.1908 H   0  0  0  0  0  0  0  0  0  0  0  0
   12.4058    0.0253   25.4623 H   0  0  0  0  0  0  0  0  0  0  0  0
   14.4923   -1.5246   25.0631 H   0  0  0  0  0  0  0  0  0  0  0  0
   12.2108   -0.8511   21.1948 H   0  0  0  0  0  0  0  0  0  0  0  0
    7.0648   -6.2850   26.1817 H   0  0  0  0  0  0  0  0  0  0  0  0
    6.3111   -5.2219   24.9456 H   0  0  0  0  0  0  0  0  0  0  0  0
    7.8773   -6.0308   24.6001 H   0  0  0  0  0  0  0  0  0  0  0  0
    7.9341   -5.3244   27.8127 H   0  0  0  0  0  0  0  0  0  0  0  0
    9.3994   -4.3488   27.4557 H   0  0  0  0  0  0  0  0  0  0  0  0
    7.8417   -3.5305   27.8170 H   0  0  0  0  0  0  0  0  0  0  0  0
   10.4561    1.0772   24.1620 H   0  0  0  0  0  0  0  0  0  0  0  0
   10.8743    1.5008   22.5014 H   0  0  0  0  0  0  0  0  0  0  0  0
    8.0593   -1.6239   21.0632 H   0  0  0  0  0  0  0  0  0  0  0  0
  1  2  1  0  0  0  0
  1  3  2  0  0  0  0
  2  4  2  0  0  0  0
  3 13  1  0  0  0  0
  4 14  1  0  0  0  0
  5  7  2  0  0  0  0
  5 15  1  0  0  0  0
  6  8  1  0  0  0  0
  6 15  2  0  0  0  0
  7 16  1  0  0  0  0
  8 16  2  0  0  0  0
  9 10  2  0  0  0  0
  9 12  1  0  0  0  0
 10 28  1  0  0  0  0
 11 12  2  0  0  0  0
 11 28  1  0  0  0  0
 12 20  1  0  0  0  0
 13 14  2  0  0  0  0
 13 21  1  0  0  0  0
 14 23  1  0  0  0  0
 15 25  1  0  0  0  0
 16 26  1  0  0  0  0
 17 24  1  0  0  0  0
 17 25  1  0  0  0  0
 17 27  2  0  0  0  0
 18 26  1  0  0  0  0
 19 26  1  0  0  0  0
 20 25  1  0  0  0  0
 21 22  2  0  0  0  0
 22 23  1  0  0  0  0
 23 24  1  0  0  0  0
  1 29  1  0  0  0  0
  2 30  1  0  0  0  0
  3 31  1  0  0  0  0
  4 32  1  0  0  0  0
  5 33  1  0  0  0  0
  6 34  1  0  0  0  0
  7 35  1  0  0  0  0
  8 36  1  0  0  0  0
  9 37  1  0  0  0  0
 10 38  1  0  0  0  0
 11 39  1  0  0  0  0
 18 40  1  0  0  0  0
 18 41  1  0  0  0  0
 18 42  1  0  0  0  0
 19 43  1  0  0  0  0
 19 44  1  0  0  0  0
 19 45  1  0  0  0  0
 20 46  1  0  0  0  0
 20 47  1  0  0  0  0
 24 48  1  0  0  0  0
M  END
> <clash_score>
0

> <docking_score>
-8.898711204528809

> <overlap_score>
0.9331554174423218

$$$$
BENZO_2_1
  -OEChem-08222022433D

 51 54  0     0  0  0  0  0  0999 V2000
    3.8860    2.1050   19.5250 C   0  0  0  0  0  0  0  0  0  0  0  0
    4.2460    1.7520   20.8250 C   0  0  0  0  0  0  0  0  0  0  0  0
   13.7501   -1.1157   24.6176 C   0  0  0  0  0  0  0  0  0  0  0  0
   12.5991   -0.3339   24.5202 C   0  0  0  0  0  0  0  0  0  0  0  0
    4.6610    1.7170   18.4380 C   0  0  0  0  0  0  0  0  0  0  0  0
    5.3890    1.0010   21.0690 C   0  0  0  0  0  0  0  0  0  0  0  0
    9.5890   -2.4950   23.2210 C   0  0  0  0  0  0  0  0  0  0  0  0
    8.2550   -1.0010   24.5520 C   0  0  0  0  0  0  0  0  0  0  0  0
    9.1890   -3.5540   24.0140 C   0  0  0  0  0  0  0  0  0  0  0  0
    7.8700   -2.0610   25.3550 C   0  0  0  0  0  0  0  0  0  0  0  0
   14.2636   -1.7454   23.4838 C   0  0  0  0  0  0  0  0  0  0  0  0
   12.4750   -0.8115   22.1551 C   0  0  0  0  0  0  0  0  0  0  0  0
   11.9616   -0.1817   23.2889 C   0  0  0  0  0  0  0  0  0  0  0  0
    5.7970    0.9500   18.6730 C   0  0  0  0  0  0  0  0  0  0  0  0
    6.1460    0.6070   19.9750 C   0  0  0  0  0  0  0  0  0  0  0  0
    9.1280   -1.2090   23.4870 C   0  0  0  0  0  0  0  0  0  0  0  0
    8.3450   -3.3440   25.0980 C   0  0  0  0  0  0  0  0  0  0  0  0
   13.6260   -1.5933   22.2526 C   0  0  0  0  0  0  0  0  0  0  0  0
    9.0430    0.2380   21.4940 C   0  0  0  0  0  0  0  0  0  0  0  0
    7.2639   -5.5576   25.3810 C   0  0  0  0  0  0  0  0  0  0  0  0
    8.3072   -4.4047   27.3383 C   0  0  0  0  0  0  0  0  0  0  0  0
   10.7220    0.6590   23.1850 C   0  0  0  0  0  0  0  0  0  0  0  0
    6.7100    0.3850   17.8100 N   0  0  0  0  0  0  0  0  0  0  0  0
    7.5840   -0.2700   18.5160 N   0  0  0  0  0  0  0  0  0  0  0  0
    7.2710   -0.1460   19.8310 N   0  0  0  0  0  0  0  0  0  0  0  0
    8.0950   -0.7700   20.8440 N   0  0  0  0  0  0  0  0  0  0  0  0
    9.5820   -0.1080   22.7000 N   0  0  0  0  0  0  0  0  0  0  0  0
    7.9731   -4.4180   25.9279 N   0  0  0  0  0  0  0  0  0  0  0  0
    9.2950    1.3000   20.9480 O   0  0  0  0  0  0  0  0  0  0  0  0
   14.2594   -2.3714   20.8543 Cl  0  0  0  0  0  0  0  0  0  0  0  0
    2.9846    2.6932   19.3610 H   0  0  0  0  0  0  0  0  0  0  0  0
    3.6235    2.0692   21.6570 H   0  0  0  0  0  0  0  0  0  0  0  0
   14.2462   -1.2340   25.5766 H   0  0  0  0  0  0  0  0  0  0  0  0
   12.2060    0.1530   25.4088 H   0  0  0  0  0  0  0  0  0  0  0  0
    4.3785    2.0113   17.4257 H   0  0  0  0  0  0  0  0  0  0  0  0
    5.6763    0.7332   22.0915 H   0  0  0  0  0  0  0  0  0  0  0  0
   10.2682   -2.6746   22.3864 H   0  0  0  0  0  0  0  0  0  0  0  0
    7.8692   -0.0022   24.7600 H   0  0  0  0  0  0  0  0  0  0  0  0
    9.5433   -4.5619   23.7809 H   0  0  0  0  0  0  0  0  0  0  0  0
    7.1923   -1.8829   26.1908 H   0  0  0  0  0  0  0  0  0  0  0  0
   15.1613   -2.3520   23.5747 H   0  0  0  0  0  0  0  0  0  0  0  0
   11.9745   -0.6893   21.1973 H   0  0  0  0  0  0  0  0  0  0  0  0
    7.0648   -6.2850   26.1817 H   0  0  0  0  0  0  0  0  0  0  0  0
    6.3111   -5.2219   24.9456 H   0  0  0  0  0  0  0  0  0  0  0  0
    7.8773   -6.0308   24.6001 H   0  0  0  0  0  0  0  0  0  0  0  0
    7.9341   -5.3244   27.8127 H   0  0  0  0  0  0  0  0  0  0  0  0
    9.3994   -4.3488   27.4557 H   0  0  0  0  0  0  0  0  0  0  0  0
    7.8417   -3.5305   27.8170 H   0  0  0  0  0  0  0  0  0  0  0  0
   10.4561    1.0772   24.1620 H   0  0  0  0  0  0  0  0  0  0  0  0
   10.8743    1.5008   22.5014 H   0  0  0  0  0  0  0  0  0  0  0  0
    8.0593   -1.6239   21.0632 H   0  0  0  0  0  0  0  0  0  0  0  0
  1  2  1  0  0  0  0
  1  5  2  0  0  0  0
  2  6  2  0  0  0  0
  3  4  2  0  0  0  0
  3 11  1  0  0  0  0
  4 13  1  0  0  0  0
  5 14  1  0  0  0  0
  6 15  1  0  0  0  0
  7  9  2  0  0  0  0
  7 16  1  0  0  0  0
  8 10  1  0  0  0  0
  8 16  2  0  0  0  0
  9 17  1  0  0  0  0
 10 17  2  0  0  0  0
 11 18  2  0  0  0  0
 12 13  2  0  0  0  0
 12 18  1  0  0  0  0
 13 22  1  0  0  0  0
 14 15  2  0  0  0  0
 14 23  1  0  0  0  0
 15 25  1  0  0  0  0
 16 27  1  0  0  0  0
 17 28  1  0  0  0  0
 18 30  1  0  0  0  0
 19 26  1  0  0  0  0
 19 27  1  0  0  0  0
 19 29  2  0  0  0  0
 20 28  1  0  0  0  0
 21 28  1  0  0  0  0
 22 27  1  0  0  0  0
 23 24  2  0  0  0  0
 24 25  1  0  0  0  0
 25 26  1  0  0  0  0
  1 31  1  0  0  0  0
  2 32  1  0  0  0  0
  3 33  1  0  0  0  0
  4 34  1  0  0  0  0
  5 35  1  0  0  0  0
  6 36  1  0  0  0  0
  7 37  1  0  0  0  0
  8 38  1  0  0  0  0
  9 39  1  0  0  0  0
 10 40  1  0  0  0  0
 11 41  1  0  0  0  0
 12 42  1  0  0  0  0
 20 43  1  0  0  0  0
 20 44  1  0  0  0  0
 20 45  1  0  0  0  0
 21 46  1  0  0  0  0
 21 47  1  0  0  0  0
 21 48  1  0  0  0  0
 22 49  1  0  0  0  0
 22 50  1  0  0  0  0
 26 51  1  0  0  0  0
M  END
> <clash_score>
0

> <docking_score>
-8.411908149719238

> <overlap_score>
0.9545691013336182

$$$$
BENZO_4_1
  -OEChem-08222022433D

 50 53  0     0  0  0  0  0  0999 V2000
    3.8860    2.1050   19.5250 C   0  0  0  0  0  0  0  0  0  0  0  0
    4.2460    1.7520   20.8250 C   0  0  0  0  0  0  0  0  0  0  0  0
    4.6610    1.7170   18.4380 C   0  0  0  0  0  0  0  0  0  0  0  0
    5.3890    1.0010   21.0690 C   0  0  0  0  0  0  0  0  0  0  0  0
    9.1890   -3.5540   24.0140 C   0  0  0  0  0  0  0  0  0  0  0  0
    7.8700   -2.0610   25.3550 C   0  0  0  0  0  0  0  0  0  0  0  0
    9.5890   -2.4950   23.2210 C   0  0  0  0  0  0  0  0  0  0  0  0
    8.2550   -1.0010   24.5520 C   0  0  0  0  0  0  0  0  0  0  0  0
   12.6785   -0.3937   24.5018 C   0  0  0  0  0  0  0  0  0  0  0  0
   13.7775   -1.2037   24.3186 C   0  0  0  0  0  0  0  0  0  0  0  0
   12.5401   -0.8378   22.2246 C   0  0  0  0  0  0  0  0  0  0  0  0
   11.9616   -0.1817   23.2889 C   0  0  0  0  0  0  0  0  0  0  0  0
    5.7970    0.9500   18.6730 C   0  0  0  0  0  0  0  0  0  0  0  0
    6.1460    0.6070   19.9750 C   0  0  0  0  0  0  0  0  0  0  0  0
    8.3450   -3.3440   25.0980 C   0  0  0  0  0  0  0  0  0  0  0  0
    9.1280   -1.2090   23.4870 C   0  0  0  0  0  0  0  0  0  0  0  0
    8.2015   -4.5568   27.2976 C   0  0  0  0  0  0  0  0  0  0  0  0
    9.0430    0.2380   21.4940 C   0  0  0  0  0  0  0  0  0  0  0  0
    7.8869   -6.0889   29.2874 C   0  0  0  0  0  0  0  0  0  0  0  0
   10.7220    0.6590   23.1850 C   0  0  0  0  0  0  0  0  0  0  0  0
    7.6334   -5.8734   27.8062 C   0  0  0  0  0  0  0  0  0  0  0  0
    6.7100    0.3850   17.8100 N   0  0  0  0  0  0  0  0  0  0  0  0
    7.5840   -0.2700   18.5160 N   0  0  0  0  0  0  0  0  0  0  0  0
    7.2710   -0.1460   19.8310 N   0  0  0  0  0  0  0  0  0  0  0  0
    7.9771   -4.4058   25.9196 N   0  0  0  0  0  0  0  0  0  0  0  0
    8.0950   -0.7700   20.8440 N   0  0  0  0  0  0  0  0  0  0  0  0
    9.5820   -0.1080   22.7000 N   0  0  0  0  0  0  0  0  0  0  0  0
    8.7729   -3.7649   28.0399 O   0  0  0  0  0  0  0  0  0  0  0  0
    9.2950    1.3000   20.9480 O   0  0  0  0  0  0  0  0  0  0  0  0
   13.9416   -1.7051   22.6894 S   0  0  0  0  0  0  0  0  0  0  0  0
    2.9846    2.6932   19.3610 H   0  0  0  0  0  0  0  0  0  0  0  0
    3.6235    2.0692   21.6570 H   0  0  0  0  0  0  0  0  0  0  0  0
    4.3785    2.0113   17.4257 H   0  0  0  0  0  0  0  0  0  0  0  0
    5.6763    0.7332   22.0915 H   0  0  0  0  0  0  0  0  0  0  0  0
    9.5436   -4.5614   23.7799 H   0  0  0  0  0  0  0  0  0  0  0  0
    7.1918   -1.8823   26.1906 H   0  0  0  0  0  0  0  0  0  0  0  0
   10.2676   -2.6754   22.3861 H   0  0  0  0  0  0  0  0  0  0  0  0
    7.8686   -0.0026   24.7598 H   0  0  0  0  0  0  0  0  0  0  0  0
   12.4058    0.0253   25.4623 H   0  0  0  0  0  0  0  0  0  0  0  0
   14.4923   -1.5246   25.0631 H   0  0  0  0  0  0  0  0  0  0  0  0
   12.2108   -0.8511   21.1948 H   0  0  0  0  0  0  0  0  0  0  0  0
    8.9595   -6.0839   29.5077 H   0  0  0  0  0  0  0  0  0  0  0  0
    7.4764   -7.0513   29.6082 H   0  0  0  0  0  0  0  0  0  0  0  0
    7.4177   -5.3006   29.8853 H   0  0  0  0  0  0  0  0  0  0  0  0
   10.4561    1.0772   24.1620 H   0  0  0  0  0  0  0  0  0  0  0  0
   10.8743    1.5008   22.5014 H   0  0  0  0  0  0  0  0  0  0  0  0
    6.5542   -5.8831   27.6150 H   0  0  0  0  0  0  0  0  0  0  0  0
    8.0869   -6.6915   27.2348 H   0  0  0  0  0  0  0  0  0  0  0  0
    7.4775   -5.1795   25.4660 H   0  0  0  0  0  0  0  0  0  0  0  0
    8.0593   -1.6239   21.0632 H   0  0  0  0  0  0  0  0  0  0  0  0
  1  2  1  0  0  0  0
  1  3  2  0  0  0  0
  2  4  2  0  0  0  0
  3 13  1  0  0  0  0
  4 14  1  0  0  0  0
  5  7  2  0  0  0  0
  5 15  1  0  0  0  0
  6  8  1  0  0  0  0
  6 15  2  0  0  0  0
  7 16  1  0  0  0  0
  8 16  2  0  0  0  0
  9 10  2  0  0  0  0
  9 12  1  0  0  0  0
 10 30  1  0  0  0  0
 11 12  2  0  0  0  0
 11 30  1  0  0  0  0
 12 20  1  0  0  0  0
 13 14  2  0  0  0  0
 13 22  1  0  0  0  0
 14 24  1  0  0  0  0
 15 25  1  0  0  0  0
 16 27  1  0  0  0  0
 17 21  1  0  0  0  0
 17 25  1  0  0  0  0
 17 28  2  0  0  0  0
 18 26  1  0  0  0  0
 18 27  1  0  0  0  0
 18 29  2  0  0  0  0
 19 21  1  0  0  0  0
 20 27  1  0  0  0  0
 22 23  2  0  0  0  0
 23 24  1  0  0  0  0
 24 26  1  0  0  0  0
  1 31  1  0  0  0  0
  2 32  1  0  0  0  0
  3 33  1  0  0  0  0
  4 34  1  0  0  0  0
  5 35  1  0  0  0  0
  6 36  1  0  0  0  0
  7 37  1  0  0  0  0
  8 38  1  0  0  0  0
  9 39  1  0  0  0  0
 10 40  1  0  0  0  0
 11 41  1  0  0  0  0
 19 42  1  0  0  0  0
 19 43  1  0  0  0  0
 19 44  1  0  0  0  0
 20 45  1  0  0  0  0
 20 46  1  0  0  0  0
 21 47  1  0  0  0  0
 21 48  1  0  0  0  0
 25 49  1  0  0  0  0
 26 50  1  0  0  0  0
M  END
> <clash_score>
0

> <docking_score>
-9.178143501281738

> <overlap_score>
0.9895505905151367

$$$$
BENZO_7_1
  -OEChem-08222022433D

 53 56  0     0  0  0  0  0  0999 V2000
    3.8860    2.1050   19.5250 C   0  0  0  0  0  0  0  0  0  0  0  0
    4.2460    1.7520   20.8250 C   0  0  0  0  0  0  0  0  0  0  0  0
    4.6610    1.7170   18.4380 C   0  0  0  0  0  0  0  0  0  0  0  0
    5.3890    1.0010   21.0690 C   0  0  0  0  0  0  0  0  0  0  0  0
    9.1890   -3.5540   24.0140 C   0  0  0  0  0  0  0  0  0  0  0  0
    7.8700   -2.0610   25.3550 C   0  0  0  0  0  0  0  0  0  0  0  0
    9.5890   -2.4950   23.2210 C   0  0  0  0  0  0  0  0  0  0  0  0
    8.2550   -1.0010   24.5520 C   0  0  0  0  0  0  0  0  0  0  0  0
   12.7320   -0.4464   24.4370 C   0  0  0  0  0  0  0  0  0  0  0  0
   12.5970   -0.8682   22.2832 C   0  0  0  0  0  0  0  0  0  0  0  0
   11.9616   -0.1817   23.2889 C   0  0  0  0  0  0  0  0  0  0  0  0
    5.7970    0.9500   18.6730 C   0  0  0  0  0  0  0  0  0  0  0  0
    6.1460    0.6070   19.9750 C   0  0  0  0  0  0  0  0  0  0  0  0
    8.3450   -3.3440   25.0980 C   0  0  0  0  0  0  0  0  0  0  0  0
    9.1280   -1.2090   23.4870 C   0  0  0  0  0  0  0  0  0  0  0  0
    8.2015   -4.5568   27.2976 C   0  0  0  0  0  0  0  0  0  0  0  0
    9.0430    0.2380   21.4940 C   0  0  0  0  0  0  0  0  0  0  0  0
    7.8869   -6.0889   29.2874 C   0  0  0  0  0  0  0  0  0  0  0  0
   14.6393   -2.3180   22.2082 C   0  0  0  0  0  0  0  0  0  0  0  0
   10.7220    0.6590   23.1850 C   0  0  0  0  0  0  0  0  0  0  0  0
    7.6334   -5.8734   27.8062 C   0  0  0  0  0  0  0  0  0  0  0  0
   13.7770   -1.2393   24.1852 N   0  0  0  0  0  0  0  0  0  0  0  0
    6.7100    0.3850   17.8100 N   0  0  0  0  0  0  0  0  0  0  0  0
    7.5840   -0.2700   18.5160 N   0  0  0  0  0  0  0  0  0  0  0  0
   13.6676   -1.4788   22.8673 N   0  0  0  0  0  0  0  0  0  0  0  0
    7.2710   -0.1460   19.8310 N   0  0  0  0  0  0  0  0  0  0  0  0
    7.9771   -4.4058   25.9196 N   0  0  0  0  0  0  0  0  0  0  0  0
    8.0950   -0.7700   20.8440 N   0  0  0  0  0  0  0  0  0  0  0  0
    9.5820   -0.1080   22.7000 N   0  0  0  0  0  0  0  0  0  0  0  0
    8.7729   -3.7649   28.0399 O   0  0  0  0  0  0  0  0  0  0  0  0
    9.2950    1.3000   20.9480 O   0  0  0  0  0  0  0  0  0  0  0  0
    2.9846    2.6932   19.3610 H   0  0  0  0  0  0  0  0  0  0  0  0
    3.6235    2.0692   21.6570 H   0  0  0  0  0  0  0  0  0  0  0  0
    4.3785    2.0113   17.4257 H   0  0  0  0  0  0  0  0  0  0  0  0
    5.6763    0.7332   22.0915 H   0  0  0  0  0  0  0  0  0  0  0  0
    9.5436   -4.5614   23.7799 H   0  0  0  0  0  0  0  0  0  0  0  0
    7.1918   -1.8823   26.1906 H   0  0  0  0  0  0  0  0  0  0  0  0
   10.2676   -2.6754   22.3861 H   0  0  0  0  0  0  0  0  0  0  0  0
    7.8686   -0.0026   24.7598 H   0  0  0  0  0  0  0  0  0  0  0  0
   12.5771   -0.0965   25.4478 H   0  0  0  0  0  0  0  0  0  0  0  0
   12.3832   -0.9726   21.2281 H   0  0  0  0  0  0  0  0  0  0  0  0
    8.9595   -6.0839   29.5077 H   0  0  0  0  0  0  0  0  0  0  0  0
    7.4764   -7.0513   29.6082 H   0  0  0  0  0  0  0  0  0  0  0  0
    7.4177   -5.3006   29.8853 H   0  0  0  0  0  0  0  0  0  0  0  0
   15.4522   -1.6787   21.8540 H   0  0  0  0  0  0  0  0  0  0  0  0
   15.0179   -3.0613   22.9154 H   0  0  0  0  0  0  0  0  0  0  0  0
   14.1626   -2.8324   21.3691 H   0  0  0  0  0  0  0  0  0  0  0  0
   10.4561    1.0772   24.1620 H   0  0  0  0  0  0  0  0  0  0  0  0
   10.8743    1.5008   22.5014 H   0  0  0  0  0  0  0  0  0  0  0  0
    6.5542   -5.8831   27.6150 H   0  0  0  0  0  0  0  0  0  0  0  0
    8.0869   -6.6915   27.2348 H   0  0  0  0  0  0  0  0  0  0  0  0
    7.4775   -5.1795   25.4660 H   0  0  0  0  0  0  0  0  0  0  0  0
    8.0593   -1.6239   21.0632 H   0  0  0  0  0  0  0  0  0  0  0  0
  1  2  1  0  0  0  0
  1  3  2  0  0  0  0
  2  4  2  0  0  0  0
  3 12  1  0  0  0  0
  4 13  1  0  0  0  0
  5  7  2  0  0  0  0
  5 14  1  0  0  0  0
  6  8  1  0  0  0  0
  6 14  2  0  0  0  0
  7 15  1  0  0  0  0
  8 15  2  0  0  0  0
  9 11  1  0  0  0  0
  9 22  2  0  0  0  0
 10 11  2  0  0  0  0
 10 25  1  0  0  0  0
 11 20  1  0  0  0  0
 12 13  2  0  0  0  0
 12 23  1  0  0  0  0
 13 26  1  0  0  0  0
 14 27  1  0  0  0  0
 15 29  1  0  0  0  0
 16 21  1  0  0  0  0
 16 27  1  0  0  0  0
 16 30  2  0  0  0  0
 17 28  1  0  0  0  0
 17 29  1  0  0  0  0
 17 31  2  0  0  0  0
 18 21  1  0  0  0  0
 19 25  1  0  0  0  0
 20 29  1  0  0  0  0
 22 25  1  0  0  0  0
 23 24  2  0  0  0  0
 24 26  1  0  0  0  0
 26 28  1  0  0  0  0
  1 32  1  0  0  0  0
  2 33  1  0  0  0  0
  3 34  1  0  0  0  0
  4 35  1  0  0  0  0
  5 36  1  0  0  0  0
  6 37  1  0  0  0  0
  7 38  1  0  0  0  0
  8 39  1  0  0  0  0
  9 40  1  0  0  0  0
 10 41  1  0  0  0  0
 18 42  1  0  0  0  0
 18 43  1  0  0  0  0
 18 44  1  0  0  0  0
 19 45  1  0  0  0  0
 19 46  1  0  0  0  0
 19 47  1  0  0  0  0
 20 48  1  0  0  0  0
 20 49  1  0  0  0  0
 21 50  1  0  0  0  0
 21 51  1  0  0  0  0
 27 52  1  0  0  0  0
 28 53  1  0  0  0  0
M  END
> <clash_score>
0

> <docking_score>
-7.927358150482178

> <overlap_score>
1.0061877965927124

$$$$
BENZO_6_1
  -OEChem-08222022433D

 53 56  0     0  0  0  0  0  0999 V2000
    3.8860    2.1050   19.5250 C   0  0  0  0  0  0  0  0  0  0  0  0
    4.2460    1.7520   20.8250 C   0  0  0  0  0  0  0  0  0  0  0  0
   13.7501   -1.1157   24.6176 C   0  0  0  0  0  0  0  0  0  0  0  0
   12.5991   -0.3339   24.5202 C   0  0  0  0  0  0  0  0  0  0  0  0
    4.6610    1.7170   18.4380 C   0  0  0  0  0  0  0  0  0  0  0  0
    5.3890    1.0010   21.0690 C   0  0  0  0  0  0  0  0  0  0  0  0
    9.1890   -3.5540   24.0140 C   0  0  0  0  0  0  0  0  0  0  0  0
    7.8700   -2.0610   25.3550 C   0  0  0  0  0  0  0  0  0  0  0  0
    9.5890   -2.4950   23.2210 C   0  0  0  0  0  0  0  0  0  0  0  0
    8.2550   -1.0010   24.5520 C   0  0  0  0  0  0  0  0  0  0  0  0
   14.2636   -1.7454   23.4838 C   0  0  0  0  0  0  0  0  0  0  0  0
   12.4750   -0.8115   22.1551 C   0  0  0  0  0  0  0  0  0  0  0  0
   11.9616   -0.1817   23.2889 C   0  0  0  0  0  0  0  0  0  0  0  0
    5.7970    0.9500   18.6730 C   0  0  0  0  0  0  0  0  0  0  0  0
    6.1460    0.6070   19.9750 C   0  0  0  0  0  0  0  0  0  0  0  0
    8.3450   -3.3440   25.0980 C   0  0  0  0  0  0  0  0  0  0  0  0
    9.1280   -1.2090   23.4870 C   0  0  0  0  0  0  0  0  0  0  0  0
   13.6260   -1.5933   22.2526 C   0  0  0  0  0  0  0  0  0  0  0  0
    8.2015   -4.5568   27.2976 C   0  0  0  0  0  0  0  0  0  0  0  0
    9.0430    0.2380   21.4940 C   0  0  0  0  0  0  0  0  0  0  0  0
    7.8869   -6.0889   29.2874 C   0  0  0  0  0  0  0  0  0  0  0  0
   10.7220    0.6590   23.1850 C   0  0  0  0  0  0  0  0  0  0  0  0
    7.6334   -5.8734   27.8062 C   0  0  0  0  0  0  0  0  0  0  0  0
    6.7100    0.3850   17.8100 N   0  0  0  0  0  0  0  0  0  0  0  0
    7.5840   -0.2700   18.5160 N   0  0  0  0  0  0  0  0  0  0  0  0
    7.2710   -0.1460   19.8310 N   0  0  0  0  0  0  0  0  0  0  0  0
    7.9771   -4.4058   25.9196 N   0  0  0  0  0  0  0  0  0  0  0  0
    8.0950   -0.7700   20.8440 N   0  0  0  0  0  0  0  0  0  0  0  0
    9.5820   -0.1080   22.7000 N   0  0  0  0  0  0  0  0  0  0  0  0
    8.7729   -3.7649   28.0399 O   0  0  0  0  0  0  0  0  0  0  0  0
    9.2950    1.3000   20.9480 O   0  0  0  0  0  0  0  0  0  0  0  0
   14.2594   -2.3714   20.8543 Cl  0  0  0  0  0  0  0  0  0  0  0  0
    2.9846    2.6932   19.3610 H   0  0  0  0  0  0  0  0  0  0  0  0
    3.6235    2.0692   21.6570 H   0  0  0  0  0  0  0  0  0  0  0  0
   14.2462   -1.2340   25.5766 H   0  0  0  0  0  0  0  0  0  0  0  0
   12.2060    0.1530   25.4088 H   0  0  0  0  0  0  0  0  0  0  0  0
    4.3785    2.0113   17.4257 H   0  0  0  0  0  0  0  0  0  0  0  0
    5.6763    0.7332   22.0915 H   0  0  0  0  0  0  0  0  0  0  0  0
    9.5436   -4.5614   23.7799 H   0  0  0  0  0  0  0  0  0  0  0  0
    7.1918   -1.8823   26.1906 H   0  0  0  0  0  0  0  0  0  0  0  0
   10.2676   -2.6754   22.3861 H   0  0  0  0  0  0  0  0  0  0  0  0
    7.8686   -0.0026   24.7598 H   0  0  0  0  0  0  0  0  0  0  0  0
   15.1613   -2.3520   23.5747 H   0  0  0  0  0  0  0  0  0  0  0  0
   11.9745   -0.6893   21.1973 H   0  0  0  0  0  0  0  0  0  0  0  0
    8.9595   -6.0839   29.5077 H   0  0  0  0  0  0  0  0  0  0  0  0
    7.4764   -7.0513   29.6082 H   0  0  0  0  0  0  0  0  0  0  0  0
    7.4177   -5.3006   29.8853 H   0  0  0  0  0  0  0  0  0  0  0  0
   10.4561    1.0772   24.1620 H   0  0  0  0  0  0  0  0  0  0  0  0
   10.8743    1.5008   22.5014 H   0  0  0  0  0  0  0  0  0  0  0  0
    6.5542   -5.8831   27.6150 H   0  0  0  0  0  0  0  0  0  0  0  0
    8.0869   -6.6915   27.2348 H   0  0  0  0  0  0  0  0  0  0  0  0
    7.4775   -5.1795   25.4660 H   0  0  0  0  0  0  0  0  0  0  0  0
    8.0593   -1.6239   21.0632 H   0  0  0  0  0  0  0  0  0  0  0  0
  1  2  1  0  0  0  0
  1  5  2  0  0  0  0
  2  6  2  0  0  0  0
  3  4  2  0  0  0  0
  3 11  1  0  0  0  0
  4 13  1  0  0  0  0
  5 14  1  0  0  0  0
  6 15  1  0  0  0  0
  7  9  2  0  0  0  0
  7 16  1  0  0  0  0
  8 10  1  0  0  0  0
  8 16  2  0  0  0  0
  9 17  1  0  0  0  0
 10 17  2  0  0  0  0
 11 18  2  0  0  0  0
 12 13  2  0  0  0  0
 12 18  1  0  0  0  0
 13 22  1  0  0  0  0
 14 15  2  0  0  0  0
 14 24  1  0  0  0  0
 15 26  1  0  0  0  0
 16 27  1  0  0  0  0
 17 29  1  0  0  0  0
 18 32  1  0  0  0  0
 19 23  1  0  0  0  0
 19 27  1  0  0  0  0
 19 30  2  0  0  0  0
 20 28  1  0  0  0  0
 20 29  1  0  0  0  0
 20 31  2  0  0  0  0
 21 23  1  0  0  0  0
 22 29  1  0  0  0  0
 24 25  2  0  0  0  0
 25 26  1  0  0  0  0
 26 28  1  0  0  0  0
  1 33  1  0  0  0  0
  2 34  1  0  0  0  0
  3 35  1  0  0  0  0
  4 36  1  0  0  0  0
  5 37  1  0  0  0  0
  6 38  1  0  0  0  0
  7 39  1  0  0  0  0
  8 40  1  0  0  0  0
  9 41  1  0  0  0  0
 10 42  1  0  0  0  0
 11 43  1  0  0  0  0
 12 44  1  0  0  0  0
 21 45  1  0  0  0  0
 21 46  1  0  0  0  0
 21 47  1  0  0  0  0
 22 48  1  0  0  0  0
 22 49  1  0  0  0  0
 23 50  1  0  0  0  0
 23 51  1  0  0  0  0
 27 52  1  0  0  0  0
 28 53  1  0  0  0  0
M  END
> <clash_score>
0

> <docking_score>
-8.691336631774902

> <overlap_score>
1.0107014179229736

$$$$
BENZO_13_1
  -OEChem-08222022433D

 46 49  0     0  0  0  0  0  0999 V2000
   14.2642   -1.7450   23.4813 C   0  0  0  0  0  0  0  0  0  0  0  0
   14.0779   -0.6681   24.3480 C   0  0  0  0  0  0  0  0  0  0  0  0
   13.2991   -2.0403   22.5184 C   0  0  0  0  0  0  0  0  0  0  0  0
    3.8860    2.1050   19.5250 C   0  0  0  0  0  0  0  0  0  0  0  0
    4.2460    1.7520   20.8250 C   0  0  0  0  0  0  0  0  0  0  0  0
   12.9266    0.1135   24.2518 C   0  0  0  0  0  0  0  0  0  0  0  0
   12.1478   -1.2587   22.4222 C   0  0  0  0  0  0  0  0  0  0  0  0
    9.1890   -3.5540   24.0140 C   0  0  0  0  0  0  0  0  0  0  0  0
    7.8700   -2.0610   25.3550 C   0  0  0  0  0  0  0  0  0  0  0  0
    4.6610    1.7170   18.4380 C   0  0  0  0  0  0  0  0  0  0  0  0
    5.3890    1.0010   21.0690 C   0  0  0  0  0  0  0  0  0  0  0  0
    9.5890   -2.4950   23.2210 C   0  0  0  0  0  0  0  0  0  0  0  0
    8.2550   -1.0010   24.5520 C   0  0  0  0  0  0  0  0  0  0  0  0
    8.3450   -3.3440   25.0980 C   0  0  0  0  0  0  0  0  0  0  0  0
   11.9616   -0.1817   23.2889 C   0  0  0  0  0  0  0  0  0  0  0  0
    5.7970    0.9500   18.6730 C   0  0  0  0  0  0  0  0  0  0  0  0
    6.1460    0.6070   19.9750 C   0  0  0  0  0  0  0  0  0  0  0  0
    9.1280   -1.2090   23.4870 C   0  0  0  0  0  0  0  0  0  0  0  0
    9.0430    0.2380   21.4940 C   0  0  0  0  0  0  0  0  0  0  0  0
    7.9522   -4.4794   25.9764 C   0  0  0  0  0  0  0  0  0  0  0  0
   10.7220    0.6590   23.1850 C   0  0  0  0  0  0  0  0  0  0  0  0
    6.7100    0.3850   17.8100 N   0  0  0  0  0  0  0  0  0  0  0  0
    7.5840   -0.2700   18.5160 N   0  0  0  0  0  0  0  0  0  0  0  0
    7.2710   -0.1460   19.8310 N   0  0  0  0  0  0  0  0  0  0  0  0
    8.0950   -0.7700   20.8440 N   0  0  0  0  0  0  0  0  0  0  0  0
    9.5820   -0.1080   22.7000 N   0  0  0  0  0  0  0  0  0  0  0  0
    9.2950    1.3000   20.9480 O   0  0  0  0  0  0  0  0  0  0  0  0
   15.1613   -2.3527   23.5555 H   0  0  0  0  0  0  0  0  0  0  0  0
   14.8297   -0.4373   25.0971 H   0  0  0  0  0  0  0  0  0  0  0  0
   13.4443   -2.8780   21.8427 H   0  0  0  0  0  0  0  0  0  0  0  0
    2.9846    2.6932   19.3610 H   0  0  0  0  0  0  0  0  0  0  0  0
    3.6235    2.0692   21.6570 H   0  0  0  0  0  0  0  0  0  0  0  0
   12.7899    0.9506   24.9315 H   0  0  0  0  0  0  0  0  0  0  0  0
   11.4013   -1.4963   21.6690 H   0  0  0  0  0  0  0  0  0  0  0  0
    9.5403   -4.5627   23.7809 H   0  0  0  0  0  0  0  0  0  0  0  0
    7.1911   -1.8848   26.1904 H   0  0  0  0  0  0  0  0  0  0  0  0
    4.3785    2.0113   17.4257 H   0  0  0  0  0  0  0  0  0  0  0  0
    5.6763    0.7332   22.0915 H   0  0  0  0  0  0  0  0  0  0  0  0
   10.2682   -2.6746   22.3865 H   0  0  0  0  0  0  0  0  0  0  0  0
    7.8684   -0.0022   24.7594 H   0  0  0  0  0  0  0  0  0  0  0  0
    8.6668   -4.5891   26.8013 H   0  0  0  0  0  0  0  0  0  0  0  0
    6.9513   -4.3276   26.4010 H   0  0  0  0  0  0  0  0  0  0  0  0
    7.9196   -5.4231   25.4163 H   0  0  0  0  0  0  0  0  0  0  0  0
   10.4561    1.0772   24.1620 H   0  0  0  0  0  0  0  0  0  0  0  0
   10.8743    1.5008   22.5014 H   0  0  0  0  0  0  0  0  0  0  0  0
    8.0593   -1.6239   21.0632 H   0  0  0  0  0  0  0  0  0  0  0  0
  1  2  1  0  0  0  0
  1  3  2  0  0  0  0
  2  6  2  0  0  0  0
  3  7  1  0  0  0  0
  4  5  1  0  0  0  0
  4 10  2  0  0  0  0
  5 11  2  0  0  0  0
  6 15  1  0  0  0  0
  7 15  2  0  0  0  0
  8 12  2  0  0  0  0
  8 14  1  0  0  0  0
  9 13  1  0  0  0  0
  9 14  2  0  0  0  0
 10 16  1  0  0  0  0
 11 17  1  0  0  0  0
 12 18  1  0  0  0  0
 13 18  2  0  0  0  0
 14 20  1  0  0  0  0
 15 21  1  0  0  0  0
 16 17  2  0  0  0  0
 16 22  1  0  0  0  0
 17 24  1  0  0  0  0
 18 26  1  0  0  0  0
 19 25  1  0  0  0  0
 19 26  1  0  0  0  0
 19 27  2  0  0  0  0
 21 26  1  0  0  0  0
 22 23  2  0  0  0  0
 23 24  1  0  0  0  0
 24 25  1  0  0  0  0
  1 28  1  0  0  0  0
  2 29  1  0  0  0  0
  3 30  1  0  0  0  0
  4 31  1  0  0  0  0
  5 32  1  0  0  0  0
  6 33  1  0  0  0  0
  7 34  1  0  0  0  0
  8 35  1  0  0  0  0
  9 36  1  0  0  0  0
 10 37  1  0  0  0  0
 11 38  1  0  0  0  0
 12 39  1  0  0  0  0
 13 40  1  0  0  0  0
 20 41  1  0  0  0  0
 20 42  1  0  0  0  0
 20 43  1  0  0  0  0
 21 44  1  0  0  0  0
 21 45  1  0  0  0  0
 25 46  1  0  0  0  0
M  END
> <clash_score>
0

> <docking_score>
-9.195684432983398

> <overlap_score>
0.9021970629692078

$$$$
BENZO_9_1
  -OEChem-08222022433D

 58 62  0     0  0  0  0  0  0999 V2000
   14.2641   -1.7450   23.4813 C   0  0  0  0  0  0  0  0  0  0  0  0
   14.0779   -0.6681   24.3480 C   0  0  0  0  0  0  0  0  0  0  0  0
   13.2991   -2.0403   22.5184 C   0  0  0  0  0  0  0  0  0  0  0  0
    3.8860    2.1050   19.5250 C   0  0  0  0  0  0  0  0  0  0  0  0
    4.2460    1.7520   20.8250 C   0  0  0  0  0  0  0  0  0  0  0  0
   12.9266    0.1135   24.2518 C   0  0  0  0  0  0  0  0  0  0  0  0
   12.1478   -1.2587   22.4222 C   0  0  0  0  0  0  0  0  0  0  0  0
    4.6610    1.7170   18.4380 C   0  0  0  0  0  0  0  0  0  0  0  0
    5.3890    1.0010   21.0690 C   0  0  0  0  0  0  0  0  0  0  0  0
    9.1890   -3.5540   24.0140 C   0  0  0  0  0  0  0  0  0  0  0  0
    7.8700   -2.0610   25.3550 C   0  0  0  0  0  0  0  0  0  0  0  0
    9.5890   -2.4950   23.2210 C   0  0  0  0  0  0  0  0  0  0  0  0
    8.2550   -1.0010   24.5520 C   0  0  0  0  0  0  0  0  0  0  0  0
   11.9616   -0.1817   23.2889 C   0  0  0  0  0  0  0  0  0  0  0  0
    5.7970    0.9500   18.6730 C   0  0  0  0  0  0  0  0  0  0  0  0
    6.1460    0.6070   19.9750 C   0  0  0  0  0  0  0  0  0  0  0  0
    8.3450   -3.3440   25.0980 C   0  0  0  0  0  0  0  0  0  0  0  0
    9.1280   -1.2090   23.4870 C   0  0  0  0  0  0  0  0  0  0  0  0
    9.0430    0.2380   21.4940 C   0  0  0  0  0  0  0  0  0  0  0  0
    7.3495   -6.6199   27.6701 C   0  0  0  0  0  0  0  0  0  0  0  0
    6.9542   -6.6348   26.1986 C   0  0  0  0  0  0  0  0  0  0  0  0
    7.3959   -5.1872   28.1871 C   0  0  0  0  0  0  0  0  0  0  0  0
    7.8834   -5.7613   25.3569 C   0  0  0  0  0  0  0  0  0  0  0  0
    8.3297   -4.3204   27.3453 C   0  0  0  0  0  0  0  0  0  0  0  0
   10.7220    0.6590   23.1850 C   0  0  0  0  0  0  0  0  0  0  0  0
    6.7100    0.3850   17.8100 N   0  0  0  0  0  0  0  0  0  0  0  0
    7.5840   -0.2700   18.5160 N   0  0  0  0  0  0  0  0  0  0  0  0
    7.2710   -0.1460   19.8310 N   0  0  0  0  0  0  0  0  0  0  0  0
    7.9745   -4.4101   25.9218 N   0  0  0  0  0  0  0  0  0  0  0  0
    8.0950   -0.7700   20.8440 N   0  0  0  0  0  0  0  0  0  0  0  0
    9.5820   -0.1080   22.7000 N   0  0  0  0  0  0  0  0  0  0  0  0
    9.2950    1.3000   20.9480 O   0  0  0  0  0  0  0  0  0  0  0  0
   15.1613   -2.3527   23.5555 H   0  0  0  0  0  0  0  0  0  0  0  0
   14.8297   -0.4373   25.0971 H   0  0  0  0  0  0  0  0  0  0  0  0
   13.4443   -2.8780   21.8427 H   0  0  0  0  0  0  0  0  0  0  0  0
    2.9846    2.6932   19.3610 H   0  0  0  0  0  0  0  0  0  0  0  0
    3.6235    2.0692   21.6570 H   0  0  0  0  0  0  0  0  0  0  0  0
   12.7899    0.9506   24.9315 H   0  0  0  0  0  0  0  0  0  0  0  0
   11.4013   -1.4963   21.6690 H   0  0  0  0  0  0  0  0  0  0  0  0
    4.3785    2.0113   17.4257 H   0  0  0  0  0  0  0  0  0  0  0  0
    5.6763    0.7332   22.0915 H   0  0  0  0  0  0  0  0  0  0  0  0
    9.5426   -4.5618   23.7797 H   0  0  0  0  0  0  0  0  0  0  0  0
    7.1914   -1.8824   26.1903 H   0  0  0  0  0  0  0  0  0  0  0  0
   10.2669   -2.6745   22.3854 H   0  0  0  0  0  0  0  0  0  0  0  0
    7.8690   -0.0020   24.7587 H   0  0  0  0  0  0  0  0  0  0  0  0
    6.6275   -7.2030   28.2544 H   0  0  0  0  0  0  0  0  0  0  0  0
    8.3286   -7.0944   27.7981 H   0  0  0  0  0  0  0  0  0  0  0  0
    6.9785   -7.6646   25.8205 H   0  0  0  0  0  0  0  0  0  0  0  0
    5.9224   -6.2815   26.0913 H   0  0  0  0  0  0  0  0  0  0  0  0
    6.3874   -4.7586   28.1744 H   0  0  0  0  0  0  0  0  0  0  0  0
    7.7314   -5.1812   29.2316 H   0  0  0  0  0  0  0  0  0  0  0  0
    8.8752   -6.2297   25.3260 H   0  0  0  0  0  0  0  0  0  0  0  0
    7.5092   -5.7078   24.3260 H   0  0  0  0  0  0  0  0  0  0  0  0
    8.2703   -3.2761   27.6782 H   0  0  0  0  0  0  0  0  0  0  0  0
    9.3614   -4.6600   27.5015 H   0  0  0  0  0  0  0  0  0  0  0  0
   10.4561    1.0772   24.1620 H   0  0  0  0  0  0  0  0  0  0  0  0
   10.8743    1.5008   22.5014 H   0  0  0  0  0  0  0  0  0  0  0  0
    8.0897   -1.6082   21.0890 H   0  0  0  0  0  0  0  0  0  0  0  0
  1  2  1  0  0  0  0
  1  3  2  0  0  0  0
  2  6  2  0  0  0  0
  3  7  1  0  0  0  0
  4  5  1  0  0  0  0
  4  8  2  0  0  0  0
  5  9  2  0  0  0  0
  6 14  1  0  0  0  0
  7 14  2  0  0  0  0
  8 15  1  0  0  0  0
  9 16  1  0  0  0  0
 10 12  2  0  0  0  0
 10 17  1  0  0  0  0
 11 13  1  0  0  0  0
 11 17  2  0  0  0  0
 12 18  1  0  0  0  0
 13 18  2  0  0  0  0
 14 25  1  0  0  0  0
 15 16  2  0  0  0  0
 15 26  1  0  0  0  0
 16 28  1  0  0  0  0
 17 29  1  0  0  0  0
 18 31  1  0  0  0  0
 19 30  1  0  0  0  0
 19 31  1  0  0  0  0
 19 32  2  0  0  0  0
 20 21  1  0  0  0  0
 20 22  1  0  0  0  0
 21 23  1  0  0  0  0
 22 24  1  0  0  0  0
 23 29  1  0  0  0  0
 24 29  1  0  0  0  0
 25 31  1  0  0  0  0
 26 27  2  0  0  0  0
 27 28  1  0  0  0  0
 28 30  1  0  0  0  0
  1 33  1  0  0  0  0
  2 34  1  0  0  0  0
  3 35  1  0  0  0  0
  4 36  1  0  0  0  0
  5 37  1  0  0  0  0
  6 38  1  0  0  0  0
  7 39  1  0  0  0  0
  8 40  1  0  0  0  0
  9 41  1  0  0  0  0
 10 42  1  0  0  0  0
 11 43  1  0  0  0  0
 12 44  1  0  0  0  0
 13 45  1  0  0  0  0
 20 46  1  0  0  0  0
 20 47  1  0  0  0  0
 21 48  1  0  0  0  0
 21 49  1  0  0  0  0
 22 50  1  0  0  0  0
 22 51  1  0  0  0  0
 23 52  1  0  0  0  0
 23 53  1  0  0  0  0
 24 54  1  0  0  0  0
 24 55  1  0  0  0  0
 25 56  1  0  0  0  0
 25 57  1  0  0  0  0
 30 58  1  0  0  0  0
M  END
> <clash_score>
0

> <docking_score>
-8.971722602844238

> <overlap_score>
0.9952273368835449

$$$$
BENZO_12_1
  -OEChem-08222022433D

 43 46  0     0  0  0  0  0  0999 V2000
    3.8860    2.1050   19.5250 C   0  0  0  0  0  0  0  0  0  0  0  0
    4.2460    1.7520   20.8250 C   0  0  0  0  0  0  0  0  0  0  0  0
    9.1890   -3.5540   24.0140 C   0  0  0  0  0  0  0  0  0  0  0  0
    7.8700   -2.0610   25.3550 C   0  0  0  0  0  0  0  0  0  0  0  0
    4.6610    1.7170   18.4380 C   0  0  0  0  0  0  0  0  0  0  0  0
    5.3890    1.0010   21.0690 C   0  0  0  0  0  0  0  0  0  0  0  0
    9.5890   -2.4950   23.2210 C   0  0  0  0  0  0  0  0  0  0  0  0
    8.2550   -1.0010   24.5520 C   0  0  0  0  0  0  0  0  0  0  0  0
   12.6785   -0.3937   24.5018 C   0  0  0  0  0  0  0  0  0  0  0  0
   13.7775   -1.2037   24.3186 C   0  0  0  0  0  0  0  0  0  0  0  0
   12.5401   -0.8378   22.2246 C   0  0  0  0  0  0  0  0  0  0  0  0
    8.3450   -3.3440   25.0980 C   0  0  0  0  0  0  0  0  0  0  0  0
   11.9616   -0.1817   23.2889 C   0  0  0  0  0  0  0  0  0  0  0  0
    5.7970    0.9500   18.6730 C   0  0  0  0  0  0  0  0  0  0  0  0
    6.1460    0.6070   19.9750 C   0  0  0  0  0  0  0  0  0  0  0  0
    9.1280   -1.2090   23.4870 C   0  0  0  0  0  0  0  0  0  0  0  0
    9.0430    0.2380   21.4940 C   0  0  0  0  0  0  0  0  0  0  0  0
    7.9522   -4.4794   25.9764 C   0  0  0  0  0  0  0  0  0  0  0  0
   10.7220    0.6590   23.1850 C   0  0  0  0  0  0  0  0  0  0  0  0
    6.7100    0.3850   17.8100 N   0  0  0  0  0  0  0  0  0  0  0  0
    7.5840   -0.2700   18.5160 N   0  0  0  0  0  0  0  0  0  0  0  0
    7.2710   -0.1460   19.8310 N   0  0  0  0  0  0  0  0  0  0  0  0
    8.0950   -0.7700   20.8440 N   0  0  0  0  0  0  0  0  0  0  0  0
    9.5820   -0.1080   22.7000 N   0  0  0  0  0  0  0  0  0  0  0  0
    9.2950    1.3000   20.9480 O   0  0  0  0  0  0  0  0  0  0  0  0
   13.9416   -1.7051   22.6894 S   0  0  0  0  0  0  0  0  0  0  0  0
    2.9846    2.6932   19.3610 H   0  0  0  0  0  0  0  0  0  0  0  0
    3.6235    2.0692   21.6570 H   0  0  0  0  0  0  0  0  0  0  0  0
    9.5403   -4.5627   23.7809 H   0  0  0  0  0  0  0  0  0  0  0  0
    7.1911   -1.8848   26.1904 H   0  0  0  0  0  0  0  0  0  0  0  0
    4.3785    2.0113   17.4257 H   0  0  0  0  0  0  0  0  0  0  0  0
    5.6763    0.7332   22.0915 H   0  0  0  0  0  0  0  0  0  0  0  0
   10.2682   -2.6746   22.3865 H   0  0  0  0  0  0  0  0  0  0  0  0
    7.8684   -0.0022   24.7594 H   0  0  0  0  0  0  0  0  0  0  0  0
   12.4058    0.0253   25.4623 H   0  0  0  0  0  0  0  0  0  0  0  0
   14.4923   -1.5246   25.0631 H   0  0  0  0  0  0  0  0  0  0  0  0
   12.2108   -0.8511   21.1948 H   0  0  0  0  0  0  0  0  0  0  0  0
    8.6668   -4.5891   26.8013 H   0  0  0  0  0  0  0  0  0  0  0  0
    6.9513   -4.3276   26.4010 H   0  0  0  0  0  0  0  0  0  0  0  0
    7.9196   -5.4231   25.4163 H   0  0  0  0  0  0  0  0  0  0  0  0
   10.4561    1.0772   24.1620 H   0  0  0  0  0  0  0  0  0  0  0  0
   10.8743    1.5008   22.5014 H   0  0  0  0  0  0  0  0  0  0  0  0
    8.0593   -1.6239   21.0632 H   0  0  0  0  0  0  0  0  0  0  0  0
  1  2  1  0  0  0  0
  1  5  2  0  0  0  0
  2  6  2  0  0  0  0
  3  7  2  0  0  0  0
  3 12  1  0  0  0  0
  4  8  1  0  0  0  0
  4 12  2  0  0  0  0
  5 14  1  0  0  0  0
  6 15  1  0  0  0  0
  7 16  1  0  0  0  0
  8 16  2  0  0  0  0
  9 10  2  0  0  0  0
  9 13  1  0  0  0  0
 10 26  1  0  0  0  0
 11 13  2  0  0  0  0
 11 26  1  0  0  0  0
 12 18  1  0  0  0  0
 13 19  1  0  0  0  0
 14 15  2  0  0  0  0
 14 20  1  0  0  0  0
 15 22  1  0  0  0  0
 16 24  1  0  0  0  0
 17 23  1  0  0  0  0
 17 24  1  0  0  0  0
 17 25  2  0  0  0  0
 19 24  1  0  0  0  0
 20 21  2  0  0  0  0
 21 22  1  0  0  0  0
 22 23  1  0  0  0  0
  1 27  1  0  0  0  0
  2 28  1  0  0  0  0
  3 29  1  0  0  0  0
  4 30  1  0  0  0  0
  5 31  1  0  0  0  0
  6 32  1  0  0  0  0
  7 33  1  0  0  0  0
  8 34  1  0  0  0  0
  9 35  1  0  0  0  0
 10 36  1  0  0  0  0
 11 37  1  0  0  0  0
 18 38  1  0  0  0  0
 18 39  1  0  0  0  0
 18 40  1  0  0  0  0
 19 41  1  0  0  0  0
 19 42  1  0  0  0  0
 23 43  1  0  0  0  0
M  END
> <clash_score>
0

> <docking_score>
-8.636357307434082

> <overlap_score>
0.8884324431419373

$$$$
BENZO_8_1
  -OEChem-08222022433D

 55 59  0     0  0  0  0  0  0999 V2000
    3.8860    2.1050   19.5250 C   0  0  0  0  0  0  0  0  0  0  0  0
    4.2460    1.7520   20.8250 C   0  0  0  0  0  0  0  0  0  0  0  0
    4.6610    1.7170   18.4380 C   0  0  0  0  0  0  0  0  0  0  0  0
    5.3890    1.0010   21.0690 C   0  0  0  0  0  0  0  0  0  0  0  0
    9.1890   -3.5540   24.0140 C   0  0  0  0  0  0  0  0  0  0  0  0
    7.8700   -2.0610   25.3550 C   0  0  0  0  0  0  0  0  0  0  0  0
    9.5890   -2.4950   23.2210 C   0  0  0  0  0  0  0  0  0  0  0  0
    8.2550   -1.0010   24.5520 C   0  0  0  0  0  0  0  0  0  0  0  0
   12.6785   -0.3936   24.5018 C   0  0  0  0  0  0  0  0  0  0  0  0
   13.7775   -1.2037   24.3186 C   0  0  0  0  0  0  0  0  0  0  0  0
   12.5401   -0.8378   22.2246 C   0  0  0  0  0  0  0  0  0  0  0  0
   11.9616   -0.1817   23.2889 C   0  0  0  0  0  0  0  0  0  0  0  0
    5.7970    0.9500   18.6730 C   0  0  0  0  0  0  0  0  0  0  0  0
    6.1460    0.6070   19.9750 C   0  0  0  0  0  0  0  0  0  0  0  0
    8.3450   -3.3440   25.0980 C   0  0  0  0  0  0  0  0  0  0  0  0
    9.1280   -1.2090   23.4870 C   0  0  0  0  0  0  0  0  0  0  0  0
    9.0430    0.2380   21.4940 C   0  0  0  0  0  0  0  0  0  0  0  0
    7.5748   -4.8280   28.7278 C   0  0  0  0  0  0  0  0  0  0  0  0
    8.9776   -4.7555   28.1204 C   0  0  0  0  0  0  0  0  0  0  0  0
    6.5554   -4.0713   27.8732 C   0  0  0  0  0  0  0  0  0  0  0  0
    8.9620   -5.1961   26.6568 C   0  0  0  0  0  0  0  0  0  0  0  0
    6.6009   -4.5253   26.4110 C   0  0  0  0  0  0  0  0  0  0  0  0
   10.7220    0.6590   23.1850 C   0  0  0  0  0  0  0  0  0  0  0  0
    6.7100    0.3850   17.8100 N   0  0  0  0  0  0  0  0  0  0  0  0
    7.5840   -0.2700   18.5160 N   0  0  0  0  0  0  0  0  0  0  0  0
    7.2710   -0.1460   19.8310 N   0  0  0  0  0  0  0  0  0  0  0  0
    7.9770   -4.4029   25.9163 N   0  0  0  0  0  0  0  0  0  0  0  0
    8.0950   -0.7700   20.8440 N   0  0  0  0  0  0  0  0  0  0  0  0
    9.5820   -0.1080   22.7000 N   0  0  0  0  0  0  0  0  0  0  0  0
    9.2950    1.3000   20.9480 O   0  0  0  0  0  0  0  0  0  0  0  0
   13.9416   -1.7050   22.6894 S   0  0  0  0  0  0  0  0  0  0  0  0
    2.9846    2.6932   19.3610 H   0  0  0  0  0  0  0  0  0  0  0  0
    3.6235    2.0692   21.6570 H   0  0  0  0  0  0  0  0  0  0  0  0
    4.3785    2.0113   17.4257 H   0  0  0  0  0  0  0  0  0  0  0  0
    5.6763    0.7332   22.0915 H   0  0  0  0  0  0  0  0  0  0  0  0
    9.5426   -4.5618   23.7797 H   0  0  0  0  0  0  0  0  0  0  0  0
    7.1914   -1.8824   26.1903 H   0  0  0  0  0  0  0  0  0  0  0  0
   10.2669   -2.6745   22.3854 H   0  0  0  0  0  0  0  0  0  0  0  0
    7.8690   -0.0020   24.7587 H   0  0  0  0  0  0  0  0  0  0  0  0
   12.4058    0.0253   25.4623 H   0  0  0  0  0  0  0  0  0  0  0  0
   14.4923   -1.5245   25.0631 H   0  0  0  0  0  0  0  0  0  0  0  0
   12.2108   -0.8511   21.1948 H   0  0  0  0  0  0  0  0  0  0  0  0
    7.2681   -5.8808   28.8239 H   0  0  0  0  0  0  0  0  0  0  0  0
    7.5890   -4.4101   29.7448 H   0  0  0  0  0  0  0  0  0  0  0  0
    9.3554   -3.7320   28.1920 H   0  0  0  0  0  0  0  0  0  0  0  0
    9.6558   -5.3943   28.6900 H   0  0  0  0  0  0  0  0  0  0  0  0
    5.5496   -4.2322   28.2751 H   0  0  0  0  0  0  0  0  0  0  0  0
    6.7545   -2.9948   27.9293 H   0  0  0  0  0  0  0  0  0  0  0  0
    9.9612   -5.0560   26.2363 H   0  0  0  0  0  0  0  0  0  0  0  0
    8.7097   -6.2583   26.5922 H   0  0  0  0  0  0  0  0  0  0  0  0
    6.2649   -5.5600   26.3335 H   0  0  0  0  0  0  0  0  0  0  0  0
    5.9271   -3.8964   25.8283 H   0  0  0  0  0  0  0  0  0  0  0  0
   10.4561    1.0772   24.1620 H   0  0  0  0  0  0  0  0  0  0  0  0
   10.8743    1.5008   22.5014 H   0  0  0  0  0  0  0  0  0  0  0  0
    8.0897   -1.6082   21.0890 H   0  0  0  0  0  0  0  0  0  0  0  0
  1  2  1  0  0  0  0
  1  3  2  0  0  0  0
  2  4  2  0  0  0  0
  3 13  1  0  0  0  0
  4 14  1  0  0  0  0
  5  7  2  0  0  0  0
  5 15  1  0  0  0  0
  6  8  1  0  0  0  0
  6 15  2  0  0  0  0
  7 16  1  0  0  0  0
  8 16  2  0  0  0  0
  9 10  2  0  0  0  0
  9 12  1  0  0  0  0
 10 31  1  0  0  0  0
 11 12  2  0  0  0  0
 11 31  1  0  0  0  0
 12 23  1  0  0  0  0
 13 14  2  0  0  0  0
 13 24  1  0  0  0  0
 14 26  1  0  0  0  0
 15 27  1  0  0  0  0
 16 29  1  0  0  0  0
 17 28  1  0  0  0  0
 17 29  1  0  0  0  0
 17 30  2  0  0  0  0
 18 19  1  0  0  0  0
 18 20  1  0  0  0  0
 19 21  1  0  0  0  0
 20 22  1  0  0  0  0
 21 27  1  0  0  0  0
 22 27  1  0  0  0  0
 23 29  1  0  0  0  0
 24 25  2  0  0  0  0
 25 26  1  0  0  0  0
 26 28  1  0  0  0  0
  1 32  1  0  0  0  0
  2 33  1  0  0  0  0
  3 34  1  0  0  0  0
  4 35  1  0  0  0  0
  5 36  1  0  0  0  0
  6 37  1  0  0  0  0
  7 38  1  0  0  0  0
  8 39  1  0  0  0  0
  9 40  1  0  0  0  0
 10 41  1  0  0  0  0
 11 42  1  0  0  0  0
 18 43  1  0  0  0  0
 18 44  1  0  0  0  0
 19 45  1  0  0  0  0
 19 46  1  0  0  0  0
 20 47  1  0  0  0  0
 20 48  1  0  0  0  0
 21 49  1  0  0  0  0
 21 50  1  0  0  0  0
 22 51  1  0  0  0  0
 22 52  1  0  0  0  0
 23 53  1  0  0  0  0
 23 54  1  0  0  0  0
 28 55  1  0  0  0  0
M  END
> <clash_score>
0

> <docking_score>
-9.537476539611816

> <overlap_score>
0.9766672849655151

$$$$
BENZO_15_1
  -OEChem-08222022433D

 46 49  0     0  0  0  0  0  0999 V2000
    3.8860    2.1050   19.5250 C   0  0  0  0  0  0  0  0  0  0  0  0
    4.2460    1.7520   20.8250 C   0  0  0  0  0  0  0  0  0  0  0  0
    9.1890   -3.5540   24.0140 C   0  0  0  0  0  0  0  0  0  0  0  0
    7.8700   -2.0610   25.3550 C   0  0  0  0  0  0  0  0  0  0  0  0
    4.6610    1.7170   18.4380 C   0  0  0  0  0  0  0  0  0  0  0  0
    5.3890    1.0010   21.0690 C   0  0  0  0  0  0  0  0  0  0  0  0
    9.5890   -2.4950   23.2210 C   0  0  0  0  0  0  0  0  0  0  0  0
    8.2550   -1.0010   24.5520 C   0  0  0  0  0  0  0  0  0  0  0  0
   12.7320   -0.4464   24.4370 C   0  0  0  0  0  0  0  0  0  0  0  0
   12.5970   -0.8682   22.2832 C   0  0  0  0  0  0  0  0  0  0  0  0
    8.3450   -3.3440   25.0980 C   0  0  0  0  0  0  0  0  0  0  0  0
   11.9616   -0.1817   23.2889 C   0  0  0  0  0  0  0  0  0  0  0  0
    5.7970    0.9500   18.6730 C   0  0  0  0  0  0  0  0  0  0  0  0
    6.1460    0.6070   19.9750 C   0  0  0  0  0  0  0  0  0  0  0  0
    9.1280   -1.2090   23.4870 C   0  0  0  0  0  0  0  0  0  0  0  0
    9.0430    0.2380   21.4940 C   0  0  0  0  0  0  0  0  0  0  0  0
    7.9522   -4.4794   25.9764 C   0  0  0  0  0  0  0  0  0  0  0  0
   14.6393   -2.3180   22.2082 C   0  0  0  0  0  0  0  0  0  0  0  0
   10.7220    0.6590   23.1850 C   0  0  0  0  0  0  0  0  0  0  0  0
   13.7770   -1.2393   24.1852 N   0  0  0  0  0  0  0  0  0  0  0  0
    6.7100    0.3850   17.8100 N   0  0  0  0  0  0  0  0  0  0  0  0
    7.5840   -0.2700   18.5160 N   0  0  0  0  0  0  0  0  0  0  0  0
   13.6676   -1.4788   22.8673 N   0  0  0  0  0  0  0  0  0  0  0  0
    7.2710   -0.1460   19.8310 N   0  0  0  0  0  0  0  0  0  0  0  0
    8.0950   -0.7700   20.8440 N   0  0  0  0  0  0  0  0  0  0  0  0
    9.5820   -0.1080   22.7000 N   0  0  0  0  0  0  0  0  0  0  0  0
    9.2950    1.3000   20.9480 O   0  0  0  0  0  0  0  0  0  0  0  0
    2.9846    2.6932   19.3610 H   0  0  0  0  0  0  0  0  0  0  0  0
    3.6235    2.0692   21.6570 H   0  0  0  0  0  0  0  0  0  0  0  0
    9.5403   -4.5627   23.7809 H   0  0  0  0  0  0  0  0  0  0  0  0
    7.1911   -1.8848   26.1904 H   0  0  0  0  0  0  0  0  0  0  0  0
    4.3785    2.0113   17.4257 H   0  0  0  0  0  0  0  0  0  0  0  0
    5.6763    0.7332   22.0915 H   0  0  0  0  0  0  0  0  0  0  0  0
   10.2682   -2.6746   22.3865 H   0  0  0  0  0  0  0  0  0  0  0  0
    7.8684   -0.0022   24.7594 H   0  0  0  0  0  0  0  0  0  0  0  0
   12.5771   -0.0965   25.4478 H   0  0  0  0  0  0  0  0  0  0  0  0
   12.3832   -0.9726   21.2281 H   0  0  0  0  0  0  0  0  0  0  0  0
    8.6668   -4.5891   26.8013 H   0  0  0  0  0  0  0  0  0  0  0  0
    6.9513   -4.3276   26.4010 H   0  0  0  0  0  0  0  0  0  0  0  0
    7.9196   -5.4231   25.4163 H   0  0  0  0  0  0  0  0  0  0  0  0
   15.4522   -1.6787   21.8540 H   0  0  0  0  0  0  0  0  0  0  0  0
   15.0179   -3.0613   22.9154 H   0  0  0  0  0  0  0  0  0  0  0  0
   14.1626   -2.8324   21.3691 H   0  0  0  0  0  0  0  0  0  0  0  0
   10.4561    1.0772   24.1620 H   0  0  0  0  0  0  0  0  0  0  0  0
   10.8743    1.5008   22.5014 H   0  0  0  0  0  0  0  0  0  0  0  0
    8.0593   -1.6239   21.0632 H   0  0  0  0  0  0  0  0  0  0  0  0
  1  2  1  0  0  0  0
  1  5  2  0  0  0  0
  2  6  2  0  0  0  0
  3  7  2  0  0  0  0
  3 11  1  0  0  0  0
  4  8  1  0  0  0  0
  4 11  2  0  0  0  0
  5 13  1  0  0  0  0
  6 14  1  0  0  0  0
  7 15  1  0  0  0  0
  8 15  2  0  0  0  0
  9 12  1  0  0  0  0
  9 20  2  0  0  0  0
 10 12  2  0  0  0  0
 10 23  1  0  0  0  0
 11 17  1  0  0  0  0
 12 19  1  0  0  0  0
 13 14  2  0  0  0  0
 13 21  1  0  0  0  0
 14 24  1  0  0  0  0
 15 26  1  0  0  0  0
 16 25  1  0  0  0  0
 16 26  1  0  0  0  0
 16 27  2  0  0  0  0
 18 23  1  0  0  0  0
 19 26  1  0  0  0  0
 20 23  1  0  0  0  0
 21 22  2  0  0  0  0
 22 24  1  0  0  0  0
 24 25  1  0  0  0  0
  1 28  1  0  0  0  0
  2 29  1  0  0  0  0
  3 30  1  0  0  0  0
  4 31  1  0  0  0  0
  5 32  1  0  0  0  0
  6 33  1  0  0  0  0
  7 34  1  0  0  0  0
  8 35  1  0  0  0  0
  9 36  1  0  0  0  0
 10 37  1  0  0  0  0
 17 38  1  0  0  0  0
 17 39  1  0  0  0  0
 17 40  1  0  0  0  0
 18 41  1  0  0  0  0
 18 42  1  0  0  0  0
 18 43  1  0  0  0  0
 19 44  1  0  0  0  0
 19 45  1  0  0  0  0
 25 46  1  0  0  0  0
M  END
> <clash_score>
0

> <docking_score>
-7.385575294494629

> <overlap_score>
0.9054272770881653

$$$$
BENZO_14_1
  -OEChem-08222022433D

 46 49  0     0  0  0  0  0  0999 V2000
    3.8860    2.1050   19.5250 C   0  0  0  0  0  0  0  0  0  0  0  0
    4.2460    1.7520   20.8250 C   0  0  0  0  0  0  0  0  0  0  0  0
   13.7501   -1.1157   24.6176 C   0  0  0  0  0  0  0  0  0  0  0  0
   12.5991   -0.3339   24.5202 C   0  0  0  0  0  0  0  0  0  0  0  0
    9.1890   -3.5540   24.0140 C   0  0  0  0  0  0  0  0  0  0  0  0
    7.8700   -2.0610   25.3550 C   0  0  0  0  0  0  0  0  0  0  0  0
    4.6610    1.7170   18.4380 C   0  0  0  0  0  0  0  0  0  0  0  0
    5.3890    1.0010   21.0690 C   0  0  0  0  0  0  0  0  0  0  0  0
    9.5890   -2.4950   23.2210 C   0  0  0  0  0  0  0  0  0  0  0  0
    8.2550   -1.0010   24.5520 C   0  0  0  0  0  0  0  0  0  0  0  0
   14.2636   -1.7454   23.4838 C   0  0  0  0  0  0  0  0  0  0  0  0
   12.4750   -0.8115   22.1551 C   0  0  0  0  0  0  0  0  0  0  0  0
    8.3450   -3.3440   25.0980 C   0  0  0  0  0  0  0  0  0  0  0  0
   11.9616   -0.1817   23.2889 C   0  0  0  0  0  0  0  0  0  0  0  0
    5.7970    0.9500   18.6730 C   0  0  0  0  0  0  0  0  0  0  0  0
    6.1460    0.6070   19.9750 C   0  0  0  0  0  0  0  0  0  0  0  0
    9.1280   -1.2090   23.4870 C   0  0  0  0  0  0  0  0  0  0  0  0
   13.6260   -1.5933   22.2526 C   0  0  0  0  0  0  0  0  0  0  0  0
    9.0430    0.2380   21.4940 C   0  0  0  0  0  0  0  0  0  0  0  0
    7.9522   -4.4794   25.9764 C   0  0  0  0  0  0  0  0  0  0  0  0
   10.7220    0.6590   23.1850 C   0  0  0  0  0  0  0  0  0  0  0  0
    6.7100    0.3850   17.8100 N   0  0  0  0  0  0  0  0  0  0  0  0
    7.5840   -0.2700   18.5160 N   0  0  0  0  0  0  0  0  0  0  0  0
    7.2710   -0.1460   19.8310 N   0  0  0  0  0  0  0  0  0  0  0  0
    8.0950   -0.7700   20.8440 N   0  0  0  0  0  0  0  0  0  0  0  0
    9.5820   -0.1080   22.7000 N   0  0  0  0  0  0  0  0  0  0  0  0
    9.2950    1.3000   20.9480 O   0  0  0  0  0  0  0  0  0  0  0  0
   14.2594   -2.3714   20.8543 Cl  0  0  0  0  0  0  0  0  0  0  0  0
    2.9846    2.6932   19.3610 H   0  0  0  0  0  0  0  0  0  0  0  0
    3.6235    2.0692   21.6570 H   0  0  0  0  0  0  0  0  0  0  0  0
   14.2462   -1.2340   25.5766 H   0  0  0  0  0  0  0  0  0  0  0  0
   12.2060    0.1530   25.4088 H   0  0  0  0  0  0  0  0  0  0  0  0
    9.5403   -4.5627   23.7809 H   0  0  0  0  0  0  0  0  0  0  0  0
    7.1911   -1.8848   26.1904 H   0  0  0  0  0  0  0  0  0  0  0  0
    4.3785    2.0113   17.4257 H   0  0  0  0  0  0  0  0  0  0  0  0
    5.6763    0.7332   22.0915 H   0  0  0  0  0  0  0  0  0  0  0  0
   10.2682   -2.6746   22.3865 H   0  0  0  0  0  0  0  0  0  0  0  0
    7.8684   -0.0022   24.7594 H   0  0  0  0  0  0  0  0  0  0  0  0
   15.1613   -2.3520   23.5747 H   0  0  0  0  0  0  0  0  0  0  0  0
   11.9745   -0.6893   21.1973 H   0  0  0  0  0  0  0  0  0  0  0  0
    8.6668   -4.5891   26.8013 H   0  0  0  0  0  0  0  0  0  0  0  0
    6.9513   -4.3276   26.4010 H   0  0  0  0  0  0  0  0  0  0  0  0
    7.9196   -5.4231   25.4163 H   0  0  0  0  0  0  0  0  0  0  0  0
   10.4561    1.0772   24.1620 H   0  0  0  0  0  0  0  0  0  0  0  0
   10.8743    1.5008   22.5014 H   0  0  0  0  0  0  0  0  0  0  0  0
    8.0593   -1.6239   21.0632 H   0  0  0  0  0  0  0  0  0  0  0  0
  1  2  1  0  0  0  0
  1  7  2  0  0  0  0
  2  8  2  0  0  0  0
  3  4  2  0  0  0  0
  3 11  1  0  0  0  0
  4 14  1  0  0  0  0
  5  9  2  0  0  0  0
  5 13  1  0  0  0  0
  6 10  1  0  0  0  0
  6 13  2  0  0  0  0
  7 15  1  0  0  0  0
  8 16  1  0  0  0  0
  9 17  1  0  0  0  0
 10 17  2  0  0  0  0
 11 18  2  0  0  0  0
 12 14  2  0  0  0  0
 12 18  1  0  0  0  0
 13 20  1  0  0  0  0
 14 21  1  0  0  0  0
 15 16  2  0  0  0  0
 15 22  1  0  0  0  0
 16 24  1  0  0  0  0
 17 26  1  0  0  0  0
 18 28  1  0  0  0  0
 19 25  1  0  0  0  0
 19 26  1  0  0  0  0
 19 27  2  0  0  0  0
 21 26  1  0  0  0  0
 22 23  2  0  0  0  0
 23 24  1  0  0  0  0
 24 25  1  0  0  0  0
  1 29  1  0  0  0  0
  2 30  1  0  0  0  0
  3 31  1  0  0  0  0
  4 32  1  0  0  0  0
  5 33  1  0  0  0  0
  6 34  1  0  0  0  0
  7 35  1  0  0  0  0
  8 36  1  0  0  0  0
  9 37  1  0  0  0  0
 10 38  1  0  0  0  0
 11 39  1  0  0  0  0
 12 40  1  0  0  0  0
 20 41  1  0  0  0  0
 20 42  1  0  0  0  0
 20 43  1  0  0  0  0
 21 44  1  0  0  0  0
 21 45  1  0  0  0  0
 25 46  1  0  0  0  0
M  END
> <clash_score>
0

> <docking_score>
-8.149554252624512

> <overlap_score>
0.9100707173347473

$$$$
BENZO_11_1
  -OEChem-08222022433D

 58 62  0     0  0  0  0  0  0999 V2000
    3.8860    2.1050   19.5250 C   0  0  0  0  0  0  0  0  0  0  0  0
    4.2460    1.7520   20.8250 C   0  0  0  0  0  0  0  0  0  0  0  0
    4.6610    1.7170   18.4380 C   0  0  0  0  0  0  0  0  0  0  0  0
    5.3890    1.0010   21.0690 C   0  0  0  0  0  0  0  0  0  0  0  0
    9.1890   -3.5540   24.0140 C   0  0  0  0  0  0  0  0  0  0  0  0
    7.8700   -2.0610   25.3550 C   0  0  0  0  0  0  0  0  0  0  0  0
    9.5890   -2.4950   23.2210 C   0  0  0  0  0  0  0  0  0  0  0  0
    8.2550   -1.0010   24.5520 C   0  0  0  0  0  0  0  0  0  0  0  0
   13.3010    0.2819   23.3762 C   0  0  0  0  0  0  0  0  0  0  0  0
   12.2469   -1.0164   21.9485 C   0  0  0  0  0  0  0  0  0  0  0  0
   12.0277    0.0001   22.8458 C   0  0  0  0  0  0  0  0  0  0  0  0
    5.7970    0.9500   18.6730 C   0  0  0  0  0  0  0  0  0  0  0  0
    6.1460    0.6070   19.9750 C   0  0  0  0  0  0  0  0  0  0  0  0
    8.3450   -3.3440   25.0980 C   0  0  0  0  0  0  0  0  0  0  0  0
    9.1280   -1.2090   23.4870 C   0  0  0  0  0  0  0  0  0  0  0  0
    9.0430    0.2380   21.4940 C   0  0  0  0  0  0  0  0  0  0  0  0
    7.5748   -4.8280   28.7278 C   0  0  0  0  0  0  0  0  0  0  0  0
    8.9776   -4.7555   28.1204 C   0  0  0  0  0  0  0  0  0  0  0  0
    6.5554   -4.0713   27.8732 C   0  0  0  0  0  0  0  0  0  0  0  0
    8.9620   -5.1961   26.6568 C   0  0  0  0  0  0  0  0  0  0  0  0
    6.6009   -4.5253   26.4110 C   0  0  0  0  0  0  0  0  0  0  0  0
   14.2950   -2.2646   21.2232 C   0  0  0  0  0  0  0  0  0  0  0  0
   10.7220    0.6590   23.1850 C   0  0  0  0  0  0  0  0  0  0  0  0
   14.2580   -0.4932   22.8591 N   0  0  0  0  0  0  0  0  0  0  0  0
    6.7100    0.3850   17.8100 N   0  0  0  0  0  0  0  0  0  0  0  0
    7.5840   -0.2700   18.5160 N   0  0  0  0  0  0  0  0  0  0  0  0
   13.5858   -1.2720   21.9944 N   0  0  0  0  0  0  0  0  0  0  0  0
    7.2710   -0.1460   19.8310 N   0  0  0  0  0  0  0  0  0  0  0  0
    7.9770   -4.4029   25.9163 N   0  0  0  0  0  0  0  0  0  0  0  0
    8.0950   -0.7700   20.8440 N   0  0  0  0  0  0  0  0  0  0  0  0
    9.5820   -0.1080   22.7000 N   0  0  0  0  0  0  0  0  0  0  0  0
    9.2950    1.3000   20.9480 O   0  0  0  0  0  0  0  0  0  0  0  0
    2.9846    2.6932   19.3610 H   0  0  0  0  0  0  0  0  0  0  0  0
    3.6235    2.0692   21.6570 H   0  0  0  0  0  0  0  0  0  0  0  0
    4.3785    2.0113   17.4257 H   0  0  0  0  0  0  0  0  0  0  0  0
    5.6763    0.7332   22.0915 H   0  0  0  0  0  0  0  0  0  0  0  0
    9.5426   -4.5618   23.7797 H   0  0  0  0  0  0  0  0  0  0  0  0
    7.1914   -1.8824   26.1903 H   0  0  0  0  0  0  0  0  0  0  0  0
   10.2669   -2.6745   22.3854 H   0  0  0  0  0  0  0  0  0  0  0  0
    7.8690   -0.0020   24.7587 H   0  0  0  0  0  0  0  0  0  0  0  0
   13.5736    1.0185   24.1187 H   0  0  0  0  0  0  0  0  0  0  0  0
   11.5805   -1.5669   21.2983 H   0  0  0  0  0  0  0  0  0  0  0  0
    7.2681   -5.8808   28.8239 H   0  0  0  0  0  0  0  0  0  0  0  0
    7.5890   -4.4101   29.7448 H   0  0  0  0  0  0  0  0  0  0  0  0
    9.3554   -3.7320   28.1920 H   0  0  0  0  0  0  0  0  0  0  0  0
    9.6558   -5.3943   28.6900 H   0  0  0  0  0  0  0  0  0  0  0  0
    5.5496   -4.2322   28.2751 H   0  0  0  0  0  0  0  0  0  0  0  0
    6.7545   -2.9948   27.9293 H   0  0  0  0  0  0  0  0  0  0  0  0
    9.9612   -5.0560   26.2363 H   0  0  0  0  0  0  0  0  0  0  0  0
    8.7097   -6.2583   26.5922 H   0  0  0  0  0  0  0  0  0  0  0  0
    6.2649   -5.5600   26.3335 H   0  0  0  0  0  0  0  0  0  0  0  0
    5.9271   -3.8964   25.8283 H   0  0  0  0  0  0  0  0  0  0  0  0
   14.6200   -1.7975   20.2898 H   0  0  0  0  0  0  0  0  0  0  0  0
   15.1576   -2.6206   21.7932 H   0  0  0  0  0  0  0  0  0  0  0  0
   13.6285   -3.1071   21.0185 H   0  0  0  0  0  0  0  0  0  0  0  0
   10.6163    0.7710   24.2696 H   0  0  0  0  0  0  0  0  0  0  0  0
   10.6620    1.6610   22.7472 H   0  0  0  0  0  0  0  0  0  0  0  0
    8.0897   -1.6082   21.0890 H   0  0  0  0  0  0  0  0  0  0  0  0
  1  2  1  0  0  0  0
  1  3  2  0  0  0  0
  2  4  2  0  0  0  0
  3 12  1  0  0  0  0
  4 13  1  0  0  0  0
  5  7  2  0  0  0  0
  5 14  1  0  0  0  0
  6  8  1  0  0  0  0
  6 14  2  0  0  0  0
  7 15  1  0  0  0  0
  8 15  2  0  0  0  0
  9 11  1  0  0  0  0
  9 24  2  0  0  0  0
 10 11  2  0  0  0  0
 10 27  1  0  0  0  0
 11 23  1  0  0  0  0
 12 13  2  0  0  0  0
 12 25  1  0  0  0  0
 13 28  1  0  0  0  0
 14 29  1  0  0  0  0
 15 31  1  0  0  0  0
 16 30  1  0  0  0  0
 16 31  1  0  0  0  0
 16 32  2  0  0  0  0
 17 18  1  0  0  0  0
 17 19  1  0  0  0  0
 18 20  1  0  0  0  0
 19 21  1  0  0  0  0
 20 29  1  0  0  0  0
 21 29  1  0  0  0  0
 22 27  1  0  0  0  0
 23 31  1  0  0  0  0
 24 27  1  0  0  0  0
 25 26  2  0  0  0  0
 26 28  1  0  0  0  0
 28 30  1  0  0  0  0
  1 33  1  0  0  0  0
  2 34  1  0  0  0  0
  3 35  1  0  0  0  0
  4 36  1  0  0  0  0
  5 37  1  0  0  0  0
  6 38  1  0  0  0  0
  7 39  1  0  0  0  0
  8 40  1  0  0  0  0
  9 41  1  0  0  0  0
 10 42  1  0  0  0  0
 17 43  1  0  0  0  0
 17 44  1  0  0  0  0
 18 45  1  0  0  0  0
 18 46  1  0  0  0  0
 19 47  1  0  0  0  0
 19 48  1  0  0  0  0
 20 49  1  0  0  0  0
 20 50  1  0  0  0  0
 21 51  1  0  0  0  0
 21 52  1  0  0  0  0
 22 53  1  0  0  0  0
 22 54  1  0  0  0  0
 22 55  1  0  0  0  0
 23 56  1  0  0  0  0
 23 57  1  0  0  0  0
 30 58  1  0  0  0  0
M  END
> <clash_score>
0

> <docking_score>
-9.540751457214355

> <overlap_score>
0.9690293669700623

$$$$
BENZO_10_1
  -OEChem-08222022433D

 58 62  0     0  0  0  0  0  0999 V2000
    3.8860    2.1050   19.5250 C   0  0  0  0  0  0  0  0  0  0  0  0
    4.2460    1.7520   20.8250 C   0  0  0  0  0  0  0  0  0  0  0  0
   13.7501   -1.1157   24.6176 C   0  0  0  0  0  0  0  0  0  0  0  0
   12.5991   -0.3339   24.5202 C   0  0  0  0  0  0  0  0  0  0  0  0
    4.6610    1.7170   18.4380 C   0  0  0  0  0  0  0  0  0  0  0  0
    5.3890    1.0010   21.0690 C   0  0  0  0  0  0  0  0  0  0  0  0
    9.1890   -3.5540   24.0140 C   0  0  0  0  0  0  0  0  0  0  0  0
    7.8700   -2.0610   25.3550 C   0  0  0  0  0  0  0  0  0  0  0  0
    9.5890   -2.4950   23.2210 C   0  0  0  0  0  0  0  0  0  0  0  0
    8.2550   -1.0010   24.5520 C   0  0  0  0  0  0  0  0  0  0  0  0
   14.2636   -1.7454   23.4838 C   0  0  0  0  0  0  0  0  0  0  0  0
   12.4750   -0.8115   22.1551 C   0  0  0  0  0  0  0  0  0  0  0  0
   11.9616   -0.1817   23.2889 C   0  0  0  0  0  0  0  0  0  0  0  0
    5.7970    0.9500   18.6730 C   0  0  0  0  0  0  0  0  0  0  0  0
    6.1460    0.6070   19.9750 C   0  0  0  0  0  0  0  0  0  0  0  0
    8.3450   -3.3440   25.0980 C   0  0  0  0  0  0  0  0  0  0  0  0
    9.1280   -1.2090   23.4870 C   0  0  0  0  0  0  0  0  0  0  0  0
   13.6261   -1.5933   22.2526 C   0  0  0  0  0  0  0  0  0  0  0  0
    9.0430    0.2380   21.4940 C   0  0  0  0  0  0  0  0  0  0  0  0
    7.5748   -4.8280   28.7278 C   0  0  0  0  0  0  0  0  0  0  0  0
    8.9776   -4.7555   28.1204 C   0  0  0  0  0  0  0  0  0  0  0  0
    6.5554   -4.0713   27.8732 C   0  0  0  0  0  0  0  0  0  0  0  0
    8.9620   -5.1961   26.6568 C   0  0  0  0  0  0  0  0  0  0  0  0
    6.6009   -4.5253   26.4110 C   0  0  0  0  0  0  0  0  0  0  0  0
   10.7220    0.6590   23.1850 C   0  0  0  0  0  0  0  0  0  0  0  0
    6.7100    0.3850   17.8100 N   0  0  0  0  0  0  0  0  0  0  0  0
    7.5840   -0.2700   18.5160 N   0  0  0  0  0  0  0  0  0  0  0  0
    7.2710   -0.1460   19.8310 N   0  0  0  0  0  0  0  0  0  0  0  0
    7.9770   -4.4029   25.9163 N   0  0  0  0  0  0  0  0  0  0  0  0
    8.0950   -0.7700   20.8440 N   0  0  0  0  0  0  0  0  0  0  0  0
    9.5820   -0.1080   22.7000 N   0  0  0  0  0  0  0  0  0  0  0  0
    9.2950    1.3000   20.9480 O   0  0  0  0  0  0  0  0  0  0  0  0
   14.2594   -2.3714   20.8543 Cl  0  0  0  0  0  0  0  0  0  0  0  0
    2.9846    2.6932   19.3610 H   0  0  0  0  0  0  0  0  0  0  0  0
    3.6235    2.0692   21.6570 H   0  0  0  0  0  0  0  0  0  0  0  0
   14.2462   -1.2340   25.5766 H   0  0  0  0  0  0  0  0  0  0  0  0
   12.2060    0.1530   25.4088 H   0  0  0  0  0  0  0  0  0  0  0  0
    4.3785    2.0113   17.4257 H   0  0  0  0  0  0  0  0  0  0  0  0
    5.6763    0.7332   22.0915 H   0  0  0  0  0  0  0  0  0  0  0  0
    9.5426   -4.5618   23.7797 H   0  0  0  0  0  0  0  0  0  0  0  0
    7.1914   -1.8824   26.1903 H   0  0  0  0  0  0  0  0  0  0  0  0
   10.2669   -2.6745   22.3854 H   0  0  0  0  0  0  0  0  0  0  0  0
    7.8690   -0.0020   24.7587 H   0  0  0  0  0  0  0  0  0  0  0  0
   15.1613   -2.3520   23.5747 H   0  0  0  0  0  0  0  0  0  0  0  0
   11.9745   -0.6893   21.1973 H   0  0  0  0  0  0  0  0  0  0  0  0
    7.2681   -5.8808   28.8239 H   0  0  0  0  0  0  0  0  0  0  0  0
    7.5890   -4.4101   29.7448 H   0  0  0  0  0  0  0  0  0  0  0  0
    9.3554   -3.7320   28.1920 H   0  0  0  0  0  0  0  0  0  0  0  0
    9.6558   -5.3943   28.6900 H   0  0  0  0  0  0  0  0  0  0  0  0
    5.5496   -4.2322   28.2751 H   0  0  0  0  0  0  0  0  0  0  0  0
    6.7545   -2.9948   27.9293 H   0  0  0  0  0  0  0  0  0  0  0  0
    9.9612   -5.0560   26.2363 H   0  0  0  0  0  0  0  0  0  0  0  0
    8.7097   -6.2583   26.5922 H   0  0  0  0  0  0  0  0  0  0  0  0
    6.2649   -5.5600   26.3335 H   0  0  0  0  0  0  0  0  0  0  0  0
    5.9271   -3.8964   25.8283 H   0  0  0  0  0  0  0  0  0  0  0  0
   10.4561    1.0772   24.1620 H   0  0  0  0  0  0  0  0  0  0  0  0
   10.8743    1.5008   22.5014 H   0  0  0  0  0  0  0  0  0  0  0  0
    8.0897   -1.6082   21.0890 H   0  0  0  0  0  0  0  0  0  0  0  0
  1  2  1  0  0  0  0
  1  5  2  0  0  0  0
  2  6  2  0  0  0  0
  3  4  2  0  0  0  0
  3 11  1  0  0  0  0
  4 13  1  0  0  0  0
  5 14  1  0  0  0  0
  6 15  1  0  0  0  0
  7  9  2  0  0  0  0
  7 16  1  0  0  0  0
  8 10  1  0  0  0  0
  8 16  2  0  0  0  0
  9 17  1  0  0  0  0
 10 17  2  0  0  0  0
 11 18  2  0  0  0  0
 12 13  2  0  0  0  0
 12 18  1  0  0  0  0
 13 25  1  0  0  0  0
 14 15  2  0  0  0  0
 14 26  1  0  0  0  0
 15 28  1  0  0  0  0
 16 29  1  0  0  0  0
 17 31  1  0  0  0  0
 18 33  1  0  0  0  0
 19 30  1  0  0  0  0
 19 31  1  0  0  0  0
 19 32  2  0  0  0  0
 20 21  1  0  0  0  0
 20 22  1  0  0  0  0
 21 23  1  0  0  0  0
 22 24  1  0  0  0  0
 23 29  1  0  0  0  0
 24 29  1  0  0  0  0
 25 31  1  0  0  0  0
 26 27  2  0  0  0  0
 27 28  1  0  0  0  0
 28 30  1  0  0  0  0
  1 34  1  0  0  0  0
  2 35  1  0  0  0  0
  3 36  1  0  0  0  0
  4 37  1  0  0  0  0
  5 38  1  0  0  0  0
  6 39  1  0  0  0  0
  7 40  1  0  0  0  0
  8 41  1  0  0  0  0
  9 42  1  0  0  0  0
 10 43  1  0  0  0  0
 11 44  1  0  0  0  0
 12 45  1  0  0  0  0
 20 46  1  0  0  0  0
 20 47  1  0  0  0  0
 21 48  1  0  0  0  0
 21 49  1  0  0  0  0
 22 50  1  0  0  0  0
 22 51  1  0  0  0  0
 23 52  1  0  0  0  0
 23 53  1  0  0  0  0
 24 54  1  0  0  0  0
 24 55  1  0  0  0  0
 25 56  1  0  0  0  0
 25 57  1  0  0  0  0
 30 58  1  0  0  0  0
M  END
> <clash_score>
0

> <docking_score>
-9.050675392150879

> <overlap_score>
0.9978207945823669

$$$$
BENZO_17_1
  -OEChem-08222022433D

 47 50  0     0  0  0  0  0  0999 V2000
   14.2642   -1.7450   23.4813 C   0  0  0  0  0  0  0  0  0  0  0  0
   14.0779   -0.6681   24.3480 C   0  0  0  0  0  0  0  0  0  0  0  0
   13.2991   -2.0403   22.5184 C   0  0  0  0  0  0  0  0  0  0  0  0
    3.8860    2.1050   19.5250 C   0  0  0  0  0  0  0  0  0  0  0  0
    4.2460    1.7520   20.8250 C   0  0  0  0  0  0  0  0  0  0  0  0
   12.9266    0.1135   24.2518 C   0  0  0  0  0  0  0  0  0  0  0  0
   12.1478   -1.2587   22.4222 C   0  0  0  0  0  0  0  0  0  0  0  0
    4.6610    1.7170   18.4380 C   0  0  0  0  0  0  0  0  0  0  0  0
    5.3890    1.0010   21.0690 C   0  0  0  0  0  0  0  0  0  0  0  0
    9.5890   -2.4950   23.2210 C   0  0  0  0  0  0  0  0  0  0  0  0
    8.2550   -1.0010   24.5520 C   0  0  0  0  0  0  0  0  0  0  0  0
    9.1890   -3.5540   24.0140 C   0  0  0  0  0  0  0  0  0  0  0  0
    7.8700   -2.0610   25.3550 C   0  0  0  0  0  0  0  0  0  0  0  0
   11.9616   -0.1817   23.2889 C   0  0  0  0  0  0  0  0  0  0  0  0
    5.7970    0.9500   18.6730 C   0  0  0  0  0  0  0  0  0  0  0  0
    6.1460    0.6070   19.9750 C   0  0  0  0  0  0  0  0  0  0  0  0
    9.1280   -1.2090   23.4870 C   0  0  0  0  0  0  0  0  0  0  0  0
    8.3450   -3.3440   25.0980 C   0  0  0  0  0  0  0  0  0  0  0  0
    9.0430    0.2380   21.4940 C   0  0  0  0  0  0  0  0  0  0  0  0
    8.5123   -5.6657   25.5744 C   0  0  0  0  0  0  0  0  0  0  0  0
   10.7220    0.6590   23.1850 C   0  0  0  0  0  0  0  0  0  0  0  0
    6.7100    0.3850   17.8100 N   0  0  0  0  0  0  0  0  0  0  0  0
    7.5840   -0.2700   18.5160 N   0  0  0  0  0  0  0  0  0  0  0  0
    7.2710   -0.1460   19.8310 N   0  0  0  0  0  0  0  0  0  0  0  0
    8.0950   -0.7700   20.8440 N   0  0  0  0  0  0  0  0  0  0  0  0
    9.5820   -0.1080   22.7000 N   0  0  0  0  0  0  0  0  0  0  0  0
    9.2950    1.3000   20.9480 O   0  0  0  0  0  0  0  0  0  0  0  0
    7.9864   -4.3799   25.8996 O   0  0  0  0  0  0  0  0  0  0  0  0
   15.1613   -2.3527   23.5555 H   0  0  0  0  0  0  0  0  0  0  0  0
   14.8297   -0.4373   25.0971 H   0  0  0  0  0  0  0  0  0  0  0  0
   13.4443   -2.8780   21.8427 H   0  0  0  0  0  0  0  0  0  0  0  0
    2.9846    2.6932   19.3610 H   0  0  0  0  0  0  0  0  0  0  0  0
    3.6235    2.0692   21.6570 H   0  0  0  0  0  0  0  0  0  0  0  0
   12.7899    0.9506   24.9315 H   0  0  0  0  0  0  0  0  0  0  0  0
   11.4013   -1.4963   21.6690 H   0  0  0  0  0  0  0  0  0  0  0  0
    4.3785    2.0113   17.4257 H   0  0  0  0  0  0  0  0  0  0  0  0
    5.6763    0.7332   22.0915 H   0  0  0  0  0  0  0  0  0  0  0  0
   10.2678   -2.6746   22.3862 H   0  0  0  0  0  0  0  0  0  0  0  0
    7.8691   -0.0023   24.7606 H   0  0  0  0  0  0  0  0  0  0  0  0
    9.5404   -4.5633   23.7846 H   0  0  0  0  0  0  0  0  0  0  0  0
    7.1920   -1.8875   26.1914 H   0  0  0  0  0  0  0  0  0  0  0  0
    8.1469   -6.4023   26.2941 H   0  0  0  0  0  0  0  0  0  0  0  0
    9.6044   -5.6298   25.5962 H   0  0  0  0  0  0  0  0  0  0  0  0
    8.1788   -5.9429   24.5716 H   0  0  0  0  0  0  0  0  0  0  0  0
   10.4561    1.0772   24.1620 H   0  0  0  0  0  0  0  0  0  0  0  0
   10.8743    1.5008   22.5014 H   0  0  0  0  0  0  0  0  0  0  0  0
    8.0593   -1.6239   21.0632 H   0  0  0  0  0  0  0  0  0  0  0  0
  1  2  1  0  0  0  0
  1  3  2  0  0  0  0
  2  6  2  0  0  0  0
  3  7  1  0  0  0  0
  4  5  1  0  0  0  0
  4  8  2  0  0  0  0
  5  9  2  0  0  0  0
  6 14  1  0  0  0  0
  7 14  2  0  0  0  0
  8 15  1  0  0  0  0
  9 16  1  0  0  0  0
 10 12  2  0  0  0  0
 10 17  1  0  0  0  0
 11 13  1  0  0  0  0
 11 17  2  0  0  0  0
 12 18  1  0  0  0  0
 13 18  2  0  0  0  0
 14 21  1  0  0  0  0
 15 16  2  0  0  0  0
 15 22  1  0  0  0  0
 16 24  1  0  0  0  0
 17 26  1  0  0  0  0
 18 28  1  0  0  0  0
 19 25  1  0  0  0  0
 19 26  1  0  0  0  0
 19 27  2  0  0  0  0
 20 28  1  0  0  0  0
 21 26  1  0  0  0  0
 22 23  2  0  0  0  0
 23 24  1  0  0  0  0
 24 25  1  0  0  0  0
  1 29  1  0  0  0  0
  2 30  1  0  0  0  0
  3 31  1  0  0  0  0
  4 32  1  0  0  0  0
  5 33  1  0  0  0  0
  6 34  1  0  0  0  0
  7 35  1  0  0  0  0
  8 36  1  0  0  0  0
  9 37  1  0  0  0  0
 10 38  1  0  0  0  0
 11 39  1  0  0  0  0
 12 40  1  0  0  0  0
 13 41  1  0  0  0  0
 20 42  1  0  0  0  0
 20 43  1  0  0  0  0
 20 44  1  0  0  0  0
 21 45  1  0  0  0  0
 21 46  1  0  0  0  0
 25 47  1  0  0  0  0
M  END
> <clash_score>
0

> <docking_score>
-9.3158597946167

> <overlap_score>
0.9154635667800903

$$$$
BENZO_19_1
  -OEChem-08222022433D

 47 50  0     0  0  0  0  0  0999 V2000
    3.8860    2.1050   19.5250 C   0  0  0  0  0  0  0  0  0  0  0  0
    4.2460    1.7520   20.8250 C   0  0  0  0  0  0  0  0  0  0  0  0
    4.6610    1.7170   18.4380 C   0  0  0  0  0  0  0  0  0  0  0  0
    5.3890    1.0010   21.0690 C   0  0  0  0  0  0  0  0  0  0  0  0
    9.5890   -2.4950   23.2210 C   0  0  0  0  0  0  0  0  0  0  0  0
    8.2550   -1.0010   24.5520 C   0  0  0  0  0  0  0  0  0  0  0  0
    9.1890   -3.5540   24.0140 C   0  0  0  0  0  0  0  0  0  0  0  0
    7.8700   -2.0610   25.3550 C   0  0  0  0  0  0  0  0  0  0  0  0
   12.7320   -0.4464   24.4370 C   0  0  0  0  0  0  0  0  0  0  0  0
   12.5970   -0.8682   22.2832 C   0  0  0  0  0  0  0  0  0  0  0  0
   11.9616   -0.1817   23.2889 C   0  0  0  0  0  0  0  0  0  0  0  0
    5.7970    0.9500   18.6730 C   0  0  0  0  0  0  0  0  0  0  0  0
    6.1460    0.6070   19.9750 C   0  0  0  0  0  0  0  0  0  0  0  0
    9.1280   -1.2090   23.4870 C   0  0  0  0  0  0  0  0  0  0  0  0
    8.3450   -3.3440   25.0980 C   0  0  0  0  0  0  0  0  0  0  0  0
    9.0430    0.2380   21.4940 C   0  0  0  0  0  0  0  0  0  0  0  0
   14.6393   -2.3180   22.2082 C   0  0  0  0  0  0  0  0  0  0  0  0
    8.5123   -5.6657   25.5744 C   0  0  0  0  0  0  0  0  0  0  0  0
   10.7220    0.6590   23.1850 C   0  0  0  0  0  0  0  0  0  0  0  0
   13.7770   -1.2393   24.1852 N   0  0  0  0  0  0  0  0  0  0  0  0
    6.7100    0.3850   17.8100 N   0  0  0  0  0  0  0  0  0  0  0  0
    7.5840   -0.2700   18.5160 N   0  0  0  0  0  0  0  0  0  0  0  0
   13.6676   -1.4788   22.8673 N   0  0  0  0  0  0  0  0  0  0  0  0
    7.2710   -0.1460   19.8310 N   0  0  0  0  0  0  0  0  0  0  0  0
    8.0950   -0.7700   20.8440 N   0  0  0  0  0  0  0  0  0  0  0  0
    9.5820   -0.1080   22.7000 N   0  0  0  0  0  0  0  0  0  0  0  0
    9.2950    1.3000   20.9480 O   0  0  0  0  0  0  0  0  0  0  0  0
    7.9864   -4.3799   25.8996 O   0  0  0  0  0  0  0  0  0  0  0  0
    2.9846    2.6932   19.3610 H   0  0  0  0  0  0  0  0  0  0  0  0
    3.6235    2.0692   21.6570 H   0  0  0  0  0  0  0  0  0  0  0  0
    4.3785    2.0113   17.4257 H   0  0  0  0  0  0  0  0  0  0  0  0
    5.6763    0.7332   22.0915 H   0  0  0  0  0  0  0  0  0  0  0  0
   10.2678   -2.6746   22.3862 H   0  0  0  0  0  0  0  0  0  0  0  0
    7.8691   -0.0023   24.7606 H   0  0  0  0  0  0  0  0  0  0  0  0
    9.5404   -4.5633   23.7846 H   0  0  0  0  0  0  0  0  0  0  0  0
    7.1920   -1.8875   26.1914 H   0  0  0  0  0  0  0  0  0  0  0  0
   12.5771   -0.0965   25.4478 H   0  0  0  0  0  0  0  0  0  0  0  0
   12.3832   -0.9726   21.2281 H   0  0  0  0  0  0  0  0  0  0  0  0
   15.4522   -1.6787   21.8540 H   0  0  0  0  0  0  0  0  0  0  0  0
   15.0179   -3.0613   22.9154 H   0  0  0  0  0  0  0  0  0  0  0  0
   14.1626   -2.8324   21.3691 H   0  0  0  0  0  0  0  0  0  0  0  0
    8.1469   -6.4023   26.2941 H   0  0  0  0  0  0  0  0  0  0  0  0
    9.6044   -5.6298   25.5962 H   0  0  0  0  0  0  0  0  0  0  0  0
    8.1788   -5.9429   24.5716 H   0  0  0  0  0  0  0  0  0  0  0  0
   10.4561    1.0772   24.1620 H   0  0  0  0  0  0  0  0  0  0  0  0
   10.8743    1.5008   22.5014 H   0  0  0  0  0  0  0  0  0  0  0  0
    8.0593   -1.6239   21.0632 H   0  0  0  0  0  0  0  0  0  0  0  0
  1  2  1  0  0  0  0
  1  3  2  0  0  0  0
  2  4  2  0  0  0  0
  3 12  1  0  0  0  0
  4 13  1  0  0  0  0
  5  7  2  0  0  0  0
  5 14  1  0  0  0  0
  6  8  1  0  0  0  0
  6 14  2  0  0  0  0
  7 15  1  0  0  0  0
  8 15  2  0  0  0  0
  9 11  1  0  0  0  0
  9 20  2  0  0  0  0
 10 11  2  0  0  0  0
 10 23  1  0  0  0  0
 11 19  1  0  0  0  0
 12 13  2  0  0  0  0
 12 21  1  0  0  0  0
 13 24  1  0  0  0  0
 14 26  1  0  0  0  0
 15 28  1  0  0  0  0
 16 25  1  0  0  0  0
 16 26  1  0  0  0  0
 16 27  2  0  0  0  0
 17 23  1  0  0  0  0
 18 28  1  0  0  0  0
 19 26  1  0  0  0  0
 20 23  1  0  0  0  0
 21 22  2  0  0  0  0
 22 24  1  0  0  0  0
 24 25  1  0  0  0  0
  1 29  1  0  0  0  0
  2 30  1  0  0  0  0
  3 31  1  0  0  0  0
  4 32  1  0  0  0  0
  5 33  1  0  0  0  0
  6 34  1  0  0  0  0
  7 35  1  0  0  0  0
  8 36  1  0  0  0  0
  9 37  1  0  0  0  0
 10 38  1  0  0  0  0
 17 39  1  0  0  0  0
 17 40  1  0  0  0  0
 17 41  1  0  0  0  0
 18 42  1  0  0  0  0
 18 43  1  0  0  0  0
 18 44  1  0  0  0  0
 19 45  1  0  0  0  0
 19 46  1  0  0  0  0
 25 47  1  0  0  0  0
M  END
> <clash_score>
0

> <docking_score>
-7.505753517150879

> <overlap_score>
0.9186849594116211

$$$$
BENZO_16_1
  -OEChem-08222022433D

 44 47  0     0  0  0  0  0  0999 V2000
    3.8860    2.1050   19.5250 C   0  0  0  0  0  0  0  0  0  0  0  0
    4.2460    1.7520   20.8250 C   0  0  0  0  0  0  0  0  0  0  0  0
    4.6610    1.7170   18.4380 C   0  0  0  0  0  0  0  0  0  0  0  0
    5.3890    1.0010   21.0690 C   0  0  0  0  0  0  0  0  0  0  0  0
    9.5890   -2.4950   23.2210 C   0  0  0  0  0  0  0  0  0  0  0  0
    8.2550   -1.0010   24.5520 C   0  0  0  0  0  0  0  0  0  0  0  0
    9.1890   -3.5540   24.0140 C   0  0  0  0  0  0  0  0  0  0  0  0
    7.8700   -2.0610   25.3550 C   0  0  0  0  0  0  0  0  0  0  0  0
   12.5566   -0.8597   22.1860 C   0  0  0  0  0  0  0  0  0  0  0  0
   13.6839   -1.5596   22.5559 C   0  0  0  0  0  0  0  0  0  0  0  0
   12.6568   -0.3896   24.4600 C   0  0  0  0  0  0  0  0  0  0  0  0
   11.9616   -0.1817   23.2889 C   0  0  0  0  0  0  0  0  0  0  0  0
    5.7970    0.9500   18.6730 C   0  0  0  0  0  0  0  0  0  0  0  0
    6.1460    0.6070   19.9750 C   0  0  0  0  0  0  0  0  0  0  0  0
    9.1280   -1.2090   23.4870 C   0  0  0  0  0  0  0  0  0  0  0  0
    8.3450   -3.3440   25.0980 C   0  0  0  0  0  0  0  0  0  0  0  0
    9.0430    0.2380   21.4940 C   0  0  0  0  0  0  0  0  0  0  0  0
    8.5123   -5.6657   25.5744 C   0  0  0  0  0  0  0  0  0  0  0  0
   10.7220    0.6590   23.1850 C   0  0  0  0  0  0  0  0  0  0  0  0
    6.7100    0.3850   17.8100 N   0  0  0  0  0  0  0  0  0  0  0  0
    7.5840   -0.2700   18.5160 N   0  0  0  0  0  0  0  0  0  0  0  0
    7.2710   -0.1460   19.8310 N   0  0  0  0  0  0  0  0  0  0  0  0
    8.0950   -0.7700   20.8440 N   0  0  0  0  0  0  0  0  0  0  0  0
    9.5820   -0.1080   22.7000 N   0  0  0  0  0  0  0  0  0  0  0  0
    9.2950    1.3000   20.9480 O   0  0  0  0  0  0  0  0  0  0  0  0
    7.9864   -4.3799   25.8996 O   0  0  0  0  0  0  0  0  0  0  0  0
   14.0209   -1.3981   24.2270 S   0  0  0  0  0  0  0  0  0  0  0  0
    2.9846    2.6932   19.3610 H   0  0  0  0  0  0  0  0  0  0  0  0
    3.6235    2.0692   21.6570 H   0  0  0  0  0  0  0  0  0  0  0  0
    4.3785    2.0113   17.4257 H   0  0  0  0  0  0  0  0  0  0  0  0
    5.6763    0.7332   22.0915 H   0  0  0  0  0  0  0  0  0  0  0  0
   10.2678   -2.6746   22.3862 H   0  0  0  0  0  0  0  0  0  0  0  0
    7.8691   -0.0023   24.7606 H   0  0  0  0  0  0  0  0  0  0  0  0
    9.5404   -4.5633   23.7846 H   0  0  0  0  0  0  0  0  0  0  0  0
    7.1920   -1.8875   26.1914 H   0  0  0  0  0  0  0  0  0  0  0  0
   12.1799   -0.8381   21.1711 H   0  0  0  0  0  0  0  0  0  0  0  0
   14.3253   -2.1586   21.9250 H   0  0  0  0  0  0  0  0  0  0  0  0
   12.4317   -0.0004   25.4433 H   0  0  0  0  0  0  0  0  0  0  0  0
    8.1469   -6.4023   26.2941 H   0  0  0  0  0  0  0  0  0  0  0  0
    9.6044   -5.6298   25.5962 H   0  0  0  0  0  0  0  0  0  0  0  0
    8.1788   -5.9429   24.5716 H   0  0  0  0  0  0  0  0  0  0  0  0
   10.4561    1.0772   24.1620 H   0  0  0  0  0  0  0  0  0  0  0  0
   10.8743    1.5008   22.5014 H   0  0  0  0  0  0  0  0  0  0  0  0
    8.0593   -1.6239   21.0632 H   0  0  0  0  0  0  0  0  0  0  0  0
  1  2  1  0  0  0  0
  1  3  2  0  0  0  0
  2  4  2  0  0  0  0
  3 13  1  0  0  0  0
  4 14  1  0  0  0  0
  5  7  2  0  0  0  0
  5 15  1  0  0  0  0
  6  8  1  0  0  0  0
  6 15  2  0  0  0  0
  7 16  1  0  0  0  0
  8 16  2  0  0  0  0
  9 10  2  0  0  0  0
  9 12  1  0  0  0  0
 10 27  1  0  0  0  0
 11 12  2  0  0  0  0
 11 27  1  0  0  0  0
 12 19  1  0  0  0  0
 13 14  2  0  0  0  0
 13 20  1  0  0  0  0
 14 22  1  0  0  0  0
 15 24  1  0  0  0  0
 16 26  1  0  0  0  0
 17 23  1  0  0  0  0
 17 24  1  0  0  0  0
 17 25  2  0  0  0  0
 18 26  1  0  0  0  0
 19 24  1  0  0  0  0
 20 21  2  0  0  0  0
 21 22  1  0  0  0  0
 22 23  1  0  0  0  0
  1 28  1  0  0  0  0
  2 29  1  0  0  0  0
  3 30  1  0  0  0  0
  4 31  1  0  0  0  0
  5 32  1  0  0  0  0
  6 33  1  0  0  0  0
  7 34  1  0  0  0  0
  8 35  1  0  0  0  0
  9 36  1  0  0  0  0
 10 37  1  0  0  0  0
 11 38  1  0  0  0  0
 18 39  1  0  0  0  0
 18 40  1  0  0  0  0
 18 41  1  0  0  0  0
 19 42  1  0  0  0  0
 19 43  1  0  0  0  0
 23 44  1  0  0  0  0
M  END
> <clash_score>
0

> <docking_score>
-8.704564094543457

> <overlap_score>
0.9034128785133362

$$$$
BENZO_21_1
  -OEChem-08222022433D

 57 61  0     0  0  0  0  0  0999 V2000
   14.2642   -1.7450   23.4813 C   0  0  0  0  0  0  0  0  0  0  0  0
   14.0779   -0.6681   24.3480 C   0  0  0  0  0  0  0  0  0  0  0  0
   13.2991   -2.0403   22.5184 C   0  0  0  0  0  0  0  0  0  0  0  0
    3.8860    2.1050   19.5250 C   0  0  0  0  0  0  0  0  0  0  0  0
    4.2460    1.7520   20.8250 C   0  0  0  0  0  0  0  0  0  0  0  0
   12.9266    0.1135   24.2518 C   0  0  0  0  0  0  0  0  0  0  0  0
   12.1478   -1.2587   22.4222 C   0  0  0  0  0  0  0  0  0  0  0  0
    4.6610    1.7170   18.4380 C   0  0  0  0  0  0  0  0  0  0  0  0
    5.3890    1.0010   21.0690 C   0  0  0  0  0  0  0  0  0  0  0  0
    9.1890   -3.5540   24.0140 C   0  0  0  0  0  0  0  0  0  0  0  0
    7.8700   -2.0610   25.3550 C   0  0  0  0  0  0  0  0  0  0  0  0
    9.5890   -2.4950   23.2210 C   0  0  0  0  0  0  0  0  0  0  0  0
    8.2550   -1.0010   24.5520 C   0  0  0  0  0  0  0  0  0  0  0  0
   11.9616   -0.1817   23.2889 C   0  0  0  0  0  0  0  0  0  0  0  0
    5.7970    0.9500   18.6730 C   0  0  0  0  0  0  0  0  0  0  0  0
    6.1460    0.6070   19.9750 C   0  0  0  0  0  0  0  0  0  0  0  0
    8.3450   -3.3440   25.0980 C   0  0  0  0  0  0  0  0  0  0  0  0
    9.1280   -1.2090   23.4870 C   0  0  0  0  0  0  0  0  0  0  0  0
    7.8687   -5.7518   25.4384 C   0  0  0  0  0  0  0  0  0  0  0  0
    9.0430    0.2380   21.4940 C   0  0  0  0  0  0  0  0  0  0  0  0
    7.7614   -6.8724   26.4583 C   0  0  0  0  0  0  0  0  0  0  0  0
    7.0004   -6.5095   27.7148 C   0  0  0  0  0  0  0  0  0  0  0  0
    7.6035   -5.2531   28.3027 C   0  0  0  0  0  0  0  0  0  0  0  0
    7.4713   -4.1195   27.2996 C   0  0  0  0  0  0  0  0  0  0  0  0
   10.7220    0.6590   23.1850 C   0  0  0  0  0  0  0  0  0  0  0  0
    6.7100    0.3850   17.8100 N   0  0  0  0  0  0  0  0  0  0  0  0
    7.5840   -0.2700   18.5160 N   0  0  0  0  0  0  0  0  0  0  0  0
    7.2710   -0.1460   19.8310 N   0  0  0  0  0  0  0  0  0  0  0  0
    7.9635   -4.4452   25.9501 N   0  0  0  0  0  0  0  0  0  0  0  0
    8.0950   -0.7700   20.8440 N   0  0  0  0  0  0  0  0  0  0  0  0
    9.5820   -0.1080   22.7000 N   0  0  0  0  0  0  0  0  0  0  0  0
    7.9246   -6.0590   24.2444 O   0  0  0  0  0  0  0  0  0  0  0  0
    9.2950    1.3000   20.9480 O   0  0  0  0  0  0  0  0  0  0  0  0
   15.1613   -2.3527   23.5555 H   0  0  0  0  0  0  0  0  0  0  0  0
   14.8297   -0.4373   25.0971 H   0  0  0  0  0  0  0  0  0  0  0  0
   13.4443   -2.8780   21.8427 H   0  0  0  0  0  0  0  0  0  0  0  0
    2.9846    2.6932   19.3610 H   0  0  0  0  0  0  0  0  0  0  0  0
    3.6235    2.0692   21.6570 H   0  0  0  0  0  0  0  0  0  0  0  0
   12.7899    0.9506   24.9315 H   0  0  0  0  0  0  0  0  0  0  0  0
   11.4013   -1.4963   21.6690 H   0  0  0  0  0  0  0  0  0  0  0  0
    4.3785    2.0113   17.4257 H   0  0  0  0  0  0  0  0  0  0  0  0
    5.6763    0.7332   22.0915 H   0  0  0  0  0  0  0  0  0  0  0  0
    9.5436   -4.5614   23.7799 H   0  0  0  0  0  0  0  0  0  0  0  0
    7.1918   -1.8823   26.1906 H   0  0  0  0  0  0  0  0  0  0  0  0
   10.2676   -2.6754   22.3861 H   0  0  0  0  0  0  0  0  0  0  0  0
    7.8686   -0.0026   24.7598 H   0  0  0  0  0  0  0  0  0  0  0  0
    7.2713   -7.7257   25.9758 H   0  0  0  0  0  0  0  0  0  0  0  0
    8.7837   -7.1790   26.7111 H   0  0  0  0  0  0  0  0  0  0  0  0
    5.9406   -6.3476   27.4837 H   0  0  0  0  0  0  0  0  0  0  0  0
    7.0566   -7.3314   28.4368 H   0  0  0  0  0  0  0  0  0  0  0  0
    7.0858   -4.9863   29.2307 H   0  0  0  0  0  0  0  0  0  0  0  0
    8.6585   -5.4140   28.5554 H   0  0  0  0  0  0  0  0  0  0  0  0
    6.4149   -3.8417   27.1934 H   0  0  0  0  0  0  0  0  0  0  0  0
    8.0152   -3.2408   27.6666 H   0  0  0  0  0  0  0  0  0  0  0  0
   10.4561    1.0772   24.1620 H   0  0  0  0  0  0  0  0  0  0  0  0
   10.8743    1.5008   22.5014 H   0  0  0  0  0  0  0  0  0  0  0  0
    8.0897   -1.6082   21.0890 H   0  0  0  0  0  0  0  0  0  0  0  0
  1  2  1  0  0  0  0
  1  3  2  0  0  0  0
  2  6  2  0  0  0  0
  3  7  1  0  0  0  0
  4  5  1  0  0  0  0
  4  8  2  0  0  0  0
  5  9  2  0  0  0  0
  6 14  1  0  0  0  0
  7 14  2  0  0  0  0
  8 15  1  0  0  0  0
  9 16  1  0  0  0  0
 10 12  2  0  0  0  0
 10 17  1  0  0  0  0
 11 13  1  0  0  0  0
 11 17  2  0  0  0  0
 12 18  1  0  0  0  0
 13 18  2  0  0  0  0
 14 25  1  0  0  0  0
 15 16  2  0  0  0  0
 15 26  1  0  0  0  0
 16 28  1  0  0  0  0
 17 29  1  0  0  0  0
 18 31  1  0  0  0  0
 19 21  1  0  0  0  0
 19 29  1  0  0  0  0
 19 32  2  0  0  0  0
 20 30  1  0  0  0  0
 20 31  1  0  0  0  0
 20 33  2  0  0  0  0
 21 22  1  0  0  0  0
 22 23  1  0  0  0  0
 23 24  1  0  0  0  0
 24 29  1  0  0  0  0
 25 31  1  0  0  0  0
 26 27  2  0  0  0  0
 27 28  1  0  0  0  0
 28 30  1  0  0  0  0
  1 34  1  0  0  0  0
  2 35  1  0  0  0  0
  3 36  1  0  0  0  0
  4 37  1  0  0  0  0
  5 38  1  0  0  0  0
  6 39  1  0  0  0  0
  7 40  1  0  0  0  0
  8 41  1  0  0  0  0
  9 42  1  0  0  0  0
 10 43  1  0  0  0  0
 11 44  1  0  0  0  0
 12 45  1  0  0  0  0
 13 46  1  0  0  0  0
 21 47  1  0  0  0  0
 21 48  1  0  0  0  0
 22 49  1  0  0  0  0
 22 50  1  0  0  0  0
 23 51  1  0  0  0  0
 23 52  1  0  0  0  0
 24 53  1  0  0  0  0
 24 54  1  0  0  0  0
 25 55  1  0  0  0  0
 25 56  1  0  0  0  0
 30 57  1  0  0  0  0
M  END
> <clash_score>
0

> <docking_score>
-8.152303695678711

> <overlap_score>
0.9891775846481323

$$$$
BENZO_18_1
  -OEChem-08222022433D

 47 50  0     0  0  0  0  0  0999 V2000
    3.8860    2.1050   19.5250 C   0  0  0  0  0  0  0  0  0  0  0  0
    4.2460    1.7520   20.8250 C   0  0  0  0  0  0  0  0  0  0  0  0
   13.7501   -1.1157   24.6176 C   0  0  0  0  0  0  0  0  0  0  0  0
   12.5991   -0.3339   24.5202 C   0  0  0  0  0  0  0  0  0  0  0  0
    4.6610    1.7170   18.4380 C   0  0  0  0  0  0  0  0  0  0  0  0
    5.3890    1.0010   21.0690 C   0  0  0  0  0  0  0  0  0  0  0  0
    9.5890   -2.4950   23.2210 C   0  0  0  0  0  0  0  0  0  0  0  0
    8.2550   -1.0010   24.5520 C   0  0  0  0  0  0  0  0  0  0  0  0
    9.1890   -3.5540   24.0140 C   0  0  0  0  0  0  0  0  0  0  0  0
    7.8700   -2.0610   25.3550 C   0  0  0  0  0  0  0  0  0  0  0  0
   14.2636   -1.7454   23.4838 C   0  0  0  0  0  0  0  0  0  0  0  0
   12.4750   -0.8115   22.1551 C   0  0  0  0  0  0  0  0  0  0  0  0
   11.9616   -0.1817   23.2889 C   0  0  0  0  0  0  0  0  0  0  0  0
    5.7970    0.9500   18.6730 C   0  0  0  0  0  0  0  0  0  0  0  0
    6.1460    0.6070   19.9750 C   0  0  0  0  0  0  0  0  0  0  0  0
    9.1280   -1.2090   23.4870 C   0  0  0  0  0  0  0  0  0  0  0  0
    8.3450   -3.3440   25.0980 C   0  0  0  0  0  0  0  0  0  0  0  0
   13.6260   -1.5933   22.2526 C   0  0  0  0  0  0  0  0  0  0  0  0
    9.0430    0.2380   21.4940 C   0  0  0  0  0  0  0  0  0  0  0  0
    8.5123   -5.6657   25.5744 C   0  0  0  0  0  0  0  0  0  0  0  0
   10.7220    0.6590   23.1850 C   0  0  0  0  0  0  0  0  0  0  0  0
    6.7100    0.3850   17.8100 N   0  0  0  0  0  0  0  0  0  0  0  0
    7.5840   -0.2700   18.5160 N   0  0  0  0  0  0  0  0  0  0  0  0
    7.2710   -0.1460   19.8310 N   0  0  0  0  0  0  0  0  0  0  0  0
    8.0950   -0.7700   20.8440 N   0  0  0  0  0  0  0  0  0  0  0  0
    9.5820   -0.1080   22.7000 N   0  0  0  0  0  0  0  0  0  0  0  0
    9.2950    1.3000   20.9480 O   0  0  0  0  0  0  0  0  0  0  0  0
    7.9864   -4.3799   25.8996 O   0  0  0  0  0  0  0  0  0  0  0  0
   14.2594   -2.3714   20.8543 Cl  0  0  0  0  0  0  0  0  0  0  0  0
    2.9846    2.6932   19.3610 H   0  0  0  0  0  0  0  0  0  0  0  0
    3.6235    2.0692   21.6570 H   0  0  0  0  0  0  0  0  0  0  0  0
   14.2462   -1.2340   25.5766 H   0  0  0  0  0  0  0  0  0  0  0  0
   12.2060    0.1530   25.4088 H   0  0  0  0  0  0  0  0  0  0  0  0
    4.3785    2.0113   17.4257 H   0  0  0  0  0  0  0  0  0  0  0  0
    5.6763    0.7332   22.0915 H   0  0  0  0  0  0  0  0  0  0  0  0
   10.2678   -2.6746   22.3862 H   0  0  0  0  0  0  0  0  0  0  0  0
    7.8691   -0.0023   24.7606 H   0  0  0  0  0  0  0  0  0  0  0  0
    9.5404   -4.5633   23.7846 H   0  0  0  0  0  0  0  0  0  0  0  0
    7.1920   -1.8875   26.1914 H   0  0  0  0  0  0  0  0  0  0  0  0
   15.1613   -2.3520   23.5747 H   0  0  0  0  0  0  0  0  0  0  0  0
   11.9745   -0.6893   21.1973 H   0  0  0  0  0  0  0  0  0  0  0  0
    8.1469   -6.4023   26.2941 H   0  0  0  0  0  0  0  0  0  0  0  0
    9.6044   -5.6298   25.5962 H   0  0  0  0  0  0  0  0  0  0  0  0
    8.1788   -5.9429   24.5716 H   0  0  0  0  0  0  0  0  0  0  0  0
   10.4561    1.0772   24.1620 H   0  0  0  0  0  0  0  0  0  0  0  0
   10.8743    1.5008   22.5014 H   0  0  0  0  0  0  0  0  0  0  0  0
    8.0593   -1.6239   21.0632 H   0  0  0  0  0  0  0  0  0  0  0  0
  1  2  1  0  0  0  0
  1  5  2  0  0  0  0
  2  6  2  0  0  0  0
  3  4  2  0  0  0  0
  3 11  1  0  0  0  0
  4 13  1  0  0  0  0
  5 14  1  0  0  0  0
  6 15  1  0  0  0  0
  7  9  2  0  0  0  0
  7 16  1  0  0  0  0
  8 10  1  0  0  0  0
  8 16  2  0  0  0  0
  9 17  1  0  0  0  0
 10 17  2  0  0  0  0
 11 18  2  0  0  0  0
 12 13  2  0  0  0  0
 12 18  1  0  0  0  0
 13 21  1  0  0  0  0
 14 15  2  0  0  0  0
 14 22  1  0  0  0  0
 15 24  1  0  0  0  0
 16 26  1  0  0  0  0
 17 28  1  0  0  0  0
 18 29  1  0  0  0  0
 19 25  1  0  0  0  0
 19 26  1  0  0  0  0
 19 27  2  0  0  0  0
 20 28  1  0  0  0  0
 21 26  1  0  0  0  0
 22 23  2  0  0  0  0
 23 24  1  0  0  0  0
 24 25  1  0  0  0  0
  1 30  1  0  0  0  0
  2 31  1  0  0  0  0
  3 32  1  0  0  0  0
  4 33  1  0  0  0  0
  5 34  1  0  0  0  0
  6 35  1  0  0  0  0
  7 36  1  0  0  0  0
  8 37  1  0  0  0  0
  9 38  1  0  0  0  0
 10 39  1  0  0  0  0
 11 40  1  0  0  0  0
 12 41  1  0  0  0  0
 20 42  1  0  0  0  0
 20 43  1  0  0  0  0
 20 44  1  0  0  0  0
 21 45  1  0  0  0  0
 21 46  1  0  0  0  0
 25 47  1  0  0  0  0
M  END
> <clash_score>
0

> <docking_score>
-8.269730567932129

> <overlap_score>
0.9233071208000183

$$$$
BENZO_20_1
  -OEChem-08222022433D

 54 58  0     0  0  0  0  0  0999 V2000
    3.8860    2.1050   19.5250 C   0  0  0  0  0  0  0  0  0  0  0  0
    4.2460    1.7520   20.8250 C   0  0  0  0  0  0  0  0  0  0  0  0
    4.6610    1.7170   18.4380 C   0  0  0  0  0  0  0  0  0  0  0  0
    5.3890    1.0010   21.0690 C   0  0  0  0  0  0  0  0  0  0  0  0
    9.1890   -3.5540   24.0140 C   0  0  0  0  0  0  0  0  0  0  0  0
    7.8700   -2.0610   25.3550 C   0  0  0  0  0  0  0  0  0  0  0  0
    9.5890   -2.4950   23.2210 C   0  0  0  0  0  0  0  0  0  0  0  0
    8.2550   -1.0010   24.5520 C   0  0  0  0  0  0  0  0  0  0  0  0
   12.6785   -0.3936   24.5018 C   0  0  0  0  0  0  0  0  0  0  0  0
   13.7775   -1.2037   24.3186 C   0  0  0  0  0  0  0  0  0  0  0  0
   12.5401   -0.8378   22.2246 C   0  0  0  0  0  0  0  0  0  0  0  0
   11.9616   -0.1817   23.2889 C   0  0  0  0  0  0  0  0  0  0  0  0
    5.7970    0.9500   18.6730 C   0  0  0  0  0  0  0  0  0  0  0  0
    6.1460    0.6070   19.9750 C   0  0  0  0  0  0  0  0  0  0  0  0
    8.3450   -3.3440   25.0980 C   0  0  0  0  0  0  0  0  0  0  0  0
    9.1280   -1.2090   23.4870 C   0  0  0  0  0  0  0  0  0  0  0  0
    7.2752   -5.5548   25.4273 C   0  0  0  0  0  0  0  0  0  0  0  0
    9.0430    0.2380   21.4940 C   0  0  0  0  0  0  0  0  0  0  0  0
    7.1880   -6.7800   26.3209 C   0  0  0  0  0  0  0  0  0  0  0  0
    7.0916   -6.4753   27.7999 C   0  0  0  0  0  0  0  0  0  0  0  0
    8.2362   -5.5640   28.1841 C   0  0  0  0  0  0  0  0  0  0  0  0
    8.1240   -4.2655   27.4032 C   0  0  0  0  0  0  0  0  0  0  0  0
   10.7220    0.6590   23.1850 C   0  0  0  0  0  0  0  0  0  0  0  0
    6.7100    0.3850   17.8100 N   0  0  0  0  0  0  0  0  0  0  0  0
    7.5840   -0.2700   18.5160 N   0  0  0  0  0  0  0  0  0  0  0  0
    7.2710   -0.1460   19.8310 N   0  0  0  0  0  0  0  0  0  0  0  0
    7.9635   -4.4452   25.9501 N   0  0  0  0  0  0  0  0  0  0  0  0
    8.0950   -0.7700   20.8440 N   0  0  0  0  0  0  0  0  0  0  0  0
    9.5820   -0.1080   22.7000 N   0  0  0  0  0  0  0  0  0  0  0  0
    6.7947   -5.6299   24.2931 O   0  0  0  0  0  0  0  0  0  0  0  0
    9.2950    1.3000   20.9480 O   0  0  0  0  0  0  0  0  0  0  0  0
   13.9416   -1.7050   22.6894 S   0  0  0  0  0  0  0  0  0  0  0  0
    2.9846    2.6932   19.3610 H   0  0  0  0  0  0  0  0  0  0  0  0
    3.6235    2.0692   21.6570 H   0  0  0  0  0  0  0  0  0  0  0  0
    4.3785    2.0113   17.4257 H   0  0  0  0  0  0  0  0  0  0  0  0
    5.6763    0.7332   22.0915 H   0  0  0  0  0  0  0  0  0  0  0  0
    9.5436   -4.5614   23.7799 H   0  0  0  0  0  0  0  0  0  0  0  0
    7.1918   -1.8823   26.1906 H   0  0  0  0  0  0  0  0  0  0  0  0
   10.2676   -2.6754   22.3861 H   0  0  0  0  0  0  0  0  0  0  0  0
    7.8686   -0.0026   24.7598 H   0  0  0  0  0  0  0  0  0  0  0  0
   12.4058    0.0253   25.4623 H   0  0  0  0  0  0  0  0  0  0  0  0
   14.4923   -1.5246   25.0631 H   0  0  0  0  0  0  0  0  0  0  0  0
   12.2108   -0.8511   21.1948 H   0  0  0  0  0  0  0  0  0  0  0  0
    6.3101   -7.3613   26.0164 H   0  0  0  0  0  0  0  0  0  0  0  0
    8.0752   -7.3922   26.1183 H   0  0  0  0  0  0  0  0  0  0  0  0
    6.1328   -5.9938   28.0269 H   0  0  0  0  0  0  0  0  0  0  0  0
    7.1363   -7.4051   28.3772 H   0  0  0  0  0  0  0  0  0  0  0  0
    8.2035   -5.3520   29.2586 H   0  0  0  0  0  0  0  0  0  0  0  0
    9.1990   -6.0474   27.9788 H   0  0  0  0  0  0  0  0  0  0  0  0
    7.2505   -3.6996   27.7511 H   0  0  0  0  0  0  0  0  0  0  0  0
    9.0155   -3.6525   27.5824 H   0  0  0  0  0  0  0  0  0  0  0  0
   10.4561    1.0772   24.1620 H   0  0  0  0  0  0  0  0  0  0  0  0
   10.8743    1.5008   22.5014 H   0  0  0  0  0  0  0  0  0  0  0  0
    8.0897   -1.6082   21.0890 H   0  0  0  0  0  0  0  0  0  0  0  0
  1  2  1  0  0  0  0
  1  3  2  0  0  0  0
  2  4  2  0  0  0  0
  3 13  1  0  0  0  0
  4 14  1  0  0  0  0
  5  7  2  0  0  0  0
  5 15  1  0  0  0  0
  6  8  1  0  0  0  0
  6 15  2  0  0  0  0
  7 16  1  0  0  0  0
  8 16  2  0  0  0  0
  9 10  2  0  0  0  0
  9 12  1  0  0  0  0
 10 32  1  0  0  0  0
 11 12  2  0  0  0  0
 11 32  1  0  0  0  0
 12 23  1  0  0  0  0
 13 14  2  0  0  0  0
 13 24  1  0  0  0  0
 14 26  1  0  0  0  0
 15 27  1  0  0  0  0
 16 29  1  0  0  0  0
 17 19  1  0  0  0  0
 17 27  1  0  0  0  0
 17 30  2  0  0  0  0
 18 28  1  0  0  0  0
 18 29  1  0  0  0  0
 18 31  2  0  0  0  0
 19 20  1  0  0  0  0
 20 21  1  0  0  0  0
 21 22  1  0  0  0  0
 22 27  1  0  0  0  0
 23 29  1  0  0  0  0
 24 25  2  0  0  0  0
 25 26  1  0  0  0  0
 26 28  1  0  0  0  0
  1 33  1  0  0  0  0
  2 34  1  0  0  0  0
  3 35  1  0  0  0  0
  4 36  1  0  0  0  0
  5 37  1  0  0  0  0
  6 38  1  0  0  0  0
  7 39  1  0  0  0  0
  8 40  1  0  0  0  0
  9 41  1  0  0  0  0
 10 42  1  0  0  0  0
 11 43  1  0  0  0  0
 19 44  1  0  0  0  0
 19 45  1  0  0  0  0
 20 46  1  0  0  0  0
 20 47  1  0  0  0  0
 21 48  1  0  0  0  0
 21 49  1  0  0  0  0
 22 50  1  0  0  0  0
 22 51  1  0  0  0  0
 23 52  1  0  0  0  0
 23 53  1  0  0  0  0
 28 54  1  0  0  0  0
M  END
> <clash_score>
0

> <docking_score>
-8.549445152282715

> <overlap_score>
0.9828841090202332

$$$$
BENZO_23_1
  -OEChem-08222022433D

 57 61  0     0  0  0  0  0  0999 V2000
    3.8860    2.1050   19.5250 C   0  0  0  0  0  0  0  0  0  0  0  0
    4.2460    1.7520   20.8250 C   0  0  0  0  0  0  0  0  0  0  0  0
    4.6610    1.7170   18.4380 C   0  0  0  0  0  0  0  0  0  0  0  0
    5.3890    1.0010   21.0690 C   0  0  0  0  0  0  0  0  0  0  0  0
    9.1890   -3.5540   24.0140 C   0  0  0  0  0  0  0  0  0  0  0  0
    7.8700   -2.0610   25.3550 C   0  0  0  0  0  0  0  0  0  0  0  0
    9.5890   -2.4950   23.2210 C   0  0  0  0  0  0  0  0  0  0  0  0
    8.2550   -1.0010   24.5520 C   0  0  0  0  0  0  0  0  0  0  0  0
   12.7320   -0.4464   24.4370 C   0  0  0  0  0  0  0  0  0  0  0  0
   12.5970   -0.8682   22.2832 C   0  0  0  0  0  0  0  0  0  0  0  0
   11.9616   -0.1817   23.2889 C   0  0  0  0  0  0  0  0  0  0  0  0
    5.7970    0.9500   18.6730 C   0  0  0  0  0  0  0  0  0  0  0  0
    6.1460    0.6070   19.9750 C   0  0  0  0  0  0  0  0  0  0  0  0
    8.3450   -3.3440   25.0980 C   0  0  0  0  0  0  0  0  0  0  0  0
    9.1280   -1.2090   23.4870 C   0  0  0  0  0  0  0  0  0  0  0  0
    7.2752   -5.5548   25.4273 C   0  0  0  0  0  0  0  0  0  0  0  0
    9.0430    0.2380   21.4940 C   0  0  0  0  0  0  0  0  0  0  0  0
    7.1880   -6.7800   26.3209 C   0  0  0  0  0  0  0  0  0  0  0  0
    7.0916   -6.4753   27.7999 C   0  0  0  0  0  0  0  0  0  0  0  0
    8.2362   -5.5640   28.1841 C   0  0  0  0  0  0  0  0  0  0  0  0
    8.1240   -4.2655   27.4032 C   0  0  0  0  0  0  0  0  0  0  0  0
   14.6393   -2.3180   22.2082 C   0  0  0  0  0  0  0  0  0  0  0  0
   10.7220    0.6590   23.1850 C   0  0  0  0  0  0  0  0  0  0  0  0
   13.7770   -1.2393   24.1852 N   0  0  0  0  0  0  0  0  0  0  0  0
    6.7100    0.3850   17.8100 N   0  0  0  0  0  0  0  0  0  0  0  0
    7.5840   -0.2700   18.5160 N   0  0  0  0  0  0  0  0  0  0  0  0
   13.6676   -1.4788   22.8673 N   0  0  0  0  0  0  0  0  0  0  0  0
    7.2710   -0.1460   19.8310 N   0  0  0  0  0  0  0  0  0  0  0  0
    7.9635   -4.4452   25.9501 N   0  0  0  0  0  0  0  0  0  0  0  0
    8.0950   -0.7700   20.8440 N   0  0  0  0  0  0  0  0  0  0  0  0
    9.5820   -0.1080   22.7000 N   0  0  0  0  0  0  0  0  0  0  0  0
    6.7947   -5.6299   24.2931 O   0  0  0  0  0  0  0  0  0  0  0  0
    9.2950    1.3000   20.9480 O   0  0  0  0  0  0  0  0  0  0  0  0
    2.9846    2.6932   19.3610 H   0  0  0  0  0  0  0  0  0  0  0  0
    3.6235    2.0692   21.6570 H   0  0  0  0  0  0  0  0  0  0  0  0
    4.3785    2.0113   17.4257 H   0  0  0  0  0  0  0  0  0  0  0  0
    5.6763    0.7332   22.0915 H   0  0  0  0  0  0  0  0  0  0  0  0
    9.5436   -4.5614   23.7799 H   0  0  0  0  0  0  0  0  0  0  0  0
    7.1918   -1.8823   26.1906 H   0  0  0  0  0  0  0  0  0  0  0  0
   10.2676   -2.6754   22.3861 H   0  0  0  0  0  0  0  0  0  0  0  0
    7.8686   -0.0026   24.7598 H   0  0  0  0  0  0  0  0  0  0  0  0
   12.5771   -0.0965   25.4478 H   0  0  0  0  0  0  0  0  0  0  0  0
   12.3832   -0.9726   21.2281 H   0  0  0  0  0  0  0  0  0  0  0  0
    6.3101   -7.3613   26.0164 H   0  0  0  0  0  0  0  0  0  0  0  0
    8.0752   -7.3922   26.1183 H   0  0  0  0  0  0  0  0  0  0  0  0
    6.1328   -5.9938   28.0269 H   0  0  0  0  0  0  0  0  0  0  0  0
    7.1363   -7.4051   28.3772 H   0  0  0  0  0  0  0  0  0  0  0  0
    8.2035   -5.3520   29.2586 H   0  0  0  0  0  0  0  0  0  0  0  0
    9.1990   -6.0474   27.9788 H   0  0  0  0  0  0  0  0  0  0  0  0
    7.2505   -3.6996   27.7511 H   0  0  0  0  0  0  0  0  0  0  0  0
    9.0155   -3.6525   27.5824 H   0  0  0  0  0  0  0  0  0  0  0  0
   15.4522   -1.6787   21.8540 H   0  0  0  0  0  0  0  0  0  0  0  0
   15.0179   -3.0612   22.9154 H   0  0  0  0  0  0  0  0  0  0  0  0
   14.1626   -2.8324   21.3691 H   0  0  0  0  0  0  0  0  0  0  0  0
   10.4561    1.0772   24.1620 H   0  0  0  0  0  0  0  0  0  0  0  0
   10.8743    1.5008   22.5014 H   0  0  0  0  0  0  0  0  0  0  0  0
    8.0897   -1.6082   21.0890 H   0  0  0  0  0  0  0  0  0  0  0  0
  1  2  1  0  0  0  0
  1  3  2  0  0  0  0
  2  4  2  0  0  0  0
  3 12  1  0  0  0  0
  4 13  1  0  0  0  0
  5  7  2  0  0  0  0
  5 14  1  0  0  0  0
  6  8  1  0  0  0  0
  6 14  2  0  0  0  0
  7 15  1  0  0  0  0
  8 15  2  0  0  0  0
  9 11  1  0  0  0  0
  9 24  2  0  0  0  0
 10 11  2  0  0  0  0
 10 27  1  0  0  0  0
 11 23  1  0  0  0  0
 12 13  2  0  0  0  0
 12 25  1  0  0  0  0
 13 28  1  0  0  0  0
 14 29  1  0  0  0  0
 15 31  1  0  0  0  0
 16 18  1  0  0  0  0
 16 29  1  0  0  0  0
 16 32  2  0  0  0  0
 17 30  1  0  0  0  0
 17 31  1  0  0  0  0
 17 33  2  0  0  0  0
 18 19  1  0  0  0  0
 19 20  1  0  0  0  0
 20 21  1  0  0  0  0
 21 29  1  0  0  0  0
 22 27  1  0  0  0  0
 23 31  1  0  0  0  0
 24 27  1  0  0  0  0
 25 26  2  0  0  0  0
 26 28  1  0  0  0  0
 28 30  1  0  0  0  0
  1 34  1  0  0  0  0
  2 35  1  0  0  0  0
  3 36  1  0  0  0  0
  4 37  1  0  0  0  0
  5 38  1  0  0  0  0
  6 39  1  0  0  0  0
  7 40  1  0  0  0  0
  8 41  1  0  0  0  0
  9 42  1  0  0  0  0
 10 43  1  0  0  0  0
 18 44  1  0  0  0  0
 18 45  1  0  0  0  0
 19 46  1  0  0  0  0
 19 47  1  0  0  0  0
 20 48  1  0  0  0  0
 20 49  1  0  0  0  0
 21 50  1  0  0  0  0
 21 51  1  0  0  0  0
 22 52  1  0  0  0  0
 22 53  1  0  0  0  0
 22 54  1  0  0  0  0
 23 55  1  0  0  0  0
 23 56  1  0  0  0  0
 30 57  1  0  0  0  0
M  END
> <clash_score>
0

> <docking_score>
-7.298666000366211

> <overlap_score>
0.9994744658470154

$$$$
BENZO_22_1
  -OEChem-08222022433D

 57 61  0     0  0  0  0  0  0999 V2000
    3.8860    2.1050   19.5250 C   0  0  0  0  0  0  0  0  0  0  0  0
    4.2460    1.7520   20.8250 C   0  0  0  0  0  0  0  0  0  0  0  0
   13.7501   -1.1157   24.6176 C   0  0  0  0  0  0  0  0  0  0  0  0
   12.5991   -0.3339   24.5202 C   0  0  0  0  0  0  0  0  0  0  0  0
    4.6610    1.7170   18.4380 C   0  0  0  0  0  0  0  0  0  0  0  0
    5.3890    1.0010   21.0690 C   0  0  0  0  0  0  0  0  0  0  0  0
    9.1890   -3.5540   24.0140 C   0  0  0  0  0  0  0  0  0  0  0  0
    7.8700   -2.0610   25.3550 C   0  0  0  0  0  0  0  0  0  0  0  0
    9.5890   -2.4950   23.2210 C   0  0  0  0  0  0  0  0  0  0  0  0
    8.2550   -1.0010   24.5520 C   0  0  0  0  0  0  0  0  0  0  0  0
   14.2636   -1.7454   23.4838 C   0  0  0  0  0  0  0  0  0  0  0  0
   12.4750   -0.8115   22.1551 C   0  0  0  0  0  0  0  0  0  0  0  0
   11.9616   -0.1817   23.2889 C   0  0  0  0  0  0  0  0  0  0  0  0
    5.7970    0.9500   18.6730 C   0  0  0  0  0  0  0  0  0  0  0  0
    6.1460    0.6070   19.9750 C   0  0  0  0  0  0  0  0  0  0  0  0
    8.3450   -3.3440   25.0980 C   0  0  0  0  0  0  0  0  0  0  0  0
    9.1280   -1.2090   23.4870 C   0  0  0  0  0  0  0  0  0  0  0  0
   13.6260   -1.5933   22.2526 C   0  0  0  0  0  0  0  0  0  0  0  0
    7.2757   -5.5631   25.4492 C   0  0  0  0  0  0  0  0  0  0  0  0
    9.0430    0.2380   21.4940 C   0  0  0  0  0  0  0  0  0  0  0  0
    6.9626   -6.6001   26.5133 C   0  0  0  0  0  0  0  0  0  0  0  0
    6.3765   -5.9422   27.7501 C   0  0  0  0  0  0  0  0  0  0  0  0
    7.2660   -4.8258   28.2881 C   0  0  0  0  0  0  0  0  0  0  0  0
    8.4098   -4.4623   27.3426 C   0  0  0  0  0  0  0  0  0  0  0  0
   10.7220    0.6590   23.1850 C   0  0  0  0  0  0  0  0  0  0  0  0
    6.7100    0.3850   17.8100 N   0  0  0  0  0  0  0  0  0  0  0  0
    7.5840   -0.2700   18.5160 N   0  0  0  0  0  0  0  0  0  0  0  0
    7.2710   -0.1460   19.8310 N   0  0  0  0  0  0  0  0  0  0  0  0
    7.9658   -4.4384   25.9449 N   0  0  0  0  0  0  0  0  0  0  0  0
    8.0950   -0.7700   20.8440 N   0  0  0  0  0  0  0  0  0  0  0  0
    9.5820   -0.1080   22.7000 N   0  0  0  0  0  0  0  0  0  0  0  0
    6.9858   -5.7908   24.2753 O   0  0  0  0  0  0  0  0  0  0  0  0
    9.2950    1.3000   20.9480 O   0  0  0  0  0  0  0  0  0  0  0  0
   14.2594   -2.3714   20.8543 Cl  0  0  0  0  0  0  0  0  0  0  0  0
    2.9846    2.6932   19.3610 H   0  0  0  0  0  0  0  0  0  0  0  0
    3.6235    2.0692   21.6570 H   0  0  0  0  0  0  0  0  0  0  0  0
   14.2462   -1.2340   25.5766 H   0  0  0  0  0  0  0  0  0  0  0  0
   12.2060    0.1530   25.4088 H   0  0  0  0  0  0  0  0  0  0  0  0
    4.3785    2.0113   17.4257 H   0  0  0  0  0  0  0  0  0  0  0  0
    5.6763    0.7332   22.0915 H   0  0  0  0  0  0  0  0  0  0  0  0
    9.5436   -4.5614   23.7799 H   0  0  0  0  0  0  0  0  0  0  0  0
    7.1918   -1.8823   26.1906 H   0  0  0  0  0  0  0  0  0  0  0  0
   10.2676   -2.6754   22.3861 H   0  0  0  0  0  0  0  0  0  0  0  0
    7.8686   -0.0026   24.7598 H   0  0  0  0  0  0  0  0  0  0  0  0
   15.1613   -2.3520   23.5747 H   0  0  0  0  0  0  0  0  0  0  0  0
   11.9745   -0.6893   21.1973 H   0  0  0  0  0  0  0  0  0  0  0  0
    6.2500   -7.3027   26.1097 H   0  0  0  0  0  0  0  0  0  0  0  0
    7.8838   -7.1078   26.7574 H   0  0  0  0  0  0  0  0  0  0  0  0
    5.3690   -5.5364   27.5214 H   0  0  0  0  0  0  0  0  0  0  0  0
    6.2178   -6.7054   28.5384 H   0  0  0  0  0  0  0  0  0  0  0  0
    6.6498   -3.9225   28.4807 H   0  0  0  0  0  0  0  0  0  0  0  0
    7.6764   -5.1138   29.2803 H   0  0  0  0  0  0  0  0  0  0  0  0
    8.7796   -3.4700   27.5826 H   0  0  0  0  0  0  0  0  0  0  0  0
    9.2112   -5.1853   27.4497 H   0  0  0  0  0  0  0  0  0  0  0  0
   10.4561    1.0772   24.1620 H   0  0  0  0  0  0  0  0  0  0  0  0
   10.8743    1.5008   22.5014 H   0  0  0  0  0  0  0  0  0  0  0  0
    8.0897   -1.6082   21.0890 H   0  0  0  0  0  0  0  0  0  0  0  0
  1  2  1  0  0  0  0
  1  5  2  0  0  0  0
  2  6  2  0  0  0  0
  3  4  2  0  0  0  0
  3 11  1  0  0  0  0
  4 13  1  0  0  0  0
  5 14  1  0  0  0  0
  6 15  1  0  0  0  0
  7  9  2  0  0  0  0
  7 16  1  0  0  0  0
  8 10  1  0  0  0  0
  8 16  2  0  0  0  0
  9 17  1  0  0  0  0
 10 17  2  0  0  0  0
 11 18  2  0  0  0  0
 12 13  2  0  0  0  0
 12 18  1  0  0  0  0
 13 25  1  0  0  0  0
 14 15  2  0  0  0  0
 14 26  1  0  0  0  0
 15 28  1  0  0  0  0
 16 29  1  0  0  0  0
 17 31  1  0  0  0  0
 18 34  1  0  0  0  0
 19 21  1  0  0  0  0
 19 29  1  0  0  0  0
 19 32  2  0  0  0  0
 20 30  1  0  0  0  0
 20 31  1  0  0  0  0
 20 33  2  0  0  0  0
 21 22  1  0  0  0  0
 22 23  1  0  0  0  0
 23 24  1  0  0  0  0
 24 29  1  0  0  0  0
 25 31  1  0  0  0  0
 26 27  2  0  0  0  0
 27 28  1  0  0  0  0
 28 30  1  0  0  0  0
  1 35  1  0  0  0  0
  2 36  1  0  0  0  0
  3 37  1  0  0  0  0
  4 38  1  0  0  0  0
  5 39  1  0  0  0  0
  6 40  1  0  0  0  0
  7 41  1  0  0  0  0
  8 42  1  0  0  0  0
  9 43  1  0  0  0  0
 10 44  1  0  0  0  0
 11 45  1  0  0  0  0
 12 46  1  0  0  0  0
 21 47  1  0  0  0  0
 21 48  1  0  0  0  0
 22 49  1  0  0  0  0
 22 50  1  0  0  0  0
 23 51  1  0  0  0  0
 23 52  1  0  0  0  0
 24 53  1  0  0  0  0
 24 54  1  0  0  0  0
 25 55  1  0  0  0  0
 25 56  1  0  0  0  0
 30 57  1  0  0  0  0
M  END
> <clash_score>
0

> <docking_score>
-8.142083168029785

> <overlap_score>
0.9984303712844849

$$$$
BENZO_25_1
  -OEChem-08222022433D

 56 60  0     0  0  0  0  0  0999 V2000
   14.2641   -1.7450   23.4813 C   0  0  0  0  0  0  0  0  0  0  0  0
   14.0779   -0.6681   24.3480 C   0  0  0  0  0  0  0  0  0  0  0  0
   13.2991   -2.0403   22.5184 C   0  0  0  0  0  0  0  0  0  0  0  0
    3.8860    2.1050   19.5250 C   0  0  0  0  0  0  0  0  0  0  0  0
    4.2460    1.7520   20.8250 C   0  0  0  0  0  0  0  0  0  0  0  0
   12.9266    0.1135   24.2518 C   0  0  0  0  0  0  0  0  0  0  0  0
   12.1478   -1.2587   22.4222 C   0  0  0  0  0  0  0  0  0  0  0  0
    4.6610    1.7170   18.4380 C   0  0  0  0  0  0  0  0  0  0  0  0
    5.3890    1.0010   21.0690 C   0  0  0  0  0  0  0  0  0  0  0  0
    9.1890   -3.5540   24.0140 C   0  0  0  0  0  0  0  0  0  0  0  0
    7.8700   -2.0610   25.3550 C   0  0  0  0  0  0  0  0  0  0  0  0
    9.5890   -2.4950   23.2210 C   0  0  0  0  0  0  0  0  0  0  0  0
    8.2550   -1.0010   24.5520 C   0  0  0  0  0  0  0  0  0  0  0  0
   11.9616   -0.1817   23.2889 C   0  0  0  0  0  0  0  0  0  0  0  0
    5.7970    0.9500   18.6730 C   0  0  0  0  0  0  0  0  0  0  0  0
    6.1460    0.6070   19.9750 C   0  0  0  0  0  0  0  0  0  0  0  0
    8.3450   -3.3440   25.0980 C   0  0  0  0  0  0  0  0  0  0  0  0
    9.1280   -1.2090   23.4870 C   0  0  0  0  0  0  0  0  0  0  0  0
    9.0430    0.2380   21.4940 C   0  0  0  0  0  0  0  0  0  0  0  0
    7.2567   -5.5373   25.3128 C   0  0  0  0  0  0  0  0  0  0  0  0
    7.6783   -4.1701   27.3375 C   0  0  0  0  0  0  0  0  0  0  0  0
    7.3927   -6.7710   26.1978 C   0  0  0  0  0  0  0  0  0  0  0  0
    7.7912   -5.4770   28.1147 C   0  0  0  0  0  0  0  0  0  0  0  0
   10.7220    0.6590   23.1850 C   0  0  0  0  0  0  0  0  0  0  0  0
    6.7100    0.3850   17.8100 N   0  0  0  0  0  0  0  0  0  0  0  0
    7.5840   -0.2700   18.5160 N   0  0  0  0  0  0  0  0  0  0  0  0
    7.2710   -0.1460   19.8310 N   0  0  0  0  0  0  0  0  0  0  0  0
    7.9750   -4.4088   25.9208 N   0  0  0  0  0  0  0  0  0  0  0  0
    8.0950   -0.7700   20.8440 N   0  0  0  0  0  0  0  0  0  0  0  0
    9.5820   -0.1080   22.7000 N   0  0  0  0  0  0  0  0  0  0  0  0
    9.2950    1.3000   20.9480 O   0  0  0  0  0  0  0  0  0  0  0  0
    6.9636   -6.4808   27.5280 O   0  0  0  0  0  0  0  0  0  0  0  0
   15.1613   -2.3527   23.5555 H   0  0  0  0  0  0  0  0  0  0  0  0
   14.8297   -0.4373   25.0971 H   0  0  0  0  0  0  0  0  0  0  0  0
   13.4443   -2.8780   21.8427 H   0  0  0  0  0  0  0  0  0  0  0  0
    2.9846    2.6932   19.3610 H   0  0  0  0  0  0  0  0  0  0  0  0
    3.6235    2.0692   21.6570 H   0  0  0  0  0  0  0  0  0  0  0  0
   12.7899    0.9506   24.9315 H   0  0  0  0  0  0  0  0  0  0  0  0
   11.4013   -1.4963   21.6690 H   0  0  0  0  0  0  0  0  0  0  0  0
    4.3785    2.0113   17.4257 H   0  0  0  0  0  0  0  0  0  0  0  0
    5.6763    0.7332   22.0915 H   0  0  0  0  0  0  0  0  0  0  0  0
    9.5426   -4.5618   23.7797 H   0  0  0  0  0  0  0  0  0  0  0  0
    7.1914   -1.8824   26.1903 H   0  0  0  0  0  0  0  0  0  0  0  0
   10.2669   -2.6745   22.3854 H   0  0  0  0  0  0  0  0  0  0  0  0
    7.8690   -0.0020   24.7587 H   0  0  0  0  0  0  0  0  0  0  0  0
    7.6535   -5.7575   24.3148 H   0  0  0  0  0  0  0  0  0  0  0  0
    6.1962   -5.2737   25.2113 H   0  0  0  0  0  0  0  0  0  0  0  0
    6.6579   -3.7759   27.4290 H   0  0  0  0  0  0  0  0  0  0  0  0
    8.3696   -3.4320   27.7610 H   0  0  0  0  0  0  0  0  0  0  0  0
    6.7582   -7.5752   25.8116 H   0  0  0  0  0  0  0  0  0  0  0  0
    8.4238   -7.1441   26.2130 H   0  0  0  0  0  0  0  0  0  0  0  0
    8.8287   -5.8300   28.1600 H   0  0  0  0  0  0  0  0  0  0  0  0
    7.4508   -5.3250   29.1440 H   0  0  0  0  0  0  0  0  0  0  0  0
   10.4561    1.0772   24.1620 H   0  0  0  0  0  0  0  0  0  0  0  0
   10.8743    1.5008   22.5014 H   0  0  0  0  0  0  0  0  0  0  0  0
    8.0897   -1.6082   21.0890 H   0  0  0  0  0  0  0  0  0  0  0  0
  1  2  1  0  0  0  0
  1  3  2  0  0  0  0
  2  6  2  0  0  0  0
  3  7  1  0  0  0  0
  4  5  1  0  0  0  0
  4  8  2  0  0  0  0
  5  9  2  0  0  0  0
  6 14  1  0  0  0  0
  7 14  2  0  0  0  0
  8 15  1  0  0  0  0
  9 16  1  0  0  0  0
 10 12  2  0  0  0  0
 10 17  1  0  0  0  0
 11 13  1  0  0  0  0
 11 17  2  0  0  0  0
 12 18  1  0  0  0  0
 13 18  2  0  0  0  0
 14 24  1  0  0  0  0
 15 16  2  0  0  0  0
 15 25  1  0  0  0  0
 16 27  1  0  0  0  0
 17 28  1  0  0  0  0
 18 30  1  0  0  0  0
 19 29  1  0  0  0  0
 19 30  1  0  0  0  0
 19 31  2  0  0  0  0
 20 22  1  0  0  0  0
 20 28  1  0  0  0  0
 21 23  1  0  0  0  0
 21 28  1  0  0  0  0
 22 32  1  0  0  0  0
 23 32  1  0  0  0  0
 24 30  1  0  0  0  0
 25 26  2  0  0  0  0
 26 27  1  0  0  0  0
 27 29  1  0  0  0  0
  1 33  1  0  0  0  0
  2 34  1  0  0  0  0
  3 35  1  0  0  0  0
  4 36  1  0  0  0  0
  5 37  1  0  0  0  0
  6 38  1  0  0  0  0
  7 39  1  0  0  0  0
  8 40  1  0  0  0  0
  9 41  1  0  0  0  0
 10 42  1  0  0  0  0
 11 43  1  0  0  0  0
 12 44  1  0  0  0  0
 13 45  1  0  0  0  0
 20 46  1  0  0  0  0
 20 47  1  0  0  0  0
 21 48  1  0  0  0  0
 21 49  1  0  0  0  0
 22 50  1  0  0  0  0
 22 51  1  0  0  0  0
 23 52  1  0  0  0  0
 23 53  1  0  0  0  0
 24 54  1  0  0  0  0
 24 55  1  0  0  0  0
 29 56  1  0  0  0  0
M  END
> <clash_score>
0

> <docking_score>
-9.412525177001953

> <overlap_score>
0.9890321493148804

$$$$
BENZO_24_1
  -OEChem-08222022433D

 53 57  0     0  0  0  0  0  0999 V2000
    3.8860    2.1050   19.5250 C   0  0  0  0  0  0  0  0  0  0  0  0
    4.2460    1.7520   20.8250 C   0  0  0  0  0  0  0  0  0  0  0  0
    4.6610    1.7170   18.4380 C   0  0  0  0  0  0  0  0  0  0  0  0
    5.3890    1.0010   21.0690 C   0  0  0  0  0  0  0  0  0  0  0  0
    9.1890   -3.5540   24.0140 C   0  0  0  0  0  0  0  0  0  0  0  0
    7.8700   -2.0610   25.3550 C   0  0  0  0  0  0  0  0  0  0  0  0
    9.5890   -2.4950   23.2210 C   0  0  0  0  0  0  0  0  0  0  0  0
    8.2550   -1.0010   24.5520 C   0  0  0  0  0  0  0  0  0  0  0  0
   12.6785   -0.3936   24.5018 C   0  0  0  0  0  0  0  0  0  0  0  0
   13.7775   -1.2037   24.3186 C   0  0  0  0  0  0  0  0  0  0  0  0
   12.5401   -0.8378   22.2246 C   0  0  0  0  0  0  0  0  0  0  0  0
   11.9616   -0.1817   23.2889 C   0  0  0  0  0  0  0  0  0  0  0  0
    5.7970    0.9500   18.6730 C   0  0  0  0  0  0  0  0  0  0  0  0
    6.1460    0.6070   19.9750 C   0  0  0  0  0  0  0  0  0  0  0  0
    8.3450   -3.3440   25.0980 C   0  0  0  0  0  0  0  0  0  0  0  0
    9.1280   -1.2090   23.4870 C   0  0  0  0  0  0  0  0  0  0  0  0
    9.0430    0.2380   21.4940 C   0  0  0  0  0  0  0  0  0  0  0  0
    8.9524   -5.2012   26.6600 C   0  0  0  0  0  0  0  0  0  0  0  0
    6.6112   -4.5068   26.4379 C   0  0  0  0  0  0  0  0  0  0  0  0
    8.9037   -4.7845   28.1261 C   0  0  0  0  0  0  0  0  0  0  0  0
    6.6374   -4.1243   27.9184 C   0  0  0  0  0  0  0  0  0  0  0  0
   10.7220    0.6590   23.1850 C   0  0  0  0  0  0  0  0  0  0  0  0
    6.7100    0.3850   17.8100 N   0  0  0  0  0  0  0  0  0  0  0  0
    7.5840   -0.2700   18.5160 N   0  0  0  0  0  0  0  0  0  0  0  0
    7.2710   -0.1460   19.8310 N   0  0  0  0  0  0  0  0  0  0  0  0
    7.9775   -4.4014   25.9151 N   0  0  0  0  0  0  0  0  0  0  0  0
    8.0950   -0.7700   20.8440 N   0  0  0  0  0  0  0  0  0  0  0  0
    9.5820   -0.1080   22.7000 N   0  0  0  0  0  0  0  0  0  0  0  0
    9.2950    1.3000   20.9480 O   0  0  0  0  0  0  0  0  0  0  0  0
    7.5729   -4.9391   28.6338 O   0  0  0  0  0  0  0  0  0  0  0  0
   13.9416   -1.7050   22.6894 S   0  0  0  0  0  0  0  0  0  0  0  0
    2.9846    2.6932   19.3610 H   0  0  0  0  0  0  0  0  0  0  0  0
    3.6235    2.0692   21.6570 H   0  0  0  0  0  0  0  0  0  0  0  0
    4.3785    2.0113   17.4257 H   0  0  0  0  0  0  0  0  0  0  0  0
    5.6763    0.7332   22.0915 H   0  0  0  0  0  0  0  0  0  0  0  0
    9.5426   -4.5618   23.7797 H   0  0  0  0  0  0  0  0  0  0  0  0
    7.1914   -1.8824   26.1903 H   0  0  0  0  0  0  0  0  0  0  0  0
   10.2669   -2.6745   22.3854 H   0  0  0  0  0  0  0  0  0  0  0  0
    7.8690   -0.0020   24.7587 H   0  0  0  0  0  0  0  0  0  0  0  0
   12.4058    0.0253   25.4623 H   0  0  0  0  0  0  0  0  0  0  0  0
   14.4923   -1.5246   25.0631 H   0  0  0  0  0  0  0  0  0  0  0  0
   12.2108   -0.8511   21.1948 H   0  0  0  0  0  0  0  0  0  0  0  0
    9.9615   -5.0500   26.2711 H   0  0  0  0  0  0  0  0  0  0  0  0
    8.6935   -6.2597   26.5720 H   0  0  0  0  0  0  0  0  0  0  0  0
    6.2628   -5.5350   26.3330 H   0  0  0  0  0  0  0  0  0  0  0  0
    5.9347   -3.8423   25.9023 H   0  0  0  0  0  0  0  0  0  0  0  0
    9.5597   -5.4275   28.7166 H   0  0  0  0  0  0  0  0  0  0  0  0
    9.2344   -3.7511   28.2636 H   0  0  0  0  0  0  0  0  0  0  0  0
    6.8874   -3.0657   28.0553 H   0  0  0  0  0  0  0  0  0  0  0  0
    5.6495   -4.2893   28.3591 H   0  0  0  0  0  0  0  0  0  0  0  0
   10.4561    1.0772   24.1620 H   0  0  0  0  0  0  0  0  0  0  0  0
   10.8743    1.5008   22.5014 H   0  0  0  0  0  0  0  0  0  0  0  0
    8.0897   -1.6082   21.0890 H   0  0  0  0  0  0  0  0  0  0  0  0
  1  2  1  0  0  0  0
  1  3  2  0  0  0  0
  2  4  2  0  0  0  0
  3 13  1  0  0  0  0
  4 14  1  0  0  0  0
  5  7  2  0  0  0  0
  5 15  1  0  0  0  0
  6  8  1  0  0  0  0
  6 15  2  0  0  0  0
  7 16  1  0  0  0  0
  8 16  2  0  0  0  0
  9 10  2  0  0  0  0
  9 12  1  0  0  0  0
 10 31  1  0  0  0  0
 11 12  2  0  0  0  0
 11 31  1  0  0  0  0
 12 22  1  0  0  0  0
 13 14  2  0  0  0  0
 13 23  1  0  0  0  0
 14 25  1  0  0  0  0
 15 26  1  0  0  0  0
 16 28  1  0  0  0  0
 17 27  1  0  0  0  0
 17 28  1  0  0  0  0
 17 29  2  0  0  0  0
 18 20  1  0  0  0  0
 18 26  1  0  0  0  0
 19 21  1  0  0  0  0
 19 26  1  0  0  0  0
 20 30  1  0  0  0  0
 21 30  1  0  0  0  0
 22 28  1  0  0  0  0
 23 24  2  0  0  0  0
 24 25  1  0  0  0  0
 25 27  1  0  0  0  0
  1 32  1  0  0  0  0
  2 33  1  0  0  0  0
  3 34  1  0  0  0  0
  4 35  1  0  0  0  0
  5 36  1  0  0  0  0
  6 37  1  0  0  0  0
  7 38  1  0  0  0  0
  8 39  1  0  0  0  0
  9 40  1  0  0  0  0
 10 41  1  0  0  0  0
 11 42  1  0  0  0  0
 18 43  1  0  0  0  0
 18 44  1  0  0  0  0
 19 45  1  0  0  0  0
 19 46  1  0  0  0  0
 20 47  1  0  0  0  0
 20 48  1  0  0  0  0
 21 49  1  0  0  0  0
 21 50  1  0  0  0  0
 22 51  1  0  0  0  0
 22 52  1  0  0  0  0
 27 53  1  0  0  0  0
M  END
> <clash_score>
0

> <docking_score>
-9.687043190002441

> <overlap_score>
0.9805795550346375

$$$$
BENZO_29_1
  -OEChem-08222022433D

 52 55  0     0  0  0  0  0  0999 V2000
   14.2641   -1.7450   23.4813 C   0  0  0  0  0  0  0  0  0  0  0  0
   14.0779   -0.6681   24.3480 C   0  0  0  0  0  0  0  0  0  0  0  0
   13.2991   -2.0403   22.5184 C   0  0  0  0  0  0  0  0  0  0  0  0
    3.8860    2.1050   19.5250 C   0  0  0  0  0  0  0  0  0  0  0  0
    4.2460    1.7520   20.8250 C   0  0  0  0  0  0  0  0  0  0  0  0
   12.9266    0.1135   24.2518 C   0  0  0  0  0  0  0  0  0  0  0  0
   12.1478   -1.2587   22.4222 C   0  0  0  0  0  0  0  0  0  0  0  0
    4.6610    1.7170   18.4380 C   0  0  0  0  0  0  0  0  0  0  0  0
    5.3890    1.0010   21.0690 C   0  0  0  0  0  0  0  0  0  0  0  0
    9.5890   -2.4950   23.2210 C   0  0  0  0  0  0  0  0  0  0  0  0
    8.2550   -1.0010   24.5520 C   0  0  0  0  0  0  0  0  0  0  0  0
    9.1890   -3.5540   24.0140 C   0  0  0  0  0  0  0  0  0  0  0  0
    7.8700   -2.0610   25.3550 C   0  0  0  0  0  0  0  0  0  0  0  0
    7.5840   -0.2700   18.5160 C   0  0  0  0  0  0  0  0  0  0  0  0
   11.9616   -0.1817   23.2889 C   0  0  0  0  0  0  0  0  0  0  0  0
    5.7970    0.9500   18.6730 C   0  0  0  0  0  0  0  0  0  0  0  0
    6.1460    0.6070   19.9750 C   0  0  0  0  0  0  0  0  0  0  0  0
    9.1280   -1.2090   23.4870 C   0  0  0  0  0  0  0  0  0  0  0  0
    8.3450   -3.3440   25.0980 C   0  0  0  0  0  0  0  0  0  0  0  0
    9.0430    0.2380   21.4940 C   0  0  0  0  0  0  0  0  0  0  0  0
    8.4652   -5.7552   25.6626 C   0  0  0  0  0  0  0  0  0  0  0  0
    7.1035   -4.1986   27.0666 C   0  0  0  0  0  0  0  0  0  0  0  0
   10.7220    0.6590   23.1850 C   0  0  0  0  0  0  0  0  0  0  0  0
    6.7100    0.3850   17.8100 N   0  0  0  0  0  0  0  0  0  0  0  0
    7.2710   -0.1460   19.8310 N   0  0  0  0  0  0  0  0  0  0  0  0
    8.0950   -0.7700   20.8440 N   0  0  0  0  0  0  0  0  0  0  0  0
    9.5820   -0.1080   22.7000 N   0  0  0  0  0  0  0  0  0  0  0  0
    7.9731   -4.4180   25.9279 N   0  0  0  0  0  0  0  0  0  0  0  0
    9.2950    1.3000   20.9480 O   0  0  0  0  0  0  0  0  0  0  0  0
   15.1613   -2.3527   23.5555 H   0  0  0  0  0  0  0  0  0  0  0  0
   14.8297   -0.4373   25.0971 H   0  0  0  0  0  0  0  0  0  0  0  0
   13.4443   -2.8780   21.8427 H   0  0  0  0  0  0  0  0  0  0  0  0
    2.9844    2.6927   19.3613 H   0  0  0  0  0  0  0  0  0  0  0  0
    3.6214    2.0680   21.6561 H   0  0  0  0  0  0  0  0  0  0  0  0
   12.7899    0.9506   24.9315 H   0  0  0  0  0  0  0  0  0  0  0  0
   11.4013   -1.4963   21.6690 H   0  0  0  0  0  0  0  0  0  0  0  0
    4.3780    2.0103   17.4276 H   0  0  0  0  0  0  0  0  0  0  0  0
    5.6758    0.7336   22.0897 H   0  0  0  0  0  0  0  0  0  0  0  0
   10.2682   -2.6746   22.3864 H   0  0  0  0  0  0  0  0  0  0  0  0
    7.8692   -0.0022   24.7600 H   0  0  0  0  0  0  0  0  0  0  0  0
    9.5433   -4.5619   23.7809 H   0  0  0  0  0  0  0  0  0  0  0  0
    7.1923   -1.8829   26.1908 H   0  0  0  0  0  0  0  0  0  0  0  0
    8.4213   -0.8245   18.1548 H   0  0  0  0  0  0  0  0  0  0  0  0
    8.0647   -6.4500   26.4156 H   0  0  0  0  0  0  0  0  0  0  0  0
    8.1404   -6.0733   24.6609 H   0  0  0  0  0  0  0  0  0  0  0  0
    9.5642   -5.7574   25.7096 H   0  0  0  0  0  0  0  0  0  0  0  0
    6.9301   -5.1529   27.5855 H   0  0  0  0  0  0  0  0  0  0  0  0
    7.5776   -3.4863   27.7579 H   0  0  0  0  0  0  0  0  0  0  0  0
    6.1427   -3.7896   26.7206 H   0  0  0  0  0  0  0  0  0  0  0  0
   10.4561    1.0772   24.1620 H   0  0  0  0  0  0  0  0  0  0  0  0
   10.8743    1.5008   22.5014 H   0  0  0  0  0  0  0  0  0  0  0  0
    8.0545   -1.6267   21.0593 H   0  0  0  0  0  0  0  0  0  0  0  0
  1  2  1  0  0  0  0
  1  3  2  0  0  0  0
  2  6  2  0  0  0  0
  3  7  1  0  0  0  0
  4  5  1  0  0  0  0
  4  8  2  0  0  0  0
  5  9  2  0  0  0  0
  6 15  1  0  0  0  0
  7 15  2  0  0  0  0
  8 16  1  0  0  0  0
  9 17  1  0  0  0  0
 10 12  2  0  0  0  0
 10 18  1  0  0  0  0
 11 13  1  0  0  0  0
 11 18  2  0  0  0  0
 12 19  1  0  0  0  0
 13 19  2  0  0  0  0
 14 24  2  0  0  0  0
 14 25  1  0  0  0  0
 15 23  1  0  0  0  0
 16 17  2  0  0  0  0
 16 24  1  0  0  0  0
 17 25  1  0  0  0  0
 18 27  1  0  0  0  0
 19 28  1  0  0  0  0
 20 26  1  0  0  0  0
 20 27  1  0  0  0  0
 20 29  2  0  0  0  0
 21 28  1  0  0  0  0
 22 28  1  0  0  0  0
 23 27  1  0  0  0  0
 25 26  1  0  0  0  0
  1 30  1  0  0  0  0
  2 31  1  0  0  0  0
  3 32  1  0  0  0  0
  4 33  1  0  0  0  0
  5 34  1  0  0  0  0
  6 35  1  0  0  0  0
  7 36  1  0  0  0  0
  8 37  1  0  0  0  0
  9 38  1  0  0  0  0
 10 39  1  0  0  0  0
 11 40  1  0  0  0  0
 12 41  1  0  0  0  0
 13 42  1  0  0  0  0
 14 43  1  0  0  0  0
 21 44  1  0  0  0  0
 21 45  1  0  0  0  0
 21 46  1  0  0  0  0
 22 47  1  0  0  0  0
 22 48  1  0  0  0  0
 22 49  1  0  0  0  0
 23 50  1  0  0  0  0
 23 51  1  0  0  0  0
 26 52  1  0  0  0  0
M  END
> <clash_score>
0

> <docking_score>
-9.692049026489258

> <overlap_score>
0.9344868063926697

$$$$
BENZO_28_1
  -OEChem-08222022433D

 49 52  0     0  0  0  0  0  0999 V2000
    3.8860    2.1050   19.5250 C   0  0  0  0  0  0  0  0  0  0  0  0
    4.2460    1.7520   20.8250 C   0  0  0  0  0  0  0  0  0  0  0  0
    4.6610    1.7170   18.4380 C   0  0  0  0  0  0  0  0  0  0  0  0
    5.3890    1.0010   21.0690 C   0  0  0  0  0  0  0  0  0  0  0  0
    9.5890   -2.4950   23.2210 C   0  0  0  0  0  0  0  0  0  0  0  0
    8.2550   -1.0010   24.5520 C   0  0  0  0  0  0  0  0  0  0  0  0
    9.1890   -3.5540   24.0140 C   0  0  0  0  0  0  0  0  0  0  0  0
    7.8700   -2.0610   25.3550 C   0  0  0  0  0  0  0  0  0  0  0  0
   12.6785   -0.3936   24.5018 C   0  0  0  0  0  0  0  0  0  0  0  0
   13.7775   -1.2037   24.3186 C   0  0  0  0  0  0  0  0  0  0  0  0
   12.5401   -0.8378   22.2246 C   0  0  0  0  0  0  0  0  0  0  0  0
    7.5840   -0.2700   18.5160 C   0  0  0  0  0  0  0  0  0  0  0  0
   11.9616   -0.1817   23.2889 C   0  0  0  0  0  0  0  0  0  0  0  0
    5.7970    0.9500   18.6730 C   0  0  0  0  0  0  0  0  0  0  0  0
    6.1460    0.6070   19.9750 C   0  0  0  0  0  0  0  0  0  0  0  0
    9.1280   -1.2090   23.4870 C   0  0  0  0  0  0  0  0  0  0  0  0
    8.3450   -3.3440   25.0980 C   0  0  0  0  0  0  0  0  0  0  0  0
    9.0430    0.2380   21.4940 C   0  0  0  0  0  0  0  0  0  0  0  0
    7.2639   -5.5573   25.3804 C   0  0  0  0  0  0  0  0  0  0  0  0
    8.3059   -4.4049   27.3385 C   0  0  0  0  0  0  0  0  0  0  0  0
   10.7220    0.6590   23.1850 C   0  0  0  0  0  0  0  0  0  0  0  0
    6.7100    0.3850   17.8100 N   0  0  0  0  0  0  0  0  0  0  0  0
    7.2710   -0.1460   19.8310 N   0  0  0  0  0  0  0  0  0  0  0  0
    8.0950   -0.7700   20.8440 N   0  0  0  0  0  0  0  0  0  0  0  0
    9.5820   -0.1080   22.7000 N   0  0  0  0  0  0  0  0  0  0  0  0
    7.9731   -4.4180   25.9279 N   0  0  0  0  0  0  0  0  0  0  0  0
    9.2950    1.3000   20.9480 O   0  0  0  0  0  0  0  0  0  0  0  0
   13.9416   -1.7050   22.6894 S   0  0  0  0  0  0  0  0  0  0  0  0
    2.9844    2.6927   19.3613 H   0  0  0  0  0  0  0  0  0  0  0  0
    3.6214    2.0680   21.6561 H   0  0  0  0  0  0  0  0  0  0  0  0
    4.3780    2.0103   17.4276 H   0  0  0  0  0  0  0  0  0  0  0  0
    5.6758    0.7336   22.0897 H   0  0  0  0  0  0  0  0  0  0  0  0
   10.2682   -2.6746   22.3864 H   0  0  0  0  0  0  0  0  0  0  0  0
    7.8692   -0.0022   24.7600 H   0  0  0  0  0  0  0  0  0  0  0  0
    9.5433   -4.5619   23.7809 H   0  0  0  0  0  0  0  0  0  0  0  0
    7.1923   -1.8829   26.1908 H   0  0  0  0  0  0  0  0  0  0  0  0
   12.4058    0.0253   25.4623 H   0  0  0  0  0  0  0  0  0  0  0  0
   14.4923   -1.5246   25.0631 H   0  0  0  0  0  0  0  0  0  0  0  0
   12.2108   -0.8511   21.1948 H   0  0  0  0  0  0  0  0  0  0  0  0
    8.4213   -0.8245   18.1548 H   0  0  0  0  0  0  0  0  0  0  0  0
    7.0638   -6.2846   26.1809 H   0  0  0  0  0  0  0  0  0  0  0  0
    6.3117   -5.2212   24.9441 H   0  0  0  0  0  0  0  0  0  0  0  0
    7.8778   -6.0307   24.6000 H   0  0  0  0  0  0  0  0  0  0  0  0
    7.9321   -5.3244   27.8126 H   0  0  0  0  0  0  0  0  0  0  0  0
    9.3982   -4.3494   27.4569 H   0  0  0  0  0  0  0  0  0  0  0  0
    7.8404   -3.5305   27.8169 H   0  0  0  0  0  0  0  0  0  0  0  0
   10.4561    1.0772   24.1620 H   0  0  0  0  0  0  0  0  0  0  0  0
   10.8743    1.5008   22.5014 H   0  0  0  0  0  0  0  0  0  0  0  0
    8.0545   -1.6267   21.0593 H   0  0  0  0  0  0  0  0  0  0  0  0
  1  2  1  0  0  0  0
  1  3  2  0  0  0  0
  2  4  2  0  0  0  0
  3 14  1  0  0  0  0
  4 15  1  0  0  0  0
  5  7  2  0  0  0  0
  5 16  1  0  0  0  0
  6  8  1  0  0  0  0
  6 16  2  0  0  0  0
  7 17  1  0  0  0  0
  8 17  2  0  0  0  0
  9 10  2  0  0  0  0
  9 13  1  0  0  0  0
 10 28  1  0  0  0  0
 11 13  2  0  0  0  0
 11 28  1  0  0  0  0
 12 22  2  0  0  0  0
 12 23  1  0  0  0  0
 13 21  1  0  0  0  0
 14 15  2  0  0  0  0
 14 22  1  0  0  0  0
 15 23  1  0  0  0  0
 16 25  1  0  0  0  0
 17 26  1  0  0  0  0
 18 24  1  0  0  0  0
 18 25  1  0  0  0  0
 18 27  2  0  0  0  0
 19 26  1  0  0  0  0
 20 26  1  0  0  0  0
 21 25  1  0  0  0  0
 23 24  1  0  0  0  0
  1 29  1  0  0  0  0
  2 30  1  0  0  0  0
  3 31  1  0  0  0  0
  4 32  1  0  0  0  0
  5 33  1  0  0  0  0
  6 34  1  0  0  0  0
  7 35  1  0  0  0  0
  8 36  1  0  0  0  0
  9 37  1  0  0  0  0
 10 38  1  0  0  0  0
 11 39  1  0  0  0  0
 12 40  1  0  0  0  0
 19 41  1  0  0  0  0
 19 42  1  0  0  0  0
 19 43  1  0  0  0  0
 20 44  1  0  0  0  0
 20 45  1  0  0  0  0
 20 46  1  0  0  0  0
 21 47  1  0  0  0  0
 21 48  1  0  0  0  0
 24 49  1  0  0  0  0
M  END
> <clash_score>
0

> <docking_score>
-9.264810562133789

> <overlap_score>
0.9331512451171875

$$$$
BENZO_26_1
  -OEChem-08222022433D

 56 60  0     0  0  0  0  0  0999 V2000
    3.8860    2.1050   19.5250 C   0  0  0  0  0  0  0  0  0  0  0  0
    4.2460    1.7520   20.8250 C   0  0  0  0  0  0  0  0  0  0  0  0
   13.7501   -1.1157   24.6177 C   0  0  0  0  0  0  0  0  0  0  0  0
   12.5991   -0.3339   24.5202 C   0  0  0  0  0  0  0  0  0  0  0  0
    4.6610    1.7170   18.4380 C   0  0  0  0  0  0  0  0  0  0  0  0
    5.3890    1.0010   21.0690 C   0  0  0  0  0  0  0  0  0  0  0  0
    9.1890   -3.5540   24.0140 C   0  0  0  0  0  0  0  0  0  0  0  0
    7.8700   -2.0610   25.3550 C   0  0  0  0  0  0  0  0  0  0  0  0
    9.5890   -2.4950   23.2210 C   0  0  0  0  0  0  0  0  0  0  0  0
    8.2550   -1.0010   24.5520 C   0  0  0  0  0  0  0  0  0  0  0  0
   14.2636   -1.7454   23.4838 C   0  0  0  0  0  0  0  0  0  0  0  0
   12.4750   -0.8115   22.1551 C   0  0  0  0  0  0  0  0  0  0  0  0
   11.9616   -0.1817   23.2889 C   0  0  0  0  0  0  0  0  0  0  0  0
    5.7970    0.9500   18.6730 C   0  0  0  0  0  0  0  0  0  0  0  0
    6.1460    0.6070   19.9750 C   0  0  0  0  0  0  0  0  0  0  0  0
    8.3450   -3.3440   25.0980 C   0  0  0  0  0  0  0  0  0  0  0  0
    9.1280   -1.2090   23.4870 C   0  0  0  0  0  0  0  0  0  0  0  0
   13.6260   -1.5933   22.2526 C   0  0  0  0  0  0  0  0  0  0  0  0
    9.0430    0.2380   21.4940 C   0  0  0  0  0  0  0  0  0  0  0  0
    8.9524   -5.2012   26.6600 C   0  0  0  0  0  0  0  0  0  0  0  0
    6.6112   -4.5068   26.4379 C   0  0  0  0  0  0  0  0  0  0  0  0
    8.9037   -4.7845   28.1261 C   0  0  0  0  0  0  0  0  0  0  0  0
    6.6374   -4.1243   27.9184 C   0  0  0  0  0  0  0  0  0  0  0  0
   10.7220    0.6590   23.1850 C   0  0  0  0  0  0  0  0  0  0  0  0
    6.7100    0.3850   17.8100 N   0  0  0  0  0  0  0  0  0  0  0  0
    7.5840   -0.2700   18.5160 N   0  0  0  0  0  0  0  0  0  0  0  0
    7.2710   -0.1460   19.8310 N   0  0  0  0  0  0  0  0  0  0  0  0
    7.9775   -4.4014   25.9151 N   0  0  0  0  0  0  0  0  0  0  0  0
    8.0950   -0.7700   20.8440 N   0  0  0  0  0  0  0  0  0  0  0  0
    9.5820   -0.1080   22.7000 N   0  0  0  0  0  0  0  0  0  0  0  0
    9.2950    1.3000   20.9480 O   0  0  0  0  0  0  0  0  0  0  0  0
    7.5729   -4.9391   28.6338 O   0  0  0  0  0  0  0  0  0  0  0  0
   14.2594   -2.3714   20.8543 Cl  0  0  0  0  0  0  0  0  0  0  0  0
    2.9846    2.6932   19.3610 H   0  0  0  0  0  0  0  0  0  0  0  0
    3.6235    2.0692   21.6570 H   0  0  0  0  0  0  0  0  0  0  0  0
   14.2462   -1.2340   25.5766 H   0  0  0  0  0  0  0  0  0  0  0  0
   12.2060    0.1530   25.4088 H   0  0  0  0  0  0  0  0  0  0  0  0
    4.3785    2.0113   17.4257 H   0  0  0  0  0  0  0  0  0  0  0  0
    5.6763    0.7332   22.0915 H   0  0  0  0  0  0  0  0  0  0  0  0
    9.5426   -4.5618   23.7797 H   0  0  0  0  0  0  0  0  0  0  0  0
    7.1914   -1.8824   26.1903 H   0  0  0  0  0  0  0  0  0  0  0  0
   10.2669   -2.6745   22.3854 H   0  0  0  0  0  0  0  0  0  0  0  0
    7.8690   -0.0020   24.7587 H   0  0  0  0  0  0  0  0  0  0  0  0
   15.1613   -2.3520   23.5748 H   0  0  0  0  0  0  0  0  0  0  0  0
   11.9745   -0.6893   21.1973 H   0  0  0  0  0  0  0  0  0  0  0  0
    9.9615   -5.0500   26.2711 H   0  0  0  0  0  0  0  0  0  0  0  0
    8.6935   -6.2597   26.5720 H   0  0  0  0  0  0  0  0  0  0  0  0
    6.2628   -5.5350   26.3330 H   0  0  0  0  0  0  0  0  0  0  0  0
    5.9347   -3.8423   25.9023 H   0  0  0  0  0  0  0  0  0  0  0  0
    9.5597   -5.4275   28.7166 H   0  0  0  0  0  0  0  0  0  0  0  0
    9.2344   -3.7511   28.2636 H   0  0  0  0  0  0  0  0  0  0  0  0
    6.8874   -3.0657   28.0553 H   0  0  0  0  0  0  0  0  0  0  0  0
    5.6495   -4.2893   28.3591 H   0  0  0  0  0  0  0  0  0  0  0  0
   10.4561    1.0772   24.1620 H   0  0  0  0  0  0  0  0  0  0  0  0
   10.8743    1.5008   22.5014 H   0  0  0  0  0  0  0  0  0  0  0  0
    8.0897   -1.6082   21.0890 H   0  0  0  0  0  0  0  0  0  0  0  0
  1  2  1  0  0  0  0
  1  5  2  0  0  0  0
  2  6  2  0  0  0  0
  3  4  2  0  0  0  0
  3 11  1  0  0  0  0
  4 13  1  0  0  0  0
  5 14  1  0  0  0  0
  6 15  1  0  0  0  0
  7  9  2  0  0  0  0
  7 16  1  0  0  0  0
  8 10  1  0  0  0  0
  8 16  2  0  0  0  0
  9 17  1  0  0  0  0
 10 17  2  0  0  0  0
 11 18  2  0  0  0  0
 12 13  2  0  0  0  0
 12 18  1  0  0  0  0
 13 24  1  0  0  0  0
 14 15  2  0  0  0  0
 14 25  1  0  0  0  0
 15 27  1  0  0  0  0
 16 28  1  0  0  0  0
 17 30  1  0  0  0  0
 18 33  1  0  0  0  0
 19 29  1  0  0  0  0
 19 30  1  0  0  0  0
 19 31  2  0  0  0  0
 20 22  1  0  0  0  0
 20 28  1  0  0  0  0
 21 23  1  0  0  0  0
 21 28  1  0  0  0  0
 22 32  1  0  0  0  0
 23 32  1  0  0  0  0
 24 30  1  0  0  0  0
 25 26  2  0  0  0  0
 26 27  1  0  0  0  0
 27 29  1  0  0  0  0
  1 34  1  0  0  0  0
  2 35  1  0  0  0  0
  3 36  1  0  0  0  0
  4 37  1  0  0  0  0
  5 38  1  0  0  0  0
  6 39  1  0  0  0  0
  7 40  1  0  0  0  0
  8 41  1  0  0  0  0
  9 42  1  0  0  0  0
 10 43  1  0  0  0  0
 11 44  1  0  0  0  0
 12 45  1  0  0  0  0
 20 46  1  0  0  0  0
 20 47  1  0  0  0  0
 21 48  1  0  0  0  0
 21 49  1  0  0  0  0
 22 50  1  0  0  0  0
 22 51  1  0  0  0  0
 23 52  1  0  0  0  0
 23 53  1  0  0  0  0
 24 54  1  0  0  0  0
 24 55  1  0  0  0  0
 29 56  1  0  0  0  0
M  END
> <clash_score>
0

> <docking_score>
-9.200238227844238

> <overlap_score>
1.001713752746582

$$$$
BENZO_27_1
  -OEChem-08222022433D

 56 60  0     0  0  0  0  0  0999 V2000
    3.8860    2.1050   19.5250 C   0  0  0  0  0  0  0  0  0  0  0  0
    4.2460    1.7520   20.8250 C   0  0  0  0  0  0  0  0  0  0  0  0
    4.6610    1.7170   18.4380 C   0  0  0  0  0  0  0  0  0  0  0  0
    5.3890    1.0010   21.0690 C   0  0  0  0  0  0  0  0  0  0  0  0
    9.1890   -3.5540   24.0140 C   0  0  0  0  0  0  0  0  0  0  0  0
    7.8700   -2.0610   25.3550 C   0  0  0  0  0  0  0  0  0  0  0  0
    9.5890   -2.4950   23.2210 C   0  0  0  0  0  0  0  0  0  0  0  0
    8.2550   -1.0010   24.5520 C   0  0  0  0  0  0  0  0  0  0  0  0
   12.7320   -0.4464   24.4370 C   0  0  0  0  0  0  0  0  0  0  0  0
   12.5970   -0.8682   22.2832 C   0  0  0  0  0  0  0  0  0  0  0  0
   11.9616   -0.1817   23.2889 C   0  0  0  0  0  0  0  0  0  0  0  0
    5.7970    0.9500   18.6730 C   0  0  0  0  0  0  0  0  0  0  0  0
    6.1460    0.6070   19.9750 C   0  0  0  0  0  0  0  0  0  0  0  0
    8.3450   -3.3440   25.0980 C   0  0  0  0  0  0  0  0  0  0  0  0
    9.1280   -1.2090   23.4870 C   0  0  0  0  0  0  0  0  0  0  0  0
    9.0430    0.2380   21.4940 C   0  0  0  0  0  0  0  0  0  0  0  0
    8.9524   -5.2012   26.6600 C   0  0  0  0  0  0  0  0  0  0  0  0
    6.6112   -4.5068   26.4379 C   0  0  0  0  0  0  0  0  0  0  0  0
    8.9037   -4.7845   28.1261 C   0  0  0  0  0  0  0  0  0  0  0  0
    6.6374   -4.1243   27.9184 C   0  0  0  0  0  0  0  0  0  0  0  0
   14.6393   -2.3180   22.2082 C   0  0  0  0  0  0  0  0  0  0  0  0
   10.7220    0.6590   23.1850 C   0  0  0  0  0  0  0  0  0  0  0  0
   13.7770   -1.2393   24.1852 N   0  0  0  0  0  0  0  0  0  0  0  0
    6.7100    0.3850   17.8100 N   0  0  0  0  0  0  0  0  0  0  0  0
    7.5840   -0.2700   18.5160 N   0  0  0  0  0  0  0  0  0  0  0  0
   13.6676   -1.4788   22.8673 N   0  0  0  0  0  0  0  0  0  0  0  0
    7.2710   -0.1460   19.8310 N   0  0  0  0  0  0  0  0  0  0  0  0
    7.9775   -4.4014   25.9151 N   0  0  0  0  0  0  0  0  0  0  0  0
    8.0950   -0.7700   20.8440 N   0  0  0  0  0  0  0  0  0  0  0  0
    9.5820   -0.1080   22.7000 N   0  0  0  0  0  0  0  0  0  0  0  0
    9.2950    1.3000   20.9480 O   0  0  0  0  0  0  0  0  0  0  0  0
    7.5729   -4.9391   28.6338 O   0  0  0  0  0  0  0  0  0  0  0  0
    2.9846    2.6932   19.3610 H   0  0  0  0  0  0  0  0  0  0  0  0
    3.6235    2.0692   21.6570 H   0  0  0  0  0  0  0  0  0  0  0  0
    4.3785    2.0113   17.4257 H   0  0  0  0  0  0  0  0  0  0  0  0
    5.6763    0.7332   22.0915 H   0  0  0  0  0  0  0  0  0  0  0  0
    9.5426   -4.5618   23.7797 H   0  0  0  0  0  0  0  0  0  0  0  0
    7.1914   -1.8824   26.1903 H   0  0  0  0  0  0  0  0  0  0  0  0
   10.2669   -2.6745   22.3854 H   0  0  0  0  0  0  0  0  0  0  0  0
    7.8690   -0.0020   24.7587 H   0  0  0  0  0  0  0  0  0  0  0  0
   12.5771   -0.0965   25.4478 H   0  0  0  0  0  0  0  0  0  0  0  0
   12.3832   -0.9726   21.2281 H   0  0  0  0  0  0  0  0  0  0  0  0
    9.9615   -5.0500   26.2711 H   0  0  0  0  0  0  0  0  0  0  0  0
    8.6935   -6.2597   26.5720 H   0  0  0  0  0  0  0  0  0  0  0  0
    6.2628   -5.5350   26.3330 H   0  0  0  0  0  0  0  0  0  0  0  0
    5.9347   -3.8423   25.9023 H   0  0  0  0  0  0  0  0  0  0  0  0
    9.5597   -5.4275   28.7166 H   0  0  0  0  0  0  0  0  0  0  0  0
    9.2344   -3.7511   28.2636 H   0  0  0  0  0  0  0  0  0  0  0  0
    6.8874   -3.0657   28.0553 H   0  0  0  0  0  0  0  0  0  0  0  0
    5.6495   -4.2893   28.3591 H   0  0  0  0  0  0  0  0  0  0  0  0
   15.4522   -1.6787   21.8540 H   0  0  0  0  0  0  0  0  0  0  0  0
   15.0179   -3.0612   22.9154 H   0  0  0  0  0  0  0  0  0  0  0  0
   14.1626   -2.8324   21.3691 H   0  0  0  0  0  0  0  0  0  0  0  0
   10.4561    1.0772   24.1620 H   0  0  0  0  0  0  0  0  0  0  0  0
   10.8743    1.5008   22.5014 H   0  0  0  0  0  0  0  0  0  0  0  0
    8.0897   -1.6082   21.0890 H   0  0  0  0  0  0  0  0  0  0  0  0
  1  2  1  0  0  0  0
  1  3  2  0  0  0  0
  2  4  2  0  0  0  0
  3 12  1  0  0  0  0
  4 13  1  0  0  0  0
  5  7  2  0  0  0  0
  5 14  1  0  0  0  0
  6  8  1  0  0  0  0
  6 14  2  0  0  0  0
  7 15  1  0  0  0  0
  8 15  2  0  0  0  0
  9 11  1  0  0  0  0
  9 23  2  0  0  0  0
 10 11  2  0  0  0  0
 10 26  1  0  0  0  0
 11 22  1  0  0  0  0
 12 13  2  0  0  0  0
 12 24  1  0  0  0  0
 13 27  1  0  0  0  0
 14 28  1  0  0  0  0
 15 30  1  0  0  0  0
 16 29  1  0  0  0  0
 16 30  1  0  0  0  0
 16 31  2  0  0  0  0
 17 19  1  0  0  0  0
 17 28  1  0  0  0  0
 18 20  1  0  0  0  0
 18 28  1  0  0  0  0
 19 32  1  0  0  0  0
 20 32  1  0  0  0  0
 21 26  1  0  0  0  0
 22 30  1  0  0  0  0
 23 26  1  0  0  0  0
 24 25  2  0  0  0  0
 25 27  1  0  0  0  0
 27 29  1  0  0  0  0
  1 33  1  0  0  0  0
  2 34  1  0  0  0  0
  3 35  1  0  0  0  0
  4 36  1  0  0  0  0
  5 37  1  0  0  0  0
  6 38  1  0  0  0  0
  7 39  1  0  0  0  0
  8 40  1  0  0  0  0
  9 41  1  0  0  0  0
 10 42  1  0  0  0  0
 17 43  1  0  0  0  0
 17 44  1  0  0  0  0
 18 45  1  0  0  0  0
 18 46  1  0  0  0  0
 19 47  1  0  0  0  0
 19 48  1  0  0  0  0
 20 49  1  0  0  0  0
 20 50  1  0  0  0  0
 21 51  1  0  0  0  0
 21 52  1  0  0  0  0
 21 53  1  0  0  0  0
 22 54  1  0  0  0  0
 22 55  1  0  0  0  0
 29 56  1  0  0  0  0
M  END
> <clash_score>
0

> <docking_score>
-8.436264991760254

> <overlap_score>
0.9972016215324402

$$$$
BENZO_31_1
  -OEChem-08222022433D

 52 55  0     0  0  0  0  0  0999 V2000
    3.8860    2.1050   19.5250 C   0  0  0  0  0  0  0  0  0  0  0  0
    4.2460    1.7520   20.8250 C   0  0  0  0  0  0  0  0  0  0  0  0
    4.6610    1.7170   18.4380 C   0  0  0  0  0  0  0  0  0  0  0  0
    5.3890    1.0010   21.0690 C   0  0  0  0  0  0  0  0  0  0  0  0
    9.5890   -2.4950   23.2210 C   0  0  0  0  0  0  0  0  0  0  0  0
    8.2550   -1.0010   24.5520 C   0  0  0  0  0  0  0  0  0  0  0  0
    9.1890   -3.5540   24.0140 C   0  0  0  0  0  0  0  0  0  0  0  0
    7.8700   -2.0610   25.3550 C   0  0  0  0  0  0  0  0  0  0  0  0
   12.7320   -0.4464   24.4370 C   0  0  0  0  0  0  0  0  0  0  0  0
   12.5970   -0.8682   22.2832 C   0  0  0  0  0  0  0  0  0  0  0  0
    7.5840   -0.2700   18.5160 C   0  0  0  0  0  0  0  0  0  0  0  0
   11.9616   -0.1817   23.2889 C   0  0  0  0  0  0  0  0  0  0  0  0
    5.7970    0.9500   18.6730 C   0  0  0  0  0  0  0  0  0  0  0  0
    6.1460    0.6070   19.9750 C   0  0  0  0  0  0  0  0  0  0  0  0
    9.1280   -1.2090   23.4870 C   0  0  0  0  0  0  0  0  0  0  0  0
    8.3450   -3.3440   25.0980 C   0  0  0  0  0  0  0  0  0  0  0  0
    9.0430    0.2380   21.4940 C   0  0  0  0  0  0  0  0  0  0  0  0
   14.6393   -2.3180   22.2082 C   0  0  0  0  0  0  0  0  0  0  0  0
    7.2639   -5.5573   25.3804 C   0  0  0  0  0  0  0  0  0  0  0  0
    8.3059   -4.4049   27.3385 C   0  0  0  0  0  0  0  0  0  0  0  0
   10.7220    0.6590   23.1850 C   0  0  0  0  0  0  0  0  0  0  0  0
   13.7770   -1.2393   24.1852 N   0  0  0  0  0  0  0  0  0  0  0  0
    6.7100    0.3850   17.8100 N   0  0  0  0  0  0  0  0  0  0  0  0
   13.6676   -1.4788   22.8673 N   0  0  0  0  0  0  0  0  0  0  0  0
    7.2710   -0.1460   19.8310 N   0  0  0  0  0  0  0  0  0  0  0  0
    8.0950   -0.7700   20.8440 N   0  0  0  0  0  0  0  0  0  0  0  0
    9.5820   -0.1080   22.7000 N   0  0  0  0  0  0  0  0  0  0  0  0
    7.9731   -4.4180   25.9279 N   0  0  0  0  0  0  0  0  0  0  0  0
    9.2950    1.3000   20.9480 O   0  0  0  0  0  0  0  0  0  0  0  0
    2.9844    2.6927   19.3613 H   0  0  0  0  0  0  0  0  0  0  0  0
    3.6214    2.0680   21.6561 H   0  0  0  0  0  0  0  0  0  0  0  0
    4.3780    2.0103   17.4276 H   0  0  0  0  0  0  0  0  0  0  0  0
    5.6758    0.7336   22.0897 H   0  0  0  0  0  0  0  0  0  0  0  0
   10.2682   -2.6746   22.3864 H   0  0  0  0  0  0  0  0  0  0  0  0
    7.8692   -0.0022   24.7600 H   0  0  0  0  0  0  0  0  0  0  0  0
    9.5433   -4.5619   23.7809 H   0  0  0  0  0  0  0  0  0  0  0  0
    7.1923   -1.8829   26.1908 H   0  0  0  0  0  0  0  0  0  0  0  0
   12.5771   -0.0965   25.4478 H   0  0  0  0  0  0  0  0  0  0  0  0
   12.3832   -0.9726   21.2281 H   0  0  0  0  0  0  0  0  0  0  0  0
    8.4213   -0.8245   18.1548 H   0  0  0  0  0  0  0  0  0  0  0  0
   15.4522   -1.6787   21.8540 H   0  0  0  0  0  0  0  0  0  0  0  0
   15.0179   -3.0612   22.9154 H   0  0  0  0  0  0  0  0  0  0  0  0
   14.1626   -2.8324   21.3691 H   0  0  0  0  0  0  0  0  0  0  0  0
    7.0638   -6.2846   26.1809 H   0  0  0  0  0  0  0  0  0  0  0  0
    6.3117   -5.2212   24.9441 H   0  0  0  0  0  0  0  0  0  0  0  0
    7.8778   -6.0307   24.6000 H   0  0  0  0  0  0  0  0  0  0  0  0
    7.9321   -5.3244   27.8126 H   0  0  0  0  0  0  0  0  0  0  0  0
    9.3982   -4.3494   27.4569 H   0  0  0  0  0  0  0  0  0  0  0  0
    7.8404   -3.5305   27.8169 H   0  0  0  0  0  0  0  0  0  0  0  0
   10.4561    1.0772   24.1620 H   0  0  0  0  0  0  0  0  0  0  0  0
   10.8743    1.5008   22.5014 H   0  0  0  0  0  0  0  0  0  0  0  0
    8.0545   -1.6267   21.0593 H   0  0  0  0  0  0  0  0  0  0  0  0
  1  2  1  0  0  0  0
  1  3  2  0  0  0  0
  2  4  2  0  0  0  0
  3 13  1  0  0  0  0
  4 14  1  0  0  0  0
  5  7  2  0  0  0  0
  5 15  1  0  0  0  0
  6  8  1  0  0  0  0
  6 15  2  0  0  0  0
  7 16  1  0  0  0  0
  8 16  2  0  0  0  0
  9 12  1  0  0  0  0
  9 22  2  0  0  0  0
 10 12  2  0  0  0  0
 10 24  1  0  0  0  0
 11 23  2  0  0  0  0
 11 25  1  0  0  0  0
 12 21  1  0  0  0  0
 13 14  2  0  0  0  0
 13 23  1  0  0  0  0
 14 25  1  0  0  0  0
 15 27  1  0  0  0  0
 16 28  1  0  0  0  0
 17 26  1  0  0  0  0
 17 27  1  0  0  0  0
 17 29  2  0  0  0  0
 18 24  1  0  0  0  0
 19 28  1  0  0  0  0
 20 28  1  0  0  0  0
 21 27  1  0  0  0  0
 22 24  1  0  0  0  0
 25 26  1  0  0  0  0
  1 30  1  0  0  0  0
  2 31  1  0  0  0  0
  3 32  1  0  0  0  0
  4 33  1  0  0  0  0
  5 34  1  0  0  0  0
  6 35  1  0  0  0  0
  7 36  1  0  0  0  0
  8 37  1  0  0  0  0
  9 38  1  0  0  0  0
 10 39  1  0  0  0  0
 11 40  1  0  0  0  0
 18 41  1  0  0  0  0
 18 42  1  0  0  0  0
 18 43  1  0  0  0  0
 19 44  1  0  0  0  0
 19 45  1  0  0  0  0
 19 46  1  0  0  0  0
 20 47  1  0  0  0  0
 20 48  1  0  0  0  0
 20 49  1  0  0  0  0
 21 50  1  0  0  0  0
 21 51  1  0  0  0  0
 26 52  1  0  0  0  0
M  END
> <clash_score>
0

> <docking_score>
-8.014028549194336

> <overlap_score>
0.9499810338020325

$$$$
BENZO_30_1
  -OEChem-08222022433D

 52 55  0     0  0  0  0  0  0999 V2000
    3.8860    2.1050   19.5250 C   0  0  0  0  0  0  0  0  0  0  0  0
    4.2460    1.7520   20.8250 C   0  0  0  0  0  0  0  0  0  0  0  0
   13.7501   -1.1157   24.6176 C   0  0  0  0  0  0  0  0  0  0  0  0
   12.5991   -0.3339   24.5202 C   0  0  0  0  0  0  0  0  0  0  0  0
    4.6610    1.7170   18.4380 C   0  0  0  0  0  0  0  0  0  0  0  0
    5.3890    1.0010   21.0690 C   0  0  0  0  0  0  0  0  0  0  0  0
    9.5890   -2.4950   23.2210 C   0  0  0  0  0  0  0  0  0  0  0  0
    8.2550   -1.0010   24.5520 C   0  0  0  0  0  0  0  0  0  0  0  0
    9.1890   -3.5540   24.0140 C   0  0  0  0  0  0  0  0  0  0  0  0
    7.8700   -2.0610   25.3550 C   0  0  0  0  0  0  0  0  0  0  0  0
   14.2636   -1.7454   23.4838 C   0  0  0  0  0  0  0  0  0  0  0  0
   12.4750   -0.8115   22.1551 C   0  0  0  0  0  0  0  0  0  0  0  0
    7.5840   -0.2700   18.5160 C   0  0  0  0  0  0  0  0  0  0  0  0
   11.9616   -0.1817   23.2889 C   0  0  0  0  0  0  0  0  0  0  0  0
    5.7970    0.9500   18.6730 C   0  0  0  0  0  0  0  0  0  0  0  0
    6.1460    0.6070   19.9750 C   0  0  0  0  0  0  0  0  0  0  0  0
    9.1280   -1.2090   23.4870 C   0  0  0  0  0  0  0  0  0  0  0  0
    8.3450   -3.3440   25.0980 C   0  0  0  0  0  0  0  0  0  0  0  0
   13.6261   -1.5933   22.2526 C   0  0  0  0  0  0  0  0  0  0  0  0
    9.0430    0.2380   21.4940 C   0  0  0  0  0  0  0  0  0  0  0  0
    7.2639   -5.5573   25.3804 C   0  0  0  0  0  0  0  0  0  0  0  0
    8.3059   -4.4049   27.3385 C   0  0  0  0  0  0  0  0  0  0  0  0
   10.7220    0.6590   23.1850 C   0  0  0  0  0  0  0  0  0  0  0  0
    6.7100    0.3850   17.8100 N   0  0  0  0  0  0  0  0  0  0  0  0
    7.2710   -0.1460   19.8310 N   0  0  0  0  0  0  0  0  0  0  0  0
    8.0950   -0.7700   20.8440 N   0  0  0  0  0  0  0  0  0  0  0  0
    9.5820   -0.1080   22.7000 N   0  0  0  0  0  0  0  0  0  0  0  0
    7.9731   -4.4180   25.9279 N   0  0  0  0  0  0  0  0  0  0  0  0
    9.2950    1.3000   20.9480 O   0  0  0  0  0  0  0  0  0  0  0  0
   14.2594   -2.3714   20.8543 Cl  0  0  0  0  0  0  0  0  0  0  0  0
    2.9844    2.6927   19.3613 H   0  0  0  0  0  0  0  0  0  0  0  0
    3.6214    2.0680   21.6561 H   0  0  0  0  0  0  0  0  0  0  0  0
   14.2462   -1.2340   25.5766 H   0  0  0  0  0  0  0  0  0  0  0  0
   12.2060    0.1530   25.4088 H   0  0  0  0  0  0  0  0  0  0  0  0
    4.3780    2.0103   17.4276 H   0  0  0  0  0  0  0  0  0  0  0  0
    5.6758    0.7336   22.0897 H   0  0  0  0  0  0  0  0  0  0  0  0
   10.2682   -2.6746   22.3864 H   0  0  0  0  0  0  0  0  0  0  0  0
    7.8692   -0.0022   24.7600 H   0  0  0  0  0  0  0  0  0  0  0  0
    9.5433   -4.5619   23.7809 H   0  0  0  0  0  0  0  0  0  0  0  0
    7.1923   -1.8829   26.1908 H   0  0  0  0  0  0  0  0  0  0  0  0
   15.1613   -2.3520   23.5747 H   0  0  0  0  0  0  0  0  0  0  0  0
   11.9745   -0.6893   21.1973 H   0  0  0  0  0  0  0  0  0  0  0  0
    8.4213   -0.8245   18.1548 H   0  0  0  0  0  0  0  0  0  0  0  0
    7.0638   -6.2846   26.1809 H   0  0  0  0  0  0  0  0  0  0  0  0
    6.3117   -5.2212   24.9441 H   0  0  0  0  0  0  0  0  0  0  0  0
    7.8778   -6.0307   24.6000 H   0  0  0  0  0  0  0  0  0  0  0  0
    7.9321   -5.3244   27.8126 H   0  0  0  0  0  0  0  0  0  0  0  0
    9.3982   -4.3494   27.4569 H   0  0  0  0  0  0  0  0  0  0  0  0
    7.8404   -3.5305   27.8169 H   0  0  0  0  0  0  0  0  0  0  0  0
   10.4561    1.0772   24.1620 H   0  0  0  0  0  0  0  0  0  0  0  0
   10.8743    1.5008   22.5014 H   0  0  0  0  0  0  0  0  0  0  0  0
    8.0545   -1.6267   21.0593 H   0  0  0  0  0  0  0  0  0  0  0  0
  1  2  1  0  0  0  0
  1  5  2  0  0  0  0
  2  6  2  0  0  0  0
  3  4  2  0  0  0  0
  3 11  1  0  0  0  0
  4 14  1  0  0  0  0
  5 15  1  0  0  0  0
  6 16  1  0  0  0  0
  7  9  2  0  0  0  0
  7 17  1  0  0  0  0
  8 10  1  0  0  0  0
  8 17  2  0  0  0  0
  9 18  1  0  0  0  0
 10 18  2  0  0  0  0
 11 19  2  0  0  0  0
 12 14  2  0  0  0  0
 12 19  1  0  0  0  0
 13 24  2  0  0  0  0
 13 25  1  0  0  0  0
 14 23  1  0  0  0  0
 15 16  2  0  0  0  0
 15 24  1  0  0  0  0
 16 25  1  0  0  0  0
 17 27  1  0  0  0  0
 18 28  1  0  0  0  0
 19 30  1  0  0  0  0
 20 26  1  0  0  0  0
 20 27  1  0  0  0  0
 20 29  2  0  0  0  0
 21 28  1  0  0  0  0
 22 28  1  0  0  0  0
 23 27  1  0  0  0  0
 25 26  1  0  0  0  0
  1 31  1  0  0  0  0
  2 32  1  0  0  0  0
  3 33  1  0  0  0  0
  4 34  1  0  0  0  0
  5 35  1  0  0  0  0
  6 36  1  0  0  0  0
  7 37  1  0  0  0  0
  8 38  1  0  0  0  0
  9 39  1  0  0  0  0
 10 40  1  0  0  0  0
 11 41  1  0  0  0  0
 12 42  1  0  0  0  0
 13 43  1  0  0  0  0
 21 44  1  0  0  0  0
 21 45  1  0  0  0  0
 21 46  1  0  0  0  0
 22 47  1  0  0  0  0
 22 48  1  0  0  0  0
 22 49  1  0  0  0  0
 23 50  1  0  0  0  0
 23 51  1  0  0  0  0
 26 52  1  0  0  0  0
M  END
> <clash_score>
0

> <docking_score>
-8.778002738952637

> <overlap_score>
0.9545649886131287

$$$$
BENZO_33_1
  -OEChem-08222022433D

 54 57  0     0  0  0  0  0  0999 V2000
   14.2641   -1.7450   23.4813 C   0  0  0  0  0  0  0  0  0  0  0  0
   14.0779   -0.6681   24.3480 C   0  0  0  0  0  0  0  0  0  0  0  0
   13.2991   -2.0403   22.5184 C   0  0  0  0  0  0  0  0  0  0  0  0
    3.8860    2.1050   19.5250 C   0  0  0  0  0  0  0  0  0  0  0  0
    4.2460    1.7520   20.8250 C   0  0  0  0  0  0  0  0  0  0  0  0
   12.9266    0.1135   24.2518 C   0  0  0  0  0  0  0  0  0  0  0  0
   12.1478   -1.2587   22.4222 C   0  0  0  0  0  0  0  0  0  0  0  0
    4.6610    1.7170   18.4380 C   0  0  0  0  0  0  0  0  0  0  0  0
    5.3890    1.0010   21.0690 C   0  0  0  0  0  0  0  0  0  0  0  0
    9.1890   -3.5540   24.0140 C   0  0  0  0  0  0  0  0  0  0  0  0
    7.8700   -2.0610   25.3550 C   0  0  0  0  0  0  0  0  0  0  0  0
    9.5890   -2.4950   23.2210 C   0  0  0  0  0  0  0  0  0  0  0  0
    8.2550   -1.0010   24.5520 C   0  0  0  0  0  0  0  0  0  0  0  0
    7.5840   -0.2700   18.5160 C   0  0  0  0  0  0  0  0  0  0  0  0
   11.9616   -0.1817   23.2889 C   0  0  0  0  0  0  0  0  0  0  0  0
    5.7970    0.9500   18.6730 C   0  0  0  0  0  0  0  0  0  0  0  0
    6.1460    0.6070   19.9750 C   0  0  0  0  0  0  0  0  0  0  0  0
    8.3450   -3.3440   25.0980 C   0  0  0  0  0  0  0  0  0  0  0  0
    9.1280   -1.2090   23.4870 C   0  0  0  0  0  0  0  0  0  0  0  0
    7.1412   -4.3811   27.0478 C   0  0  0  0  0  0  0  0  0  0  0  0
    9.0430    0.2380   21.4940 C   0  0  0  0  0  0  0  0  0  0  0  0
    8.0772   -6.0678   28.6864 C   0  0  0  0  0  0  0  0  0  0  0  0
   10.7220    0.6590   23.1850 C   0  0  0  0  0  0  0  0  0  0  0  0
    7.0009   -5.7676   27.6585 C   0  0  0  0  0  0  0  0  0  0  0  0
    6.7100    0.3850   17.8100 N   0  0  0  0  0  0  0  0  0  0  0  0
    7.2710   -0.1460   19.8310 N   0  0  0  0  0  0  0  0  0  0  0  0
    7.9771   -4.4058   25.9196 N   0  0  0  0  0  0  0  0  0  0  0  0
    8.0950   -0.7700   20.8440 N   0  0  0  0  0  0  0  0  0  0  0  0
    9.5820   -0.1080   22.7000 N   0  0  0  0  0  0  0  0  0  0  0  0
    6.5742   -3.4016   27.5206 O   0  0  0  0  0  0  0  0  0  0  0  0
    9.2950    1.3000   20.9480 O   0  0  0  0  0  0  0  0  0  0  0  0
   15.1613   -2.3527   23.5555 H   0  0  0  0  0  0  0  0  0  0  0  0
   14.8297   -0.4373   25.0971 H   0  0  0  0  0  0  0  0  0  0  0  0
   13.4443   -2.8780   21.8427 H   0  0  0  0  0  0  0  0  0  0  0  0
    2.9844    2.6927   19.3613 H   0  0  0  0  0  0  0  0  0  0  0  0
    3.6214    2.0680   21.6561 H   0  0  0  0  0  0  0  0  0  0  0  0
   12.7899    0.9506   24.9315 H   0  0  0  0  0  0  0  0  0  0  0  0
   11.4013   -1.4963   21.6690 H   0  0  0  0  0  0  0  0  0  0  0  0
    4.3780    2.0103   17.4276 H   0  0  0  0  0  0  0  0  0  0  0  0
    5.6758    0.7336   22.0897 H   0  0  0  0  0  0  0  0  0  0  0  0
    9.5436   -4.5614   23.7799 H   0  0  0  0  0  0  0  0  0  0  0  0
    7.1918   -1.8823   26.1906 H   0  0  0  0  0  0  0  0  0  0  0  0
   10.2676   -2.6754   22.3861 H   0  0  0  0  0  0  0  0  0  0  0  0
    7.8686   -0.0026   24.7598 H   0  0  0  0  0  0  0  0  0  0  0  0
    8.4213   -0.8245   18.1548 H   0  0  0  0  0  0  0  0  0  0  0  0
    9.0755   -6.0012   28.2414 H   0  0  0  0  0  0  0  0  0  0  0  0
    7.9488   -7.0773   29.0888 H   0  0  0  0  0  0  0  0  0  0  0  0
    8.0333   -5.3591   29.5199 H   0  0  0  0  0  0  0  0  0  0  0  0
   10.4561    1.0772   24.1620 H   0  0  0  0  0  0  0  0  0  0  0  0
   10.8743    1.5008   22.5014 H   0  0  0  0  0  0  0  0  0  0  0  0
    6.0144   -5.8412   28.1304 H   0  0  0  0  0  0  0  0  0  0  0  0
    7.0482   -6.5089   26.8525 H   0  0  0  0  0  0  0  0  0  0  0  0
    8.3619   -5.3256   25.6749 H   0  0  0  0  0  0  0  0  0  0  0  0
    8.0545   -1.6267   21.0593 H   0  0  0  0  0  0  0  0  0  0  0  0
  1  2  1  0  0  0  0
  1  3  2  0  0  0  0
  2  6  2  0  0  0  0
  3  7  1  0  0  0  0
  4  5  1  0  0  0  0
  4  8  2  0  0  0  0
  5  9  2  0  0  0  0
  6 15  1  0  0  0  0
  7 15  2  0  0  0  0
  8 16  1  0  0  0  0
  9 17  1  0  0  0  0
 10 12  2  0  0  0  0
 10 18  1  0  0  0  0
 11 13  1  0  0  0  0
 11 18  2  0  0  0  0
 12 19  1  0  0  0  0
 13 19  2  0  0  0  0
 14 25  2  0  0  0  0
 14 26  1  0  0  0  0
 15 23  1  0  0  0  0
 16 17  2  0  0  0  0
 16 25  1  0  0  0  0
 17 26  1  0  0  0  0
 18 27  1  0  0  0  0
 19 29  1  0  0  0  0
 20 24  1  0  0  0  0
 20 27  1  0  0  0  0
 20 30  2  0  0  0  0
 21 28  1  0  0  0  0
 21 29  1  0  0  0  0
 21 31  2  0  0  0  0
 22 24  1  0  0  0  0
 23 29  1  0  0  0  0
 26 28  1  0  0  0  0
  1 32  1  0  0  0  0
  2 33  1  0  0  0  0
  3 34  1  0  0  0  0
  4 35  1  0  0  0  0
  5 36  1  0  0  0  0
  6 37  1  0  0  0  0
  7 38  1  0  0  0  0
  8 39  1  0  0  0  0
  9 40  1  0  0  0  0
 10 41  1  0  0  0  0
 11 42  1  0  0  0  0
 12 43  1  0  0  0  0
 13 44  1  0  0  0  0
 14 45  1  0  0  0  0
 22 46  1  0  0  0  0
 22 47  1  0  0  0  0
 22 48  1  0  0  0  0
 23 49  1  0  0  0  0
 23 50  1  0  0  0  0
 24 51  1  0  0  0  0
 24 52  1  0  0  0  0
 27 53  1  0  0  0  0
 28 54  1  0  0  0  0
M  END
> <clash_score>
0

> <docking_score>
-9.253623962402344

> <overlap_score>
0.9713069200515747

$$$$
BENZO_32_1
  -OEChem-08222022433D

 51 54  0     0  0  0  0  0  0999 V2000
    3.8860    2.1050   19.5250 C   0  0  0  0  0  0  0  0  0  0  0  0
    4.2460    1.7520   20.8250 C   0  0  0  0  0  0  0  0  0  0  0  0
    4.6610    1.7170   18.4380 C   0  0  0  0  0  0  0  0  0  0  0  0
    5.3890    1.0010   21.0690 C   0  0  0  0  0  0  0  0  0  0  0  0
    9.1890   -3.5540   24.0140 C   0  0  0  0  0  0  0  0  0  0  0  0
    7.8700   -2.0610   25.3550 C   0  0  0  0  0  0  0  0  0  0  0  0
    9.5890   -2.4950   23.2210 C   0  0  0  0  0  0  0  0  0  0  0  0
    8.2550   -1.0010   24.5520 C   0  0  0  0  0  0  0  0  0  0  0  0
   12.6785   -0.3936   24.5018 C   0  0  0  0  0  0  0  0  0  0  0  0
   13.7775   -1.2037   24.3186 C   0  0  0  0  0  0  0  0  0  0  0  0
   12.5401   -0.8378   22.2246 C   0  0  0  0  0  0  0  0  0  0  0  0
    7.5840   -0.2700   18.5160 C   0  0  0  0  0  0  0  0  0  0  0  0
   11.9616   -0.1817   23.2889 C   0  0  0  0  0  0  0  0  0  0  0  0
    5.7970    0.9500   18.6730 C   0  0  0  0  0  0  0  0  0  0  0  0
    6.1460    0.6070   19.9750 C   0  0  0  0  0  0  0  0  0  0  0  0
    8.3450   -3.3440   25.0980 C   0  0  0  0  0  0  0  0  0  0  0  0
    9.1280   -1.2090   23.4870 C   0  0  0  0  0  0  0  0  0  0  0  0
    8.2023   -4.5554   27.2977 C   0  0  0  0  0  0  0  0  0  0  0  0
    9.0430    0.2380   21.4940 C   0  0  0  0  0  0  0  0  0  0  0  0
    7.8889   -6.0857   29.2891 C   0  0  0  0  0  0  0  0  0  0  0  0
   10.7220    0.6590   23.1850 C   0  0  0  0  0  0  0  0  0  0  0  0
    7.6346   -5.8716   27.8078 C   0  0  0  0  0  0  0  0  0  0  0  0
    6.7100    0.3850   17.8100 N   0  0  0  0  0  0  0  0  0  0  0  0
    7.2710   -0.1460   19.8310 N   0  0  0  0  0  0  0  0  0  0  0  0
    7.9771   -4.4058   25.9196 N   0  0  0  0  0  0  0  0  0  0  0  0
    8.0950   -0.7700   20.8440 N   0  0  0  0  0  0  0  0  0  0  0  0
    9.5820   -0.1080   22.7000 N   0  0  0  0  0  0  0  0  0  0  0  0
    8.7738   -3.7627   28.0389 O   0  0  0  0  0  0  0  0  0  0  0  0
    9.2950    1.3000   20.9480 O   0  0  0  0  0  0  0  0  0  0  0  0
   13.9416   -1.7050   22.6894 S   0  0  0  0  0  0  0  0  0  0  0  0
    2.9844    2.6927   19.3613 H   0  0  0  0  0  0  0  0  0  0  0  0
    3.6214    2.0680   21.6561 H   0  0  0  0  0  0  0  0  0  0  0  0
    4.3780    2.0103   17.4276 H   0  0  0  0  0  0  0  0  0  0  0  0
    5.6758    0.7336   22.0897 H   0  0  0  0  0  0  0  0  0  0  0  0
    9.5436   -4.5614   23.7799 H   0  0  0  0  0  0  0  0  0  0  0  0
    7.1918   -1.8823   26.1906 H   0  0  0  0  0  0  0  0  0  0  0  0
   10.2676   -2.6754   22.3861 H   0  0  0  0  0  0  0  0  0  0  0  0
    7.8686   -0.0026   24.7598 H   0  0  0  0  0  0  0  0  0  0  0  0
   12.4058    0.0253   25.4623 H   0  0  0  0  0  0  0  0  0  0  0  0
   14.4923   -1.5246   25.0631 H   0  0  0  0  0  0  0  0  0  0  0  0
   12.2108   -0.8511   21.1948 H   0  0  0  0  0  0  0  0  0  0  0  0
    8.4213   -0.8245   18.1548 H   0  0  0  0  0  0  0  0  0  0  0  0
    8.9616   -6.0802   29.5088 H   0  0  0  0  0  0  0  0  0  0  0  0
    7.4788   -7.0478   29.6110 H   0  0  0  0  0  0  0  0  0  0  0  0
    7.4199   -5.2969   29.8865 H   0  0  0  0  0  0  0  0  0  0  0  0
   10.4561    1.0772   24.1620 H   0  0  0  0  0  0  0  0  0  0  0  0
   10.8743    1.5008   22.5014 H   0  0  0  0  0  0  0  0  0  0  0  0
    6.5553   -5.8817   27.6171 H   0  0  0  0  0  0  0  0  0  0  0  0
    8.0880   -6.6902   27.2370 H   0  0  0  0  0  0  0  0  0  0  0  0
    7.4775   -5.1801   25.4670 H   0  0  0  0  0  0  0  0  0  0  0  0
    8.0545   -1.6267   21.0593 H   0  0  0  0  0  0  0  0  0  0  0  0
  1  2  1  0  0  0  0
  1  3  2  0  0  0  0
  2  4  2  0  0  0  0
  3 14  1  0  0  0  0
  4 15  1  0  0  0  0
  5  7  2  0  0  0  0
  5 16  1  0  0  0  0
  6  8  1  0  0  0  0
  6 16  2  0  0  0  0
  7 17  1  0  0  0  0
  8 17  2  0  0  0  0
  9 10  2  0  0  0  0
  9 13  1  0  0  0  0
 10 30  1  0  0  0  0
 11 13  2  0  0  0  0
 11 30  1  0  0  0  0
 12 23  2  0  0  0  0
 12 24  1  0  0  0  0
 13 21  1  0  0  0  0
 14 15  2  0  0  0  0
 14 23  1  0  0  0  0
 15 24  1  0  0  0  0
 16 25  1  0  0  0  0
 17 27  1  0  0  0  0
 18 22  1  0  0  0  0
 18 25  1  0  0  0  0
 18 28  2  0  0  0  0
 19 26  1  0  0  0  0
 19 27  1  0  0  0  0
 19 29  2  0  0  0  0
 20 22  1  0  0  0  0
 21 27  1  0  0  0  0
 24 26  1  0  0  0  0
  1 31  1  0  0  0  0
  2 32  1  0  0  0  0
  3 33  1  0  0  0  0
  4 34  1  0  0  0  0
  5 35  1  0  0  0  0
  6 36  1  0  0  0  0
  7 37  1  0  0  0  0
  8 38  1  0  0  0  0
  9 39  1  0  0  0  0
 10 40  1  0  0  0  0
 11 41  1  0  0  0  0
 12 42  1  0  0  0  0
 20 43  1  0  0  0  0
 20 44  1  0  0  0  0
 20 45  1  0  0  0  0
 21 46  1  0  0  0  0
 21 47  1  0  0  0  0
 22 48  1  0  0  0  0
 22 49  1  0  0  0  0
 25 50  1  0  0  0  0
 26 51  1  0  0  0  0
M  END
> <clash_score>
0

> <docking_score>
-9.54018783569336

> <overlap_score>
0.9895352125167847

$$$$
BENZO_35_1
  -OEChem-08222022433D

 54 57  0     0  0  0  0  0  0999 V2000
    3.8860    2.1050   19.5250 C   0  0  0  0  0  0  0  0  0  0  0  0
    4.2460    1.7520   20.8250 C   0  0  0  0  0  0  0  0  0  0  0  0
    4.6610    1.7170   18.4380 C   0  0  0  0  0  0  0  0  0  0  0  0
    5.3890    1.0010   21.0690 C   0  0  0  0  0  0  0  0  0  0  0  0
    9.1890   -3.5540   24.0140 C   0  0  0  0  0  0  0  0  0  0  0  0
    7.8700   -2.0610   25.3550 C   0  0  0  0  0  0  0  0  0  0  0  0
    9.5890   -2.4950   23.2210 C   0  0  0  0  0  0  0  0  0  0  0  0
    8.2550   -1.0010   24.5520 C   0  0  0  0  0  0  0  0  0  0  0  0
   12.7320   -0.4464   24.4370 C   0  0  0  0  0  0  0  0  0  0  0  0
   12.5970   -0.8682   22.2832 C   0  0  0  0  0  0  0  0  0  0  0  0
    7.5840   -0.2700   18.5160 C   0  0  0  0  0  0  0  0  0  0  0  0
   11.9616   -0.1817   23.2889 C   0  0  0  0  0  0  0  0  0  0  0  0
    5.7970    0.9500   18.6730 C   0  0  0  0  0  0  0  0  0  0  0  0
    6.1460    0.6070   19.9750 C   0  0  0  0  0  0  0  0  0  0  0  0
    8.3450   -3.3440   25.0980 C   0  0  0  0  0  0  0  0  0  0  0  0
    9.1280   -1.2090   23.4870 C   0  0  0  0  0  0  0  0  0  0  0  0
    8.2023   -4.5554   27.2977 C   0  0  0  0  0  0  0  0  0  0  0  0
    9.0430    0.2380   21.4940 C   0  0  0  0  0  0  0  0  0  0  0  0
    7.8889   -6.0857   29.2891 C   0  0  0  0  0  0  0  0  0  0  0  0
   14.6393   -2.3180   22.2082 C   0  0  0  0  0  0  0  0  0  0  0  0
   10.7220    0.6590   23.1850 C   0  0  0  0  0  0  0  0  0  0  0  0
    7.6346   -5.8716   27.8078 C   0  0  0  0  0  0  0  0  0  0  0  0
   13.7770   -1.2393   24.1852 N   0  0  0  0  0  0  0  0  0  0  0  0
    6.7100    0.3850   17.8100 N   0  0  0  0  0  0  0  0  0  0  0  0
   13.6676   -1.4788   22.8673 N   0  0  0  0  0  0  0  0  0  0  0  0
    7.2710   -0.1460   19.8310 N   0  0  0  0  0  0  0  0  0  0  0  0
    7.9771   -4.4058   25.9196 N   0  0  0  0  0  0  0  0  0  0  0  0
    8.0950   -0.7700   20.8440 N   0  0  0  0  0  0  0  0  0  0  0  0
    9.5820   -0.1080   22.7000 N   0  0  0  0  0  0  0  0  0  0  0  0
    8.7738   -3.7627   28.0389 O   0  0  0  0  0  0  0  0  0  0  0  0
    9.2950    1.3000   20.9480 O   0  0  0  0  0  0  0  0  0  0  0  0
    2.9844    2.6927   19.3613 H   0  0  0  0  0  0  0  0  0  0  0  0
    3.6214    2.0680   21.6561 H   0  0  0  0  0  0  0  0  0  0  0  0
    4.3780    2.0103   17.4276 H   0  0  0  0  0  0  0  0  0  0  0  0
    5.6758    0.7336   22.0897 H   0  0  0  0  0  0  0  0  0  0  0  0
    9.5436   -4.5614   23.7799 H   0  0  0  0  0  0  0  0  0  0  0  0
    7.1918   -1.8823   26.1906 H   0  0  0  0  0  0  0  0  0  0  0  0
   10.2676   -2.6754   22.3861 H   0  0  0  0  0  0  0  0  0  0  0  0
    7.8686   -0.0026   24.7598 H   0  0  0  0  0  0  0  0  0  0  0  0
   12.5771   -0.0965   25.4478 H   0  0  0  0  0  0  0  0  0  0  0  0
   12.3832   -0.9726   21.2281 H   0  0  0  0  0  0  0  0  0  0  0  0
    8.4213   -0.8245   18.1548 H   0  0  0  0  0  0  0  0  0  0  0  0
    8.9616   -6.0802   29.5088 H   0  0  0  0  0  0  0  0  0  0  0  0
    7.4788   -7.0478   29.6110 H   0  0  0  0  0  0  0  0  0  0  0  0
    7.4199   -5.2969   29.8865 H   0  0  0  0  0  0  0  0  0  0  0  0
   15.4522   -1.6787   21.8540 H   0  0  0  0  0  0  0  0  0  0  0  0
   15.0179   -3.0612   22.9154 H   0  0  0  0  0  0  0  0  0  0  0  0
   14.1626   -2.8324   21.3691 H   0  0  0  0  0  0  0  0  0  0  0  0
   10.4561    1.0772   24.1620 H   0  0  0  0  0  0  0  0  0  0  0  0
   10.8743    1.5008   22.5014 H   0  0  0  0  0  0  0  0  0  0  0  0
    6.5553   -5.8817   27.6171 H   0  0  0  0  0  0  0  0  0  0  0  0
    8.0880   -6.6902   27.2370 H   0  0  0  0  0  0  0  0  0  0  0  0
    7.4775   -5.1801   25.4670 H   0  0  0  0  0  0  0  0  0  0  0  0
    8.0545   -1.6267   21.0593 H   0  0  0  0  0  0  0  0  0  0  0  0
  1  2  1  0  0  0  0
  1  3  2  0  0  0  0
  2  4  2  0  0  0  0
  3 13  1  0  0  0  0
  4 14  1  0  0  0  0
  5  7  2  0  0  0  0
  5 15  1  0  0  0  0
  6  8  1  0  0  0  0
  6 15  2  0  0  0  0
  7 16  1  0  0  0  0
  8 16  2  0  0  0  0
  9 12  1  0  0  0  0
  9 23  2  0  0  0  0
 10 12  2  0  0  0  0
 10 25  1  0  0  0  0
 11 24  2  0  0  0  0
 11 26  1  0  0  0  0
 12 21  1  0  0  0  0
 13 14  2  0  0  0  0
 13 24  1  0  0  0  0
 14 26  1  0  0  0  0
 15 27  1  0  0  0  0
 16 29  1  0  0  0  0
 17 22  1  0  0  0  0
 17 27  1  0  0  0  0
 17 30  2  0  0  0  0
 18 28  1  0  0  0  0
 18 29  1  0  0  0  0
 18 31  2  0  0  0  0
 19 22  1  0  0  0  0
 20 25  1  0  0  0  0
 21 29  1  0  0  0  0
 23 25  1  0  0  0  0
 26 28  1  0  0  0  0
  1 32  1  0  0  0  0
  2 33  1  0  0  0  0
  3 34  1  0  0  0  0
  4 35  1  0  0  0  0
  5 36  1  0  0  0  0
  6 37  1  0  0  0  0
  7 38  1  0  0  0  0
  8 39  1  0  0  0  0
  9 40  1  0  0  0  0
 10 41  1  0  0  0  0
 11 42  1  0  0  0  0
 19 43  1  0  0  0  0
 19 44  1  0  0  0  0
 19 45  1  0  0  0  0
 20 46  1  0  0  0  0
 20 47  1  0  0  0  0
 20 48  1  0  0  0  0
 21 49  1  0  0  0  0
 21 50  1  0  0  0  0
 22 51  1  0  0  0  0
 22 52  1  0  0  0  0
 27 53  1  0  0  0  0
 28 54  1  0  0  0  0
M  END
> <clash_score>
0

> <docking_score>
-8.289405822753906

> <overlap_score>
1.0061724185943604

$$$$
BENZO_34_1
  -OEChem-08222022433D

 54 57  0     0  0  0  0  0  0999 V2000
    3.8860    2.1050   19.5250 C   0  0  0  0  0  0  0  0  0  0  0  0
    4.2460    1.7520   20.8250 C   0  0  0  0  0  0  0  0  0  0  0  0
   13.7501   -1.1157   24.6176 C   0  0  0  0  0  0  0  0  0  0  0  0
   12.5991   -0.3339   24.5202 C   0  0  0  0  0  0  0  0  0  0  0  0
    4.6610    1.7170   18.4380 C   0  0  0  0  0  0  0  0  0  0  0  0
    5.3890    1.0010   21.0690 C   0  0  0  0  0  0  0  0  0  0  0  0
    9.1890   -3.5540   24.0140 C   0  0  0  0  0  0  0  0  0  0  0  0
    7.8700   -2.0610   25.3550 C   0  0  0  0  0  0  0  0  0  0  0  0
    9.5890   -2.4950   23.2210 C   0  0  0  0  0  0  0  0  0  0  0  0
    8.2550   -1.0010   24.5520 C   0  0  0  0  0  0  0  0  0  0  0  0
   14.2636   -1.7454   23.4838 C   0  0  0  0  0  0  0  0  0  0  0  0
   12.4750   -0.8115   22.1551 C   0  0  0  0  0  0  0  0  0  0  0  0
    7.5840   -0.2700   18.5160 C   0  0  0  0  0  0  0  0  0  0  0  0
   11.9616   -0.1817   23.2889 C   0  0  0  0  0  0  0  0  0  0  0  0
    5.7970    0.9500   18.6730 C   0  0  0  0  0  0  0  0  0  0  0  0
    6.1460    0.6070   19.9750 C   0  0  0  0  0  0  0  0  0  0  0  0
    8.3450   -3.3440   25.0980 C   0  0  0  0  0  0  0  0  0  0  0  0
    9.1280   -1.2090   23.4870 C   0  0  0  0  0  0  0  0  0  0  0  0
   13.6261   -1.5933   22.2526 C   0  0  0  0  0  0  0  0  0  0  0  0
    8.2023   -4.5554   27.2977 C   0  0  0  0  0  0  0  0  0  0  0  0
    9.0430    0.2380   21.4940 C   0  0  0  0  0  0  0  0  0  0  0  0
    7.8889   -6.0857   29.2891 C   0  0  0  0  0  0  0  0  0  0  0  0
   10.7220    0.6590   23.1850 C   0  0  0  0  0  0  0  0  0  0  0  0
    7.6346   -5.8716   27.8078 C   0  0  0  0  0  0  0  0  0  0  0  0
    6.7100    0.3850   17.8100 N   0  0  0  0  0  0  0  0  0  0  0  0
    7.2710   -0.1460   19.8310 N   0  0  0  0  0  0  0  0  0  0  0  0
    7.9771   -4.4058   25.9196 N   0  0  0  0  0  0  0  0  0  0  0  0
    8.0950   -0.7700   20.8440 N   0  0  0  0  0  0  0  0  0  0  0  0
    9.5820   -0.1080   22.7000 N   0  0  0  0  0  0  0  0  0  0  0  0
    8.7738   -3.7627   28.0389 O   0  0  0  0  0  0  0  0  0  0  0  0
    9.2950    1.3000   20.9480 O   0  0  0  0  0  0  0  0  0  0  0  0
   14.2594   -2.3714   20.8543 Cl  0  0  0  0  0  0  0  0  0  0  0  0
    2.9844    2.6927   19.3613 H   0  0  0  0  0  0  0  0  0  0  0  0
    3.6214    2.0680   21.6561 H   0  0  0  0  0  0  0  0  0  0  0  0
   14.2462   -1.2340   25.5766 H   0  0  0  0  0  0  0  0  0  0  0  0
   12.2060    0.1530   25.4088 H   0  0  0  0  0  0  0  0  0  0  0  0
    4.3780    2.0103   17.4276 H   0  0  0  0  0  0  0  0  0  0  0  0
    5.6758    0.7336   22.0897 H   0  0  0  0  0  0  0  0  0  0  0  0
    9.5436   -4.5614   23.7799 H   0  0  0  0  0  0  0  0  0  0  0  0
    7.1918   -1.8823   26.1906 H   0  0  0  0  0  0  0  0  0  0  0  0
   10.2676   -2.6754   22.3861 H   0  0  0  0  0  0  0  0  0  0  0  0
    7.8686   -0.0026   24.7598 H   0  0  0  0  0  0  0  0  0  0  0  0
   15.1613   -2.3520   23.5747 H   0  0  0  0  0  0  0  0  0  0  0  0
   11.9745   -0.6893   21.1973 H   0  0  0  0  0  0  0  0  0  0  0  0
    8.4213   -0.8245   18.1548 H   0  0  0  0  0  0  0  0  0  0  0  0
    8.9616   -6.0802   29.5088 H   0  0  0  0  0  0  0  0  0  0  0  0
    7.4788   -7.0478   29.6110 H   0  0  0  0  0  0  0  0  0  0  0  0
    7.4199   -5.2969   29.8865 H   0  0  0  0  0  0  0  0  0  0  0  0
   10.4561    1.0772   24.1620 H   0  0  0  0  0  0  0  0  0  0  0  0
   10.8743    1.5008   22.5014 H   0  0  0  0  0  0  0  0  0  0  0  0
    6.5553   -5.8817   27.6171 H   0  0  0  0  0  0  0  0  0  0  0  0
    8.0880   -6.6902   27.2370 H   0  0  0  0  0  0  0  0  0  0  0  0
    7.4775   -5.1801   25.4670 H   0  0  0  0  0  0  0  0  0  0  0  0
    8.0545   -1.6267   21.0593 H   0  0  0  0  0  0  0  0  0  0  0  0
  1  2  1  0  0  0  0
  1  5  2  0  0  0  0
  2  6  2  0  0  0  0
  3  4  2  0  0  0  0
  3 11  1  0  0  0  0
  4 14  1  0  0  0  0
  5 15  1  0  0  0  0
  6 16  1  0  0  0  0
  7  9  2  0  0  0  0
  7 17  1  0  0  0  0
  8 10  1  0  0  0  0
  8 17  2  0  0  0  0
  9 18  1  0  0  0  0
 10 18  2  0  0  0  0
 11 19  2  0  0  0  0
 12 14  2  0  0  0  0
 12 19  1  0  0  0  0
 13 25  2  0  0  0  0
 13 26  1  0  0  0  0
 14 23  1  0  0  0  0
 15 16  2  0  0  0  0
 15 25  1  0  0  0  0
 16 26  1  0  0  0  0
 17 27  1  0  0  0  0
 18 29  1  0  0  0  0
 19 32  1  0  0  0  0
 20 24  1  0  0  0  0
 20 27  1  0  0  0  0
 20 30  2  0  0  0  0
 21 28  1  0  0  0  0
 21 29  1  0  0  0  0
 21 31  2  0  0  0  0
 22 24  1  0  0  0  0
 23 29  1  0  0  0  0
 26 28  1  0  0  0  0
  1 33  1  0  0  0  0
  2 34  1  0  0  0  0
  3 35  1  0  0  0  0
  4 36  1  0  0  0  0
  5 37  1  0  0  0  0
  6 38  1  0  0  0  0
  7 39  1  0  0  0  0
  8 40  1  0  0  0  0
  9 41  1  0  0  0  0
 10 42  1  0  0  0  0
 11 43  1  0  0  0  0
 12 44  1  0  0  0  0
 13 45  1  0  0  0  0
 22 46  1  0  0  0  0
 22 47  1  0  0  0  0
 22 48  1  0  0  0  0
 23 49  1  0  0  0  0
 23 50  1  0  0  0  0
 24 51  1  0  0  0  0
 24 52  1  0  0  0  0
 27 53  1  0  0  0  0
 28 54  1  0  0  0  0
M  END
> <clash_score>
0

> <docking_score>
-9.05338191986084

> <overlap_score>
1.010685920715332

$$$$
BENZO_37_1
  -OEChem-08222022433D

 59 63  0     0  0  0  0  0  0999 V2000
   14.2641   -1.7450   23.4813 C   0  0  0  0  0  0  0  0  0  0  0  0
   14.0779   -0.6681   24.3480 C   0  0  0  0  0  0  0  0  0  0  0  0
   13.2991   -2.0403   22.5184 C   0  0  0  0  0  0  0  0  0  0  0  0
    3.8860    2.1050   19.5250 C   0  0  0  0  0  0  0  0  0  0  0  0
    4.2460    1.7520   20.8250 C   0  0  0  0  0  0  0  0  0  0  0  0
   12.9266    0.1135   24.2518 C   0  0  0  0  0  0  0  0  0  0  0  0
   12.1478   -1.2587   22.4222 C   0  0  0  0  0  0  0  0  0  0  0  0
    4.6610    1.7170   18.4380 C   0  0  0  0  0  0  0  0  0  0  0  0
    5.3890    1.0010   21.0690 C   0  0  0  0  0  0  0  0  0  0  0  0
    9.1890   -3.5540   24.0140 C   0  0  0  0  0  0  0  0  0  0  0  0
    7.8700   -2.0610   25.3550 C   0  0  0  0  0  0  0  0  0  0  0  0
    9.5890   -2.4950   23.2210 C   0  0  0  0  0  0  0  0  0  0  0  0
    8.2550   -1.0010   24.5520 C   0  0  0  0  0  0  0  0  0  0  0  0
    7.5840   -0.2700   18.5160 C   0  0  0  0  0  0  0  0  0  0  0  0
   11.9616   -0.1817   23.2889 C   0  0  0  0  0  0  0  0  0  0  0  0
    5.7970    0.9500   18.6730 C   0  0  0  0  0  0  0  0  0  0  0  0
    6.1460    0.6070   19.9750 C   0  0  0  0  0  0  0  0  0  0  0  0
    8.3450   -3.3440   25.0980 C   0  0  0  0  0  0  0  0  0  0  0  0
    9.1280   -1.2090   23.4870 C   0  0  0  0  0  0  0  0  0  0  0  0
    9.0430    0.2380   21.4940 C   0  0  0  0  0  0  0  0  0  0  0  0
    7.3495   -6.6199   27.6701 C   0  0  0  0  0  0  0  0  0  0  0  0
    6.9542   -6.6348   26.1986 C   0  0  0  0  0  0  0  0  0  0  0  0
    7.3959   -5.1872   28.1871 C   0  0  0  0  0  0  0  0  0  0  0  0
    7.8834   -5.7613   25.3569 C   0  0  0  0  0  0  0  0  0  0  0  0
    8.3297   -4.3204   27.3453 C   0  0  0  0  0  0  0  0  0  0  0  0
   10.7220    0.6590   23.1850 C   0  0  0  0  0  0  0  0  0  0  0  0
    6.7100    0.3850   17.8100 N   0  0  0  0  0  0  0  0  0  0  0  0
    7.2710   -0.1460   19.8310 N   0  0  0  0  0  0  0  0  0  0  0  0
    7.9745   -4.4101   25.9218 N   0  0  0  0  0  0  0  0  0  0  0  0
    8.0950   -0.7700   20.8440 N   0  0  0  0  0  0  0  0  0  0  0  0
    9.5820   -0.1080   22.7000 N   0  0  0  0  0  0  0  0  0  0  0  0
    9.2950    1.3000   20.9480 O   0  0  0  0  0  0  0  0  0  0  0  0
   15.1613   -2.3527   23.5555 H   0  0  0  0  0  0  0  0  0  0  0  0
   14.8297   -0.4373   25.0971 H   0  0  0  0  0  0  0  0  0  0  0  0
   13.4443   -2.8780   21.8427 H   0  0  0  0  0  0  0  0  0  0  0  0
    2.9844    2.6927   19.3613 H   0  0  0  0  0  0  0  0  0  0  0  0
    3.6214    2.0680   21.6561 H   0  0  0  0  0  0  0  0  0  0  0  0
   12.7899    0.9506   24.9315 H   0  0  0  0  0  0  0  0  0  0  0  0
   11.4013   -1.4963   21.6690 H   0  0  0  0  0  0  0  0  0  0  0  0
    4.3780    2.0103   17.4276 H   0  0  0  0  0  0  0  0  0  0  0  0
    5.6758    0.7335   22.0897 H   0  0  0  0  0  0  0  0  0  0  0  0
    9.5426   -4.5618   23.7797 H   0  0  0  0  0  0  0  0  0  0  0  0
    7.1914   -1.8824   26.1903 H   0  0  0  0  0  0  0  0  0  0  0  0
   10.2669   -2.6745   22.3854 H   0  0  0  0  0  0  0  0  0  0  0  0
    7.8690   -0.0020   24.7587 H   0  0  0  0  0  0  0  0  0  0  0  0
    8.4213   -0.8245   18.1548 H   0  0  0  0  0  0  0  0  0  0  0  0
    6.6275   -7.2030   28.2544 H   0  0  0  0  0  0  0  0  0  0  0  0
    8.3286   -7.0944   27.7981 H   0  0  0  0  0  0  0  0  0  0  0  0
    6.9785   -7.6646   25.8205 H   0  0  0  0  0  0  0  0  0  0  0  0
    5.9224   -6.2815   26.0913 H   0  0  0  0  0  0  0  0  0  0  0  0
    6.3874   -4.7586   28.1744 H   0  0  0  0  0  0  0  0  0  0  0  0
    7.7314   -5.1812   29.2316 H   0  0  0  0  0  0  0  0  0  0  0  0
    8.8752   -6.2297   25.3260 H   0  0  0  0  0  0  0  0  0  0  0  0
    7.5092   -5.7078   24.3260 H   0  0  0  0  0  0  0  0  0  0  0  0
    8.2703   -3.2761   27.6782 H   0  0  0  0  0  0  0  0  0  0  0  0
    9.3614   -4.6600   27.5015 H   0  0  0  0  0  0  0  0  0  0  0  0
   10.4561    1.0772   24.1620 H   0  0  0  0  0  0  0  0  0  0  0  0
   10.8743    1.5008   22.5014 H   0  0  0  0  0  0  0  0  0  0  0  0
    8.0897   -1.6082   21.0890 H   0  0  0  0  0  0  0  0  0  0  0  0
  1  2  1  0  0  0  0
  1  3  2  0  0  0  0
  2  6  2  0  0  0  0
  3  7  1  0  0  0  0
  4  5  1  0  0  0  0
  4  8  2  0  0  0  0
  5  9  2  0  0  0  0
  6 15  1  0  0  0  0
  7 15  2  0  0  0  0
  8 16  1  0  0  0  0
  9 17  1  0  0  0  0
 10 12  2  0  0  0  0
 10 18  1  0  0  0  0
 11 13  1  0  0  0  0
 11 18  2  0  0  0  0
 12 19  1  0  0  0  0
 13 19  2  0  0  0  0
 14 27  2  0  0  0  0
 14 28  1  0  0  0  0
 15 26  1  0  0  0  0
 16 17  2  0  0  0  0
 16 27  1  0  0  0  0
 17 28  1  0  0  0  0
 18 29  1  0  0  0  0
 19 31  1  0  0  0  0
 20 30  1  0  0  0  0
 20 31  1  0  0  0  0
 20 32  2  0  0  0  0
 21 22  1  0  0  0  0
 21 23  1  0  0  0  0
 22 24  1  0  0  0  0
 23 25  1  0  0  0  0
 24 29  1  0  0  0  0
 25 29  1  0  0  0  0
 26 31  1  0  0  0  0
 28 30  1  0  0  0  0
  1 33  1  0  0  0  0
  2 34  1  0  0  0  0
  3 35  1  0  0  0  0
  4 36  1  0  0  0  0
  5 37  1  0  0  0  0
  6 38  1  0  0  0  0
  7 39  1  0  0  0  0
  8 40  1  0  0  0  0
  9 41  1  0  0  0  0
 10 42  1  0  0  0  0
 11 43  1  0  0  0  0
 12 44  1  0  0  0  0
 13 45  1  0  0  0  0
 14 46  1  0  0  0  0
 21 47  1  0  0  0  0
 21 48  1  0  0  0  0
 22 49  1  0  0  0  0
 22 50  1  0  0  0  0
 23 51  1  0  0  0  0
 23 52  1  0  0  0  0
 24 53  1  0  0  0  0
 24 54  1  0  0  0  0
 25 55  1  0  0  0  0
 25 56  1  0  0  0  0
 26 57  1  0  0  0  0
 26 58  1  0  0  0  0
 30 59  1  0  0  0  0
M  END
> <clash_score>
0

> <docking_score>
-9.338176727294922

> <overlap_score>
0.9952273368835449

$$$$
BENZO_36_1
  -OEChem-08222022433D

 56 60  0     0  0  0  0  0  0999 V2000
    3.8860    2.1050   19.5250 C   0  0  0  0  0  0  0  0  0  0  0  0
    4.2460    1.7520   20.8250 C   0  0  0  0  0  0  0  0  0  0  0  0
    4.6610    1.7170   18.4380 C   0  0  0  0  0  0  0  0  0  0  0  0
    5.3890    1.0010   21.0690 C   0  0  0  0  0  0  0  0  0  0  0  0
    9.1890   -3.5540   24.0140 C   0  0  0  0  0  0  0  0  0  0  0  0
    7.8700   -2.0610   25.3550 C   0  0  0  0  0  0  0  0  0  0  0  0
    9.5890   -2.4950   23.2210 C   0  0  0  0  0  0  0  0  0  0  0  0
    8.2550   -1.0010   24.5520 C   0  0  0  0  0  0  0  0  0  0  0  0
   12.6785   -0.3936   24.5018 C   0  0  0  0  0  0  0  0  0  0  0  0
   13.7775   -1.2037   24.3186 C   0  0  0  0  0  0  0  0  0  0  0  0
   12.5401   -0.8378   22.2246 C   0  0  0  0  0  0  0  0  0  0  0  0
    7.5840   -0.2700   18.5160 C   0  0  0  0  0  0  0  0  0  0  0  0
   11.9616   -0.1817   23.2889 C   0  0  0  0  0  0  0  0  0  0  0  0
    5.7970    0.9500   18.6730 C   0  0  0  0  0  0  0  0  0  0  0  0
    6.1460    0.6070   19.9750 C   0  0  0  0  0  0  0  0  0  0  0  0
    8.3450   -3.3440   25.0980 C   0  0  0  0  0  0  0  0  0  0  0  0
    9.1280   -1.2090   23.4870 C   0  0  0  0  0  0  0  0  0  0  0  0
    9.0430    0.2380   21.4940 C   0  0  0  0  0  0  0  0  0  0  0  0
    7.5748   -4.8280   28.7278 C   0  0  0  0  0  0  0  0  0  0  0  0
    8.9776   -4.7555   28.1204 C   0  0  0  0  0  0  0  0  0  0  0  0
    6.5554   -4.0713   27.8732 C   0  0  0  0  0  0  0  0  0  0  0  0
    8.9620   -5.1961   26.6568 C   0  0  0  0  0  0  0  0  0  0  0  0
    6.6009   -4.5253   26.4110 C   0  0  0  0  0  0  0  0  0  0  0  0
   10.7220    0.6590   23.1850 C   0  0  0  0  0  0  0  0  0  0  0  0
    6.7100    0.3850   17.8100 N   0  0  0  0  0  0  0  0  0  0  0  0
    7.2710   -0.1460   19.8310 N   0  0  0  0  0  0  0  0  0  0  0  0
    7.9770   -4.4029   25.9163 N   0  0  0  0  0  0  0  0  0  0  0  0
    8.0950   -0.7700   20.8440 N   0  0  0  0  0  0  0  0  0  0  0  0
    9.5820   -0.1080   22.7000 N   0  0  0  0  0  0  0  0  0  0  0  0
    9.2950    1.3000   20.9480 O   0  0  0  0  0  0  0  0  0  0  0  0
   13.9416   -1.7050   22.6894 S   0  0  0  0  0  0  0  0  0  0  0  0
    2.9844    2.6927   19.3613 H   0  0  0  0  0  0  0  0  0  0  0  0
    3.6214    2.0680   21.6561 H   0  0  0  0  0  0  0  0  0  0  0  0
    4.3780    2.0103   17.4276 H   0  0  0  0  0  0  0  0  0  0  0  0
    5.6758    0.7336   22.0897 H   0  0  0  0  0  0  0  0  0  0  0  0
    9.5426   -4.5618   23.7797 H   0  0  0  0  0  0  0  0  0  0  0  0
    7.1914   -1.8824   26.1903 H   0  0  0  0  0  0  0  0  0  0  0  0
   10.2669   -2.6745   22.3854 H   0  0  0  0  0  0  0  0  0  0  0  0
    7.8690   -0.0020   24.7587 H   0  0  0  0  0  0  0  0  0  0  0  0
   12.4058    0.0253   25.4623 H   0  0  0  0  0  0  0  0  0  0  0  0
   14.4923   -1.5245   25.0631 H   0  0  0  0  0  0  0  0  0  0  0  0
   12.2108   -0.8511   21.1948 H   0  0  0  0  0  0  0  0  0  0  0  0
    8.4213   -0.8245   18.1548 H   0  0  0  0  0  0  0  0  0  0  0  0
    7.2681   -5.8808   28.8239 H   0  0  0  0  0  0  0  0  0  0  0  0
    7.5890   -4.4101   29.7448 H   0  0  0  0  0  0  0  0  0  0  0  0
    9.3554   -3.7320   28.1920 H   0  0  0  0  0  0  0  0  0  0  0  0
    9.6558   -5.3943   28.6900 H   0  0  0  0  0  0  0  0  0  0  0  0
    5.5496   -4.2322   28.2751 H   0  0  0  0  0  0  0  0  0  0  0  0
    6.7545   -2.9948   27.9293 H   0  0  0  0  0  0  0  0  0  0  0  0
    9.9612   -5.0560   26.2363 H   0  0  0  0  0  0  0  0  0  0  0  0
    8.7097   -6.2583   26.5922 H   0  0  0  0  0  0  0  0  0  0  0  0
    6.2649   -5.5600   26.3335 H   0  0  0  0  0  0  0  0  0  0  0  0
    5.9271   -3.8964   25.8283 H   0  0  0  0  0  0  0  0  0  0  0  0
   10.4561    1.0772   24.1620 H   0  0  0  0  0  0  0  0  0  0  0  0
   10.8743    1.5008   22.5014 H   0  0  0  0  0  0  0  0  0  0  0  0
    8.0897   -1.6082   21.0890 H   0  0  0  0  0  0  0  0  0  0  0  0
  1  2  1  0  0  0  0
  1  3  2  0  0  0  0
  2  4  2  0  0  0  0
  3 14  1  0  0  0  0
  4 15  1  0  0  0  0
  5  7  2  0  0  0  0
  5 16  1  0  0  0  0
  6  8  1  0  0  0  0
  6 16  2  0  0  0  0
  7 17  1  0  0  0  0
  8 17  2  0  0  0  0
  9 10  2  0  0  0  0
  9 13  1  0  0  0  0
 10 31  1  0  0  0  0
 11 13  2  0  0  0  0
 11 31  1  0  0  0  0
 12 25  2  0  0  0  0
 12 26  1  0  0  0  0
 13 24  1  0  0  0  0
 14 15  2  0  0  0  0
 14 25  1  0  0  0  0
 15 26  1  0  0  0  0
 16 27  1  0  0  0  0
 17 29  1  0  0  0  0
 18 28  1  0  0  0  0
 18 29  1  0  0  0  0
 18 30  2  0  0  0  0
 19 20  1  0  0  0  0
 19 21  1  0  0  0  0
 20 22  1  0  0  0  0
 21 23  1  0  0  0  0
 22 27  1  0  0  0  0
 23 27  1  0  0  0  0
 24 29  1  0  0  0  0
 26 28  1  0  0  0  0
  1 32  1  0  0  0  0
  2 33  1  0  0  0  0
  3 34  1  0  0  0  0
  4 35  1  0  0  0  0
  5 36  1  0  0  0  0
  6 37  1  0  0  0  0
  7 38  1  0  0  0  0
  8 39  1  0  0  0  0
  9 40  1  0  0  0  0
 10 41  1  0  0  0  0
 11 42  1  0  0  0  0
 12 43  1  0  0  0  0
 19 44  1  0  0  0  0
 19 45  1  0  0  0  0
 20 46  1  0  0  0  0
 20 47  1  0  0  0  0
 21 48  1  0  0  0  0
 21 49  1  0  0  0  0
 22 50  1  0  0  0  0
 22 51  1  0  0  0  0
 23 52  1  0  0  0  0
 23 53  1  0  0  0  0
 24 54  1  0  0  0  0
 24 55  1  0  0  0  0
 28 56  1  0  0  0  0
M  END
> <clash_score>
0

> <docking_score>
-9.903931617736816

> <overlap_score>
0.9766672849655151

$$$$
BENZO_39_1
  -OEChem-08222022433D

 59 63  0     0  0  0  0  0  0999 V2000
    3.8860    2.1050   19.5250 C   0  0  0  0  0  0  0  0  0  0  0  0
    4.2460    1.7520   20.8250 C   0  0  0  0  0  0  0  0  0  0  0  0
    4.6610    1.7170   18.4380 C   0  0  0  0  0  0  0  0  0  0  0  0
    5.3890    1.0010   21.0690 C   0  0  0  0  0  0  0  0  0  0  0  0
    9.1890   -3.5540   24.0140 C   0  0  0  0  0  0  0  0  0  0  0  0
    7.8700   -2.0610   25.3550 C   0  0  0  0  0  0  0  0  0  0  0  0
    9.5890   -2.4950   23.2210 C   0  0  0  0  0  0  0  0  0  0  0  0
    8.2550   -1.0010   24.5520 C   0  0  0  0  0  0  0  0  0  0  0  0
   13.3010    0.2819   23.3762 C   0  0  0  0  0  0  0  0  0  0  0  0
   12.2469   -1.0164   21.9485 C   0  0  0  0  0  0  0  0  0  0  0  0
    7.5840   -0.2700   18.5160 C   0  0  0  0  0  0  0  0  0  0  0  0
   12.0277    0.0001   22.8458 C   0  0  0  0  0  0  0  0  0  0  0  0
    5.7970    0.9500   18.6730 C   0  0  0  0  0  0  0  0  0  0  0  0
    6.1460    0.6070   19.9750 C   0  0  0  0  0  0  0  0  0  0  0  0
    8.3450   -3.3440   25.0980 C   0  0  0  0  0  0  0  0  0  0  0  0
    9.1280   -1.2090   23.4870 C   0  0  0  0  0  0  0  0  0  0  0  0
    9.0430    0.2380   21.4940 C   0  0  0  0  0  0  0  0  0  0  0  0
    7.5748   -4.8280   28.7278 C   0  0  0  0  0  0  0  0  0  0  0  0
    8.9776   -4.7555   28.1204 C   0  0  0  0  0  0  0  0  0  0  0  0
    6.5554   -4.0713   27.8732 C   0  0  0  0  0  0  0  0  0  0  0  0
    8.9620   -5.1961   26.6568 C   0  0  0  0  0  0  0  0  0  0  0  0
    6.6009   -4.5253   26.4110 C   0  0  0  0  0  0  0  0  0  0  0  0
   14.2950   -2.2646   21.2232 C   0  0  0  0  0  0  0  0  0  0  0  0
   10.7220    0.6590   23.1850 C   0  0  0  0  0  0  0  0  0  0  0  0
   14.2580   -0.4932   22.8591 N   0  0  0  0  0  0  0  0  0  0  0  0
    6.7100    0.3850   17.8100 N   0  0  0  0  0  0  0  0  0  0  0  0
   13.5858   -1.2720   21.9944 N   0  0  0  0  0  0  0  0  0  0  0  0
    7.2710   -0.1460   19.8310 N   0  0  0  0  0  0  0  0  0  0  0  0
    7.9770   -4.4029   25.9163 N   0  0  0  0  0  0  0  0  0  0  0  0
    8.0950   -0.7700   20.8440 N   0  0  0  0  0  0  0  0  0  0  0  0
    9.5820   -0.1080   22.7000 N   0  0  0  0  0  0  0  0  0  0  0  0
    9.2950    1.3000   20.9480 O   0  0  0  0  0  0  0  0  0  0  0  0
    2.9844    2.6927   19.3613 H   0  0  0  0  0  0  0  0  0  0  0  0
    3.6214    2.0680   21.6561 H   0  0  0  0  0  0  0  0  0  0  0  0
    4.3780    2.0103   17.4276 H   0  0  0  0  0  0  0  0  0  0  0  0
    5.6758    0.7336   22.0897 H   0  0  0  0  0  0  0  0  0  0  0  0
    9.5426   -4.5618   23.7797 H   0  0  0  0  0  0  0  0  0  0  0  0
    7.1914   -1.8824   26.1903 H   0  0  0  0  0  0  0  0  0  0  0  0
   10.2669   -2.6745   22.3854 H   0  0  0  0  0  0  0  0  0  0  0  0
    7.8690   -0.0020   24.7587 H   0  0  0  0  0  0  0  0  0  0  0  0
   13.5736    1.0185   24.1187 H   0  0  0  0  0  0  0  0  0  0  0  0
   11.5805   -1.5669   21.2983 H   0  0  0  0  0  0  0  0  0  0  0  0
    8.4213   -0.8245   18.1548 H   0  0  0  0  0  0  0  0  0  0  0  0
    7.2681   -5.8808   28.8239 H   0  0  0  0  0  0  0  0  0  0  0  0
    7.5890   -4.4101   29.7448 H   0  0  0  0  0  0  0  0  0  0  0  0
    9.3554   -3.7320   28.1920 H   0  0  0  0  0  0  0  0  0  0  0  0
    9.6558   -5.3943   28.6900 H   0  0  0  0  0  0  0  0  0  0  0  0
    5.5496   -4.2322   28.2751 H   0  0  0  0  0  0  0  0  0  0  0  0
    6.7545   -2.9948   27.9293 H   0  0  0  0  0  0  0  0  0  0  0  0
    9.9612   -5.0560   26.2363 H   0  0  0  0  0  0  0  0  0  0  0  0
    8.7097   -6.2583   26.5922 H   0  0  0  0  0  0  0  0  0  0  0  0
    6.2649   -5.5600   26.3335 H   0  0  0  0  0  0  0  0  0  0  0  0
    5.9271   -3.8964   25.8283 H   0  0  0  0  0  0  0  0  0  0  0  0
   14.6200   -1.7975   20.2898 H   0  0  0  0  0  0  0  0  0  0  0  0
   15.1576   -2.6206   21.7932 H   0  0  0  0  0  0  0  0  0  0  0  0
   13.6285   -3.1071   21.0185 H   0  0  0  0  0  0  0  0  0  0  0  0
   10.6163    0.7710   24.2696 H   0  0  0  0  0  0  0  0  0  0  0  0
   10.6620    1.6610   22.7472 H   0  0  0  0  0  0  0  0  0  0  0  0
    8.0897   -1.6082   21.0890 H   0  0  0  0  0  0  0  0  0  0  0  0
  1  2  1  0  0  0  0
  1  3  2  0  0  0  0
  2  4  2  0  0  0  0
  3 13  1  0  0  0  0
  4 14  1  0  0  0  0
  5  7  2  0  0  0  0
  5 15  1  0  0  0  0
  6  8  1  0  0  0  0
  6 15  2  0  0  0  0
  7 16  1  0  0  0  0
  8 16  2  0  0  0  0
  9 12  1  0  0  0  0
  9 25  2  0  0  0  0
 10 12  2  0  0  0  0
 10 27  1  0  0  0  0
 11 26  2  0  0  0  0
 11 28  1  0  0  0  0
 12 24  1  0  0  0  0
 13 14  2  0  0  0  0
 13 26  1  0  0  0  0
 14 28  1  0  0  0  0
 15 29  1  0  0  0  0
 16 31  1  0  0  0  0
 17 30  1  0  0  0  0
 17 31  1  0  0  0  0
 17 32  2  0  0  0  0
 18 19  1  0  0  0  0
 18 20  1  0  0  0  0
 19 21  1  0  0  0  0
 20 22  1  0  0  0  0
 21 29  1  0  0  0  0
 22 29  1  0  0  0  0
 23 27  1  0  0  0  0
 24 31  1  0  0  0  0
 25 27  1  0  0  0  0
 28 30  1  0  0  0  0
  1 33  1  0  0  0  0
  2 34  1  0  0  0  0
  3 35  1  0  0  0  0
  4 36  1  0  0  0  0
  5 37  1  0  0  0  0
  6 38  1  0  0  0  0
  7 39  1  0  0  0  0
  8 40  1  0  0  0  0
  9 41  1  0  0  0  0
 10 42  1  0  0  0  0
 11 43  1  0  0  0  0
 18 44  1  0  0  0  0
 18 45  1  0  0  0  0
 19 46  1  0  0  0  0
 19 47  1  0  0  0  0
 20 48  1  0  0  0  0
 20 49  1  0  0  0  0
 21 50  1  0  0  0  0
 21 51  1  0  0  0  0
 22 52  1  0  0  0  0
 22 53  1  0  0  0  0
 23 54  1  0  0  0  0
 23 55  1  0  0  0  0
 23 56  1  0  0  0  0
 24 57  1  0  0  0  0
 24 58  1  0  0  0  0
 30 59  1  0  0  0  0
M  END
> <clash_score>
0

> <docking_score>
-9.907206535339355

> <overlap_score>
0.9690293669700623

$$$$
BENZO_41_1
  -OEChem-08222022433D

 47 50  0     0  0  0  0  0  0999 V2000
   14.2641   -1.7450   23.4813 C   0  0  0  0  0  0  0  0  0  0  0  0
   14.0779   -0.6681   24.3480 C   0  0  0  0  0  0  0  0  0  0  0  0
   13.2991   -2.0403   22.5184 C   0  0  0  0  0  0  0  0  0  0  0  0
    3.8860    2.1050   19.5250 C   0  0  0  0  0  0  0  0  0  0  0  0
    4.2460    1.7520   20.8250 C   0  0  0  0  0  0  0  0  0  0  0  0
   12.9266    0.1135   24.2518 C   0  0  0  0  0  0  0  0  0  0  0  0
   12.1478   -1.2587   22.4222 C   0  0  0  0  0  0  0  0  0  0  0  0
    9.1890   -3.5540   24.0140 C   0  0  0  0  0  0  0  0  0  0  0  0
    7.8700   -2.0610   25.3550 C   0  0  0  0  0  0  0  0  0  0  0  0
    4.6610    1.7170   18.4380 C   0  0  0  0  0  0  0  0  0  0  0  0
    5.3890    1.0010   21.0690 C   0  0  0  0  0  0  0  0  0  0  0  0
    9.5890   -2.4950   23.2210 C   0  0  0  0  0  0  0  0  0  0  0  0
    8.2550   -1.0010   24.5520 C   0  0  0  0  0  0  0  0  0  0  0  0
    7.5840   -0.2700   18.5160 C   0  0  0  0  0  0  0  0  0  0  0  0
    8.3450   -3.3440   25.0980 C   0  0  0  0  0  0  0  0  0  0  0  0
   11.9616   -0.1817   23.2889 C   0  0  0  0  0  0  0  0  0  0  0  0
    5.7970    0.9500   18.6730 C   0  0  0  0  0  0  0  0  0  0  0  0
    6.1460    0.6070   19.9750 C   0  0  0  0  0  0  0  0  0  0  0  0
    9.1280   -1.2090   23.4870 C   0  0  0  0  0  0  0  0  0  0  0  0
    9.0430    0.2380   21.4940 C   0  0  0  0  0  0  0  0  0  0  0  0
    7.9522   -4.4794   25.9764 C   0  0  0  0  0  0  0  0  0  0  0  0
   10.7220    0.6590   23.1850 C   0  0  0  0  0  0  0  0  0  0  0  0
    6.7100    0.3850   17.8100 N   0  0  0  0  0  0  0  0  0  0  0  0
    7.2710   -0.1460   19.8310 N   0  0  0  0  0  0  0  0  0  0  0  0
    8.0950   -0.7700   20.8440 N   0  0  0  0  0  0  0  0  0  0  0  0
    9.5820   -0.1080   22.7000 N   0  0  0  0  0  0  0  0  0  0  0  0
    9.2950    1.3000   20.9480 O   0  0  0  0  0  0  0  0  0  0  0  0
   15.1613   -2.3527   23.5555 H   0  0  0  0  0  0  0  0  0  0  0  0
   14.8297   -0.4373   25.0971 H   0  0  0  0  0  0  0  0  0  0  0  0
   13.4443   -2.8780   21.8427 H   0  0  0  0  0  0  0  0  0  0  0  0
    2.9844    2.6927   19.3613 H   0  0  0  0  0  0  0  0  0  0  0  0
    3.6214    2.0680   21.6561 H   0  0  0  0  0  0  0  0  0  0  0  0
   12.7899    0.9506   24.9315 H   0  0  0  0  0  0  0  0  0  0  0  0
   11.4013   -1.4963   21.6690 H   0  0  0  0  0  0  0  0  0  0  0  0
    9.5403   -4.5627   23.7809 H   0  0  0  0  0  0  0  0  0  0  0  0
    7.1911   -1.8848   26.1904 H   0  0  0  0  0  0  0  0  0  0  0  0
    4.3780    2.0103   17.4276 H   0  0  0  0  0  0  0  0  0  0  0  0
    5.6758    0.7336   22.0897 H   0  0  0  0  0  0  0  0  0  0  0  0
   10.2682   -2.6746   22.3865 H   0  0  0  0  0  0  0  0  0  0  0  0
    7.8684   -0.0022   24.7594 H   0  0  0  0  0  0  0  0  0  0  0  0
    8.4213   -0.8245   18.1548 H   0  0  0  0  0  0  0  0  0  0  0  0
    8.6668   -4.5891   26.8013 H   0  0  0  0  0  0  0  0  0  0  0  0
    6.9513   -4.3276   26.4010 H   0  0  0  0  0  0  0  0  0  0  0  0
    7.9196   -5.4231   25.4163 H   0  0  0  0  0  0  0  0  0  0  0  0
   10.4561    1.0772   24.1620 H   0  0  0  0  0  0  0  0  0  0  0  0
   10.8743    1.5008   22.5014 H   0  0  0  0  0  0  0  0  0  0  0  0
    8.0545   -1.6267   21.0593 H   0  0  0  0  0  0  0  0  0  0  0  0
  1  2  1  0  0  0  0
  1  3  2  0  0  0  0
  2  6  2  0  0  0  0
  3  7  1  0  0  0  0
  4  5  1  0  0  0  0
  4 10  2  0  0  0  0
  5 11  2  0  0  0  0
  6 16  1  0  0  0  0
  7 16  2  0  0  0  0
  8 12  2  0  0  0  0
  8 15  1  0  0  0  0
  9 13  1  0  0  0  0
  9 15  2  0  0  0  0
 10 17  1  0  0  0  0
 11 18  1  0  0  0  0
 12 19  1  0  0  0  0
 13 19  2  0  0  0  0
 14 23  2  0  0  0  0
 14 24  1  0  0  0  0
 15 21  1  0  0  0  0
 16 22  1  0  0  0  0
 17 18  2  0  0  0  0
 17 23  1  0  0  0  0
 18 24  1  0  0  0  0
 19 26  1  0  0  0  0
 20 25  1  0  0  0  0
 20 26  1  0  0  0  0
 20 27  2  0  0  0  0
 22 26  1  0  0  0  0
 24 25  1  0  0  0  0
  1 28  1  0  0  0  0
  2 29  1  0  0  0  0
  3 30  1  0  0  0  0
  4 31  1  0  0  0  0
  5 32  1  0  0  0  0
  6 33  1  0  0  0  0
  7 34  1  0  0  0  0
  8 35  1  0  0  0  0
  9 36  1  0  0  0  0
 10 37  1  0  0  0  0
 11 38  1  0  0  0  0
 12 39  1  0  0  0  0
 13 40  1  0  0  0  0
 14 41  1  0  0  0  0
 21 42  1  0  0  0  0
 21 43  1  0  0  0  0
 21 44  1  0  0  0  0
 22 45  1  0  0  0  0
 22 46  1  0  0  0  0
 25 47  1  0  0  0  0
M  END
> <clash_score>
0

> <docking_score>
-9.562138557434082

> <overlap_score>
0.9021971225738525

$$$$
BENZO_38_1
  -OEChem-08222022433D

 59 63  0     0  0  0  0  0  0999 V2000
    3.8860    2.1050   19.5250 C   0  0  0  0  0  0  0  0  0  0  0  0
    4.2460    1.7520   20.8250 C   0  0  0  0  0  0  0  0  0  0  0  0
   13.7501   -1.1157   24.6176 C   0  0  0  0  0  0  0  0  0  0  0  0
   12.5991   -0.3339   24.5202 C   0  0  0  0  0  0  0  0  0  0  0  0
    4.6610    1.7170   18.4380 C   0  0  0  0  0  0  0  0  0  0  0  0
    5.3890    1.0010   21.0690 C   0  0  0  0  0  0  0  0  0  0  0  0
    9.1890   -3.5540   24.0140 C   0  0  0  0  0  0  0  0  0  0  0  0
    7.8700   -2.0610   25.3550 C   0  0  0  0  0  0  0  0  0  0  0  0
    9.5890   -2.4950   23.2210 C   0  0  0  0  0  0  0  0  0  0  0  0
    8.2550   -1.0010   24.5520 C   0  0  0  0  0  0  0  0  0  0  0  0
   14.2636   -1.7454   23.4838 C   0  0  0  0  0  0  0  0  0  0  0  0
   12.4750   -0.8115   22.1551 C   0  0  0  0  0  0  0  0  0  0  0  0
    7.5840   -0.2700   18.5160 C   0  0  0  0  0  0  0  0  0  0  0  0
   11.9616   -0.1817   23.2889 C   0  0  0  0  0  0  0  0  0  0  0  0
    5.7970    0.9500   18.6730 C   0  0  0  0  0  0  0  0  0  0  0  0
    6.1460    0.6070   19.9750 C   0  0  0  0  0  0  0  0  0  0  0  0
    8.3450   -3.3440   25.0980 C   0  0  0  0  0  0  0  0  0  0  0  0
    9.1280   -1.2090   23.4870 C   0  0  0  0  0  0  0  0  0  0  0  0
   13.6261   -1.5933   22.2526 C   0  0  0  0  0  0  0  0  0  0  0  0
    9.0430    0.2380   21.4940 C   0  0  0  0  0  0  0  0  0  0  0  0
    7.5748   -4.8280   28.7278 C   0  0  0  0  0  0  0  0  0  0  0  0
    8.9776   -4.7555   28.1204 C   0  0  0  0  0  0  0  0  0  0  0  0
    6.5554   -4.0713   27.8732 C   0  0  0  0  0  0  0  0  0  0  0  0
    8.9620   -5.1961   26.6568 C   0  0  0  0  0  0  0  0  0  0  0  0
    6.6009   -4.5253   26.4110 C   0  0  0  0  0  0  0  0  0  0  0  0
   10.7220    0.6590   23.1850 C   0  0  0  0  0  0  0  0  0  0  0  0
    6.7100    0.3850   17.8100 N   0  0  0  0  0  0  0  0  0  0  0  0
    7.2710   -0.1460   19.8310 N   0  0  0  0  0  0  0  0  0  0  0  0
    7.9770   -4.4029   25.9163 N   0  0  0  0  0  0  0  0  0  0  0  0
    8.0950   -0.7700   20.8440 N   0  0  0  0  0  0  0  0  0  0  0  0
    9.5820   -0.1080   22.7000 N   0  0  0  0  0  0  0  0  0  0  0  0
    9.2950    1.3000   20.9480 O   0  0  0  0  0  0  0  0  0  0  0  0
   14.2594   -2.3714   20.8543 Cl  0  0  0  0  0  0  0  0  0  0  0  0
    2.9844    2.6927   19.3613 H   0  0  0  0  0  0  0  0  0  0  0  0
    3.6214    2.0680   21.6561 H   0  0  0  0  0  0  0  0  0  0  0  0
   14.2462   -1.2340   25.5766 H   0  0  0  0  0  0  0  0  0  0  0  0
   12.2060    0.1530   25.4088 H   0  0  0  0  0  0  0  0  0  0  0  0
    4.3780    2.0103   17.4276 H   0  0  0  0  0  0  0  0  0  0  0  0
    5.6758    0.7336   22.0897 H   0  0  0  0  0  0  0  0  0  0  0  0
    9.5426   -4.5618   23.7797 H   0  0  0  0  0  0  0  0  0  0  0  0
    7.1914   -1.8824   26.1903 H   0  0  0  0  0  0  0  0  0  0  0  0
   10.2669   -2.6745   22.3854 H   0  0  0  0  0  0  0  0  0  0  0  0
    7.8690   -0.0020   24.7587 H   0  0  0  0  0  0  0  0  0  0  0  0
   15.1613   -2.3520   23.5747 H   0  0  0  0  0  0  0  0  0  0  0  0
   11.9745   -0.6893   21.1973 H   0  0  0  0  0  0  0  0  0  0  0  0
    8.4213   -0.8245   18.1548 H   0  0  0  0  0  0  0  0  0  0  0  0
    7.2681   -5.8808   28.8239 H   0  0  0  0  0  0  0  0  0  0  0  0
    7.5890   -4.4101   29.7448 H   0  0  0  0  0  0  0  0  0  0  0  0
    9.3554   -3.7320   28.1920 H   0  0  0  0  0  0  0  0  0  0  0  0
    9.6558   -5.3943   28.6900 H   0  0  0  0  0  0  0  0  0  0  0  0
    5.5496   -4.2322   28.2751 H   0  0  0  0  0  0  0  0  0  0  0  0
    6.7545   -2.9948   27.9293 H   0  0  0  0  0  0  0  0  0  0  0  0
    9.9612   -5.0560   26.2363 H   0  0  0  0  0  0  0  0  0  0  0  0
    8.7097   -6.2583   26.5922 H   0  0  0  0  0  0  0  0  0  0  0  0
    6.2649   -5.5600   26.3335 H   0  0  0  0  0  0  0  0  0  0  0  0
    5.9271   -3.8964   25.8283 H   0  0  0  0  0  0  0  0  0  0  0  0
   10.4561    1.0772   24.1620 H   0  0  0  0  0  0  0  0  0  0  0  0
   10.8743    1.5008   22.5014 H   0  0  0  0  0  0  0  0  0  0  0  0
    8.0897   -1.6082   21.0890 H   0  0  0  0  0  0  0  0  0  0  0  0
  1  2  1  0  0  0  0
  1  5  2  0  0  0  0
  2  6  2  0  0  0  0
  3  4  2  0  0  0  0
  3 11  1  0  0  0  0
  4 14  1  0  0  0  0
  5 15  1  0  0  0  0
  6 16  1  0  0  0  0
  7  9  2  0  0  0  0
  7 17  1  0  0  0  0
  8 10  1  0  0  0  0
  8 17  2  0  0  0  0
  9 18  1  0  0  0  0
 10 18  2  0  0  0  0
 11 19  2  0  0  0  0
 12 14  2  0  0  0  0
 12 19  1  0  0  0  0
 13 27  2  0  0  0  0
 13 28  1  0  0  0  0
 14 26  1  0  0  0  0
 15 16  2  0  0  0  0
 15 27  1  0  0  0  0
 16 28  1  0  0  0  0
 17 29  1  0  0  0  0
 18 31  1  0  0  0  0
 19 33  1  0  0  0  0
 20 30  1  0  0  0  0
 20 31  1  0  0  0  0
 20 32  2  0  0  0  0
 21 22  1  0  0  0  0
 21 23  1  0  0  0  0
 22 24  1  0  0  0  0
 23 25  1  0  0  0  0
 24 29  1  0  0  0  0
 25 29  1  0  0  0  0
 26 31  1  0  0  0  0
 28 30  1  0  0  0  0
  1 34  1  0  0  0  0
  2 35  1  0  0  0  0
  3 36  1  0  0  0  0
  4 37  1  0  0  0  0
  5 38  1  0  0  0  0
  6 39  1  0  0  0  0
  7 40  1  0  0  0  0
  8 41  1  0  0  0  0
  9 42  1  0  0  0  0
 10 43  1  0  0  0  0
 11 44  1  0  0  0  0
 12 45  1  0  0  0  0
 13 46  1  0  0  0  0
 21 47  1  0  0  0  0
 21 48  1  0  0  0  0
 22 49  1  0  0  0  0
 22 50  1  0  0  0  0
 23 51  1  0  0  0  0
 23 52  1  0  0  0  0
 24 53  1  0  0  0  0
 24 54  1  0  0  0  0
 25 55  1  0  0  0  0
 25 56  1  0  0  0  0
 26 57  1  0  0  0  0
 26 58  1  0  0  0  0
 30 59  1  0  0  0  0
M  END
> <clash_score>
0

> <docking_score>
-9.41712760925293

> <overlap_score>
0.9978207945823669

$$$$
BENZO_40_1
  -OEChem-08222022433D

 44 47  0     0  0  0  0  0  0999 V2000
    3.8860    2.1050   19.5250 C   0  0  0  0  0  0  0  0  0  0  0  0
    4.2460    1.7520   20.8250 C   0  0  0  0  0  0  0  0  0  0  0  0
    9.1890   -3.5540   24.0140 C   0  0  0  0  0  0  0  0  0  0  0  0
    7.8700   -2.0610   25.3550 C   0  0  0  0  0  0  0  0  0  0  0  0
    4.6610    1.7170   18.4380 C   0  0  0  0  0  0  0  0  0  0  0  0
    5.3890    1.0010   21.0690 C   0  0  0  0  0  0  0  0  0  0  0  0
    9.5890   -2.4950   23.2210 C   0  0  0  0  0  0  0  0  0  0  0  0
    8.2550   -1.0010   24.5520 C   0  0  0  0  0  0  0  0  0  0  0  0
   12.6785   -0.3936   24.5018 C   0  0  0  0  0  0  0  0  0  0  0  0
   13.7775   -1.2037   24.3186 C   0  0  0  0  0  0  0  0  0  0  0  0
   12.5401   -0.8378   22.2246 C   0  0  0  0  0  0  0  0  0  0  0  0
    7.5840   -0.2700   18.5160 C   0  0  0  0  0  0  0  0  0  0  0  0
    8.3450   -3.3440   25.0980 C   0  0  0  0  0  0  0  0  0  0  0  0
   11.9616   -0.1817   23.2889 C   0  0  0  0  0  0  0  0  0  0  0  0
    5.7970    0.9500   18.6730 C   0  0  0  0  0  0  0  0  0  0  0  0
    6.1460    0.6070   19.9750 C   0  0  0  0  0  0  0  0  0  0  0  0
    9.1280   -1.2090   23.4870 C   0  0  0  0  0  0  0  0  0  0  0  0
    9.0430    0.2380   21.4940 C   0  0  0  0  0  0  0  0  0  0  0  0
    7.9522   -4.4794   25.9764 C   0  0  0  0  0  0  0  0  0  0  0  0
   10.7220    0.6590   23.1850 C   0  0  0  0  0  0  0  0  0  0  0  0
    6.7100    0.3850   17.8100 N   0  0  0  0  0  0  0  0  0  0  0  0
    7.2710   -0.1460   19.8310 N   0  0  0  0  0  0  0  0  0  0  0  0
    8.0950   -0.7700   20.8440 N   0  0  0  0  0  0  0  0  0  0  0  0
    9.5820   -0.1080   22.7000 N   0  0  0  0  0  0  0  0  0  0  0  0
    9.2950    1.3000   20.9480 O   0  0  0  0  0  0  0  0  0  0  0  0
   13.9416   -1.7050   22.6894 S   0  0  0  0  0  0  0  0  0  0  0  0
    2.9844    2.6927   19.3613 H   0  0  0  0  0  0  0  0  0  0  0  0
    3.6214    2.0680   21.6561 H   0  0  0  0  0  0  0  0  0  0  0  0
    9.5403   -4.5627   23.7809 H   0  0  0  0  0  0  0  0  0  0  0  0
    7.1911   -1.8848   26.1904 H   0  0  0  0  0  0  0  0  0  0  0  0
    4.3780    2.0103   17.4276 H   0  0  0  0  0  0  0  0  0  0  0  0
    5.6758    0.7336   22.0897 H   0  0  0  0  0  0  0  0  0  0  0  0
   10.2682   -2.6746   22.3865 H   0  0  0  0  0  0  0  0  0  0  0  0
    7.8684   -0.0022   24.7594 H   0  0  0  0  0  0  0  0  0  0  0  0
   12.4058    0.0253   25.4623 H   0  0  0  0  0  0  0  0  0  0  0  0
   14.4923   -1.5246   25.0631 H   0  0  0  0  0  0  0  0  0  0  0  0
   12.2108   -0.8511   21.1948 H   0  0  0  0  0  0  0  0  0  0  0  0
    8.4213   -0.8245   18.1548 H   0  0  0  0  0  0  0  0  0  0  0  0
    8.6668   -4.5891   26.8013 H   0  0  0  0  0  0  0  0  0  0  0  0
    6.9513   -4.3276   26.4010 H   0  0  0  0  0  0  0  0  0  0  0  0
    7.9196   -5.4231   25.4163 H   0  0  0  0  0  0  0  0  0  0  0  0
   10.4561    1.0772   24.1620 H   0  0  0  0  0  0  0  0  0  0  0  0
   10.8743    1.5008   22.5014 H   0  0  0  0  0  0  0  0  0  0  0  0
    8.0545   -1.6267   21.0593 H   0  0  0  0  0  0  0  0  0  0  0  0
  1  2  1  0  0  0  0
  1  5  2  0  0  0  0
  2  6  2  0  0  0  0
  3  7  2  0  0  0  0
  3 13  1  0  0  0  0
  4  8  1  0  0  0  0
  4 13  2  0  0  0  0
  5 15  1  0  0  0  0
  6 16  1  0  0  0  0
  7 17  1  0  0  0  0
  8 17  2  0  0  0  0
  9 10  2  0  0  0  0
  9 14  1  0  0  0  0
 10 26  1  0  0  0  0
 11 14  2  0  0  0  0
 11 26  1  0  0  0  0
 12 21  2  0  0  0  0
 12 22  1  0  0  0  0
 13 19  1  0  0  0  0
 14 20  1  0  0  0  0
 15 16  2  0  0  0  0
 15 21  1  0  0  0  0
 16 22  1  0  0  0  0
 17 24  1  0  0  0  0
 18 23  1  0  0  0  0
 18 24  1  0  0  0  0
 18 25  2  0  0  0  0
 20 24  1  0  0  0  0
 22 23  1  0  0  0  0
  1 27  1  0  0  0  0
  2 28  1  0  0  0  0
  3 29  1  0  0  0  0
  4 30  1  0  0  0  0
  5 31  1  0  0  0  0
  6 32  1  0  0  0  0
  7 33  1  0  0  0  0
  8 34  1  0  0  0  0
  9 35  1  0  0  0  0
 10 36  1  0  0  0  0
 11 37  1  0  0  0  0
 12 38  1  0  0  0  0
 19 39  1  0  0  0  0
 19 40  1  0  0  0  0
 19 41  1  0  0  0  0
 20 42  1  0  0  0  0
 20 43  1  0  0  0  0
 23 44  1  0  0  0  0
M  END
> <clash_score>
0

> <docking_score>
-9.002817153930664

> <overlap_score>
0.8884325623512268

$$$$
BENZO_43_1
  -OEChem-08222022433D

 47 50  0     0  0  0  0  0  0999 V2000
    3.8860    2.1050   19.5250 C   0  0  0  0  0  0  0  0  0  0  0  0
    4.2460    1.7520   20.8250 C   0  0  0  0  0  0  0  0  0  0  0  0
    9.1890   -3.5540   24.0140 C   0  0  0  0  0  0  0  0  0  0  0  0
    7.8700   -2.0610   25.3550 C   0  0  0  0  0  0  0  0  0  0  0  0
    4.6610    1.7170   18.4380 C   0  0  0  0  0  0  0  0  0  0  0  0
    5.3890    1.0010   21.0690 C   0  0  0  0  0  0  0  0  0  0  0  0
    9.5890   -2.4950   23.2210 C   0  0  0  0  0  0  0  0  0  0  0  0
    8.2550   -1.0010   24.5520 C   0  0  0  0  0  0  0  0  0  0  0  0
   12.7320   -0.4464   24.4370 C   0  0  0  0  0  0  0  0  0  0  0  0
   12.5970   -0.8682   22.2832 C   0  0  0  0  0  0  0  0  0  0  0  0
    7.5840   -0.2700   18.5160 C   0  0  0  0  0  0  0  0  0  0  0  0
    8.3450   -3.3440   25.0980 C   0  0  0  0  0  0  0  0  0  0  0  0
   11.9616   -0.1817   23.2889 C   0  0  0  0  0  0  0  0  0  0  0  0
    5.7970    0.9500   18.6730 C   0  0  0  0  0  0  0  0  0  0  0  0
    6.1460    0.6070   19.9750 C   0  0  0  0  0  0  0  0  0  0  0  0
    9.1280   -1.2090   23.4870 C   0  0  0  0  0  0  0  0  0  0  0  0
    9.0430    0.2380   21.4940 C   0  0  0  0  0  0  0  0  0  0  0  0
    7.9522   -4.4794   25.9764 C   0  0  0  0  0  0  0  0  0  0  0  0
   14.6393   -2.3180   22.2082 C   0  0  0  0  0  0  0  0  0  0  0  0
   10.7220    0.6590   23.1850 C   0  0  0  0  0  0  0  0  0  0  0  0
   13.7770   -1.2393   24.1852 N   0  0  0  0  0  0  0  0  0  0  0  0
    6.7100    0.3850   17.8100 N   0  0  0  0  0  0  0  0  0  0  0  0
   13.6676   -1.4788   22.8673 N   0  0  0  0  0  0  0  0  0  0  0  0
    7.2710   -0.1460   19.8310 N   0  0  0  0  0  0  0  0  0  0  0  0
    8.0950   -0.7700   20.8440 N   0  0  0  0  0  0  0  0  0  0  0  0
    9.5820   -0.1080   22.7000 N   0  0  0  0  0  0  0  0  0  0  0  0
    9.2950    1.3000   20.9480 O   0  0  0  0  0  0  0  0  0  0  0  0
    2.9844    2.6927   19.3613 H   0  0  0  0  0  0  0  0  0  0  0  0
    3.6214    2.0680   21.6561 H   0  0  0  0  0  0  0  0  0  0  0  0
    9.5403   -4.5627   23.7809 H   0  0  0  0  0  0  0  0  0  0  0  0
    7.1911   -1.8848   26.1904 H   0  0  0  0  0  0  0  0  0  0  0  0
    4.3780    2.0103   17.4276 H   0  0  0  0  0  0  0  0  0  0  0  0
    5.6758    0.7336   22.0897 H   0  0  0  0  0  0  0  0  0  0  0  0
   10.2682   -2.6746   22.3865 H   0  0  0  0  0  0  0  0  0  0  0  0
    7.8684   -0.0022   24.7594 H   0  0  0  0  0  0  0  0  0  0  0  0
   12.5771   -0.0965   25.4478 H   0  0  0  0  0  0  0  0  0  0  0  0
   12.3832   -0.9726   21.2281 H   0  0  0  0  0  0  0  0  0  0  0  0
    8.4213   -0.8245   18.1548 H   0  0  0  0  0  0  0  0  0  0  0  0
    8.6668   -4.5891   26.8013 H   0  0  0  0  0  0  0  0  0  0  0  0
    6.9513   -4.3276   26.4010 H   0  0  0  0  0  0  0  0  0  0  0  0
    7.9196   -5.4231   25.4163 H   0  0  0  0  0  0  0  0  0  0  0  0
   15.4522   -1.6787   21.8540 H   0  0  0  0  0  0  0  0  0  0  0  0
   15.0179   -3.0612   22.9154 H   0  0  0  0  0  0  0  0  0  0  0  0
   14.1626   -2.8324   21.3691 H   0  0  0  0  0  0  0  0  0  0  0  0
   10.4561    1.0772   24.1620 H   0  0  0  0  0  0  0  0  0  0  0  0
   10.8743    1.5008   22.5014 H   0  0  0  0  0  0  0  0  0  0  0  0
    8.0545   -1.6267   21.0593 H   0  0  0  0  0  0  0  0  0  0  0  0
  1  2  1  0  0  0  0
  1  5  2  0  0  0  0
  2  6  2  0  0  0  0
  3  7  2  0  0  0  0
  3 12  1  0  0  0  0
  4  8  1  0  0  0  0
  4 12  2  0  0  0  0
  5 14  1  0  0  0  0
  6 15  1  0  0  0  0
  7 16  1  0  0  0  0
  8 16  2  0  0  0  0
  9 13  1  0  0  0  0
  9 21  2  0  0  0  0
 10 13  2  0  0  0  0
 10 23  1  0  0  0  0
 11 22  2  0  0  0  0
 11 24  1  0  0  0  0
 12 18  1  0  0  0  0
 13 20  1  0  0  0  0
 14 15  2  0  0  0  0
 14 22  1  0  0  0  0
 15 24  1  0  0  0  0
 16 26  1  0  0  0  0
 17 25  1  0  0  0  0
 17 26  1  0  0  0  0
 17 27  2  0  0  0  0
 19 23  1  0  0  0  0
 20 26  1  0  0  0  0
 21 23  1  0  0  0  0
 24 25  1  0  0  0  0
  1 28  1  0  0  0  0
  2 29  1  0  0  0  0
  3 30  1  0  0  0  0
  4 31  1  0  0  0  0
  5 32  1  0  0  0  0
  6 33  1  0  0  0  0
  7 34  1  0  0  0  0
  8 35  1  0  0  0  0
  9 36  1  0  0  0  0
 10 37  1  0  0  0  0
 11 38  1  0  0  0  0
 18 39  1  0  0  0  0
 18 40  1  0  0  0  0
 18 41  1  0  0  0  0
 19 42  1  0  0  0  0
 19 43  1  0  0  0  0
 19 44  1  0  0  0  0
 20 45  1  0  0  0  0
 20 46  1  0  0  0  0
 25 47  1  0  0  0  0
M  END
> <clash_score>
0

> <docking_score>
-7.752033710479736

> <overlap_score>
0.9054273366928101

$$$$
BENZO_42_1
  -OEChem-08222022433D

 47 50  0     0  0  0  0  0  0999 V2000
    3.8860    2.1050   19.5250 C   0  0  0  0  0  0  0  0  0  0  0  0
    4.2460    1.7520   20.8250 C   0  0  0  0  0  0  0  0  0  0  0  0
   13.7501   -1.1157   24.6176 C   0  0  0  0  0  0  0  0  0  0  0  0
   12.5991   -0.3339   24.5202 C   0  0  0  0  0  0  0  0  0  0  0  0
    9.1890   -3.5540   24.0140 C   0  0  0  0  0  0  0  0  0  0  0  0
    7.8700   -2.0610   25.3550 C   0  0  0  0  0  0  0  0  0  0  0  0
    4.6610    1.7170   18.4380 C   0  0  0  0  0  0  0  0  0  0  0  0
    5.3890    1.0010   21.0690 C   0  0  0  0  0  0  0  0  0  0  0  0
    9.5890   -2.4950   23.2210 C   0  0  0  0  0  0  0  0  0  0  0  0
    8.2550   -1.0010   24.5520 C   0  0  0  0  0  0  0  0  0  0  0  0
   14.2636   -1.7454   23.4838 C   0  0  0  0  0  0  0  0  0  0  0  0
   12.4750   -0.8115   22.1551 C   0  0  0  0  0  0  0  0  0  0  0  0
    7.5840   -0.2700   18.5160 C   0  0  0  0  0  0  0  0  0  0  0  0
    8.3450   -3.3440   25.0980 C   0  0  0  0  0  0  0  0  0  0  0  0
   11.9616   -0.1817   23.2889 C   0  0  0  0  0  0  0  0  0  0  0  0
    5.7970    0.9500   18.6730 C   0  0  0  0  0  0  0  0  0  0  0  0
    6.1460    0.6070   19.9750 C   0  0  0  0  0  0  0  0  0  0  0  0
    9.1280   -1.2090   23.4870 C   0  0  0  0  0  0  0  0  0  0  0  0
   13.6261   -1.5933   22.2526 C   0  0  0  0  0  0  0  0  0  0  0  0
    9.0430    0.2380   21.4940 C   0  0  0  0  0  0  0  0  0  0  0  0
    7.9522   -4.4794   25.9764 C   0  0  0  0  0  0  0  0  0  0  0  0
   10.7220    0.6590   23.1850 C   0  0  0  0  0  0  0  0  0  0  0  0
    6.7100    0.3850   17.8100 N   0  0  0  0  0  0  0  0  0  0  0  0
    7.2710   -0.1460   19.8310 N   0  0  0  0  0  0  0  0  0  0  0  0
    8.0950   -0.7700   20.8440 N   0  0  0  0  0  0  0  0  0  0  0  0
    9.5820   -0.1080   22.7000 N   0  0  0  0  0  0  0  0  0  0  0  0
    9.2950    1.3000   20.9480 O   0  0  0  0  0  0  0  0  0  0  0  0
   14.2594   -2.3714   20.8543 Cl  0  0  0  0  0  0  0  0  0  0  0  0
    2.9844    2.6927   19.3613 H   0  0  0  0  0  0  0  0  0  0  0  0
    3.6214    2.0680   21.6561 H   0  0  0  0  0  0  0  0  0  0  0  0
   14.2462   -1.2340   25.5766 H   0  0  0  0  0  0  0  0  0  0  0  0
   12.2060    0.1530   25.4088 H   0  0  0  0  0  0  0  0  0  0  0  0
    9.5403   -4.5627   23.7809 H   0  0  0  0  0  0  0  0  0  0  0  0
    7.1911   -1.8848   26.1904 H   0  0  0  0  0  0  0  0  0  0  0  0
    4.3780    2.0103   17.4276 H   0  0  0  0  0  0  0  0  0  0  0  0
    5.6758    0.7336   22.0897 H   0  0  0  0  0  0  0  0  0  0  0  0
   10.2682   -2.6746   22.3865 H   0  0  0  0  0  0  0  0  0  0  0  0
    7.8684   -0.0022   24.7594 H   0  0  0  0  0  0  0  0  0  0  0  0
   15.1613   -2.3520   23.5747 H   0  0  0  0  0  0  0  0  0  0  0  0
   11.9745   -0.6893   21.1973 H   0  0  0  0  0  0  0  0  0  0  0  0
    8.4213   -0.8245   18.1548 H   0  0  0  0  0  0  0  0  0  0  0  0
    8.6668   -4.5891   26.8013 H   0  0  0  0  0  0  0  0  0  0  0  0
    6.9513   -4.3276   26.4010 H   0  0  0  0  0  0  0  0  0  0  0  0
    7.9196   -5.4231   25.4163 H   0  0  0  0  0  0  0  0  0  0  0  0
   10.4561    1.0772   24.1620 H   0  0  0  0  0  0  0  0  0  0  0  0
   10.8743    1.5008   22.5014 H   0  0  0  0  0  0  0  0  0  0  0  0
    8.0545   -1.6267   21.0593 H   0  0  0  0  0  0  0  0  0  0  0  0
  1  2  1  0  0  0  0
  1  7  2  0  0  0  0
  2  8  2  0  0  0  0
  3  4  2  0  0  0  0
  3 11  1  0  0  0  0
  4 15  1  0  0  0  0
  5  9  2  0  0  0  0
  5 14  1  0  0  0  0
  6 10  1  0  0  0  0
  6 14  2  0  0  0  0
  7 16  1  0  0  0  0
  8 17  1  0  0  0  0
  9 18  1  0  0  0  0
 10 18  2  0  0  0  0
 11 19  2  0  0  0  0
 12 15  2  0  0  0  0
 12 19  1  0  0  0  0
 13 23  2  0  0  0  0
 13 24  1  0  0  0  0
 14 21  1  0  0  0  0
 15 22  1  0  0  0  0
 16 17  2  0  0  0  0
 16 23  1  0  0  0  0
 17 24  1  0  0  0  0
 18 26  1  0  0  0  0
 19 28  1  0  0  0  0
 20 25  1  0  0  0  0
 20 26  1  0  0  0  0
 20 27  2  0  0  0  0
 22 26  1  0  0  0  0
 24 25  1  0  0  0  0
  1 29  1  0  0  0  0
  2 30  1  0  0  0  0
  3 31  1  0  0  0  0
  4 32  1  0  0  0  0
  5 33  1  0  0  0  0
  6 34  1  0  0  0  0
  7 35  1  0  0  0  0
  8 36  1  0  0  0  0
  9 37  1  0  0  0  0
 10 38  1  0  0  0  0
 11 39  1  0  0  0  0
 12 40  1  0  0  0  0
 13 41  1  0  0  0  0
 21 42  1  0  0  0  0
 21 43  1  0  0  0  0
 21 44  1  0  0  0  0
 22 45  1  0  0  0  0
 22 46  1  0  0  0  0
 25 47  1  0  0  0  0
M  END
> <clash_score>
0

> <docking_score>
-8.516012191772461

> <overlap_score>
0.9100707769393921

$$$$
BENZO_45_1
  -OEChem-08222022433D

 48 51  0     0  0  0  0  0  0999 V2000
   14.2641   -1.7450   23.4813 C   0  0  0  0  0  0  0  0  0  0  0  0
   14.0779   -0.6681   24.3480 C   0  0  0  0  0  0  0  0  0  0  0  0
   13.2991   -2.0403   22.5184 C   0  0  0  0  0  0  0  0  0  0  0  0
    3.8860    2.1050   19.5250 C   0  0  0  0  0  0  0  0  0  0  0  0
    4.2460    1.7520   20.8250 C   0  0  0  0  0  0  0  0  0  0  0  0
   12.9266    0.1135   24.2518 C   0  0  0  0  0  0  0  0  0  0  0  0
   12.1478   -1.2587   22.4222 C   0  0  0  0  0  0  0  0  0  0  0  0
    4.6610    1.7170   18.4380 C   0  0  0  0  0  0  0  0  0  0  0  0
    5.3890    1.0010   21.0690 C   0  0  0  0  0  0  0  0  0  0  0  0
    9.5890   -2.4950   23.2210 C   0  0  0  0  0  0  0  0  0  0  0  0
    8.2550   -1.0010   24.5520 C   0  0  0  0  0  0  0  0  0  0  0  0
    9.1890   -3.5540   24.0140 C   0  0  0  0  0  0  0  0  0  0  0  0
    7.8700   -2.0610   25.3550 C   0  0  0  0  0  0  0  0  0  0  0  0
    7.5840   -0.2700   18.5160 C   0  0  0  0  0  0  0  0  0  0  0  0
   11.9616   -0.1817   23.2889 C   0  0  0  0  0  0  0  0  0  0  0  0
    5.7970    0.9500   18.6730 C   0  0  0  0  0  0  0  0  0  0  0  0
    6.1460    0.6070   19.9750 C   0  0  0  0  0  0  0  0  0  0  0  0
    9.1280   -1.2090   23.4870 C   0  0  0  0  0  0  0  0  0  0  0  0
    8.3450   -3.3440   25.0980 C   0  0  0  0  0  0  0  0  0  0  0  0
    9.0430    0.2380   21.4940 C   0  0  0  0  0  0  0  0  0  0  0  0
    8.5124   -5.6656   25.5743 C   0  0  0  0  0  0  0  0  0  0  0  0
   10.7220    0.6590   23.1850 C   0  0  0  0  0  0  0  0  0  0  0  0
    6.7100    0.3850   17.8100 N   0  0  0  0  0  0  0  0  0  0  0  0
    7.2710   -0.1460   19.8310 N   0  0  0  0  0  0  0  0  0  0  0  0
    8.0950   -0.7700   20.8440 N   0  0  0  0  0  0  0  0  0  0  0  0
    9.5820   -0.1080   22.7000 N   0  0  0  0  0  0  0  0  0  0  0  0
    9.2950    1.3000   20.9480 O   0  0  0  0  0  0  0  0  0  0  0  0
    7.9864   -4.3799   25.8996 O   0  0  0  0  0  0  0  0  0  0  0  0
   15.1613   -2.3527   23.5555 H   0  0  0  0  0  0  0  0  0  0  0  0
   14.8297   -0.4373   25.0971 H   0  0  0  0  0  0  0  0  0  0  0  0
   13.4443   -2.8780   21.8427 H   0  0  0  0  0  0  0  0  0  0  0  0
    2.9844    2.6927   19.3613 H   0  0  0  0  0  0  0  0  0  0  0  0
    3.6214    2.0680   21.6561 H   0  0  0  0  0  0  0  0  0  0  0  0
   12.7899    0.9506   24.9315 H   0  0  0  0  0  0  0  0  0  0  0  0
   11.4013   -1.4963   21.6690 H   0  0  0  0  0  0  0  0  0  0  0  0
    4.3780    2.0103   17.4276 H   0  0  0  0  0  0  0  0  0  0  0  0
    5.6758    0.7336   22.0897 H   0  0  0  0  0  0  0  0  0  0  0  0
   10.2678   -2.6746   22.3862 H   0  0  0  0  0  0  0  0  0  0  0  0
    7.8691   -0.0023   24.7606 H   0  0  0  0  0  0  0  0  0  0  0  0
    9.5404   -4.5633   23.7846 H   0  0  0  0  0  0  0  0  0  0  0  0
    7.1920   -1.8875   26.1914 H   0  0  0  0  0  0  0  0  0  0  0  0
    8.4213   -0.8245   18.1548 H   0  0  0  0  0  0  0  0  0  0  0  0
    8.1469   -6.4024   26.2939 H   0  0  0  0  0  0  0  0  0  0  0  0
    9.6045   -5.6298   25.5962 H   0  0  0  0  0  0  0  0  0  0  0  0
    8.1790   -5.9427   24.5714 H   0  0  0  0  0  0  0  0  0  0  0  0
   10.4561    1.0772   24.1620 H   0  0  0  0  0  0  0  0  0  0  0  0
   10.8743    1.5008   22.5014 H   0  0  0  0  0  0  0  0  0  0  0  0
    8.0545   -1.6267   21.0593 H   0  0  0  0  0  0  0  0  0  0  0  0
  1  2  1  0  0  0  0
  1  3  2  0  0  0  0
  2  6  2  0  0  0  0
  3  7  1  0  0  0  0
  4  5  1  0  0  0  0
  4  8  2  0  0  0  0
  5  9  2  0  0  0  0
  6 15  1  0  0  0  0
  7 15  2  0  0  0  0
  8 16  1  0  0  0  0
  9 17  1  0  0  0  0
 10 12  2  0  0  0  0
 10 18  1  0  0  0  0
 11 13  1  0  0  0  0
 11 18  2  0  0  0  0
 12 19  1  0  0  0  0
 13 19  2  0  0  0  0
 14 23  2  0  0  0  0
 14 24  1  0  0  0  0
 15 22  1  0  0  0  0
 16 17  2  0  0  0  0
 16 23  1  0  0  0  0
 17 24  1  0  0  0  0
 18 26  1  0  0  0  0
 19 28  1  0  0  0  0
 20 25  1  0  0  0  0
 20 26  1  0  0  0  0
 20 27  2  0  0  0  0
 21 28  1  0  0  0  0
 22 26  1  0  0  0  0
 24 25  1  0  0  0  0
  1 29  1  0  0  0  0
  2 30  1  0  0  0  0
  3 31  1  0  0  0  0
  4 32  1  0  0  0  0
  5 33  1  0  0  0  0
  6 34  1  0  0  0  0
  7 35  1  0  0  0  0
  8 36  1  0  0  0  0
  9 37  1  0  0  0  0
 10 38  1  0  0  0  0
 11 39  1  0  0  0  0
 12 40  1  0  0  0  0
 13 41  1  0  0  0  0
 14 42  1  0  0  0  0
 21 43  1  0  0  0  0
 21 44  1  0  0  0  0
 21 45  1  0  0  0  0
 22 46  1  0  0  0  0
 22 47  1  0  0  0  0
 25 48  1  0  0  0  0
M  END
> <clash_score>
0

> <docking_score>
-9.682343482971191

> <overlap_score>
0.9154632091522217

$$$$
BENZO_44_1
  -OEChem-08222022433D

 45 48  0     0  0  0  0  0  0999 V2000
    3.8860    2.1050   19.5250 C   0  0  0  0  0  0  0  0  0  0  0  0
    4.2460    1.7520   20.8250 C   0  0  0  0  0  0  0  0  0  0  0  0
    4.6610    1.7170   18.4380 C   0  0  0  0  0  0  0  0  0  0  0  0
    5.3890    1.0010   21.0690 C   0  0  0  0  0  0  0  0  0  0  0  0
    9.5890   -2.4950   23.2210 C   0  0  0  0  0  0  0  0  0  0  0  0
    8.2550   -1.0010   24.5520 C   0  0  0  0  0  0  0  0  0  0  0  0
    9.1890   -3.5540   24.0140 C   0  0  0  0  0  0  0  0  0  0  0  0
    7.8700   -2.0610   25.3550 C   0  0  0  0  0  0  0  0  0  0  0  0
   12.5566   -0.8597   22.1860 C   0  0  0  0  0  0  0  0  0  0  0  0
   13.6839   -1.5596   22.5559 C   0  0  0  0  0  0  0  0  0  0  0  0
   12.6568   -0.3896   24.4600 C   0  0  0  0  0  0  0  0  0  0  0  0
    7.5840   -0.2700   18.5160 C   0  0  0  0  0  0  0  0  0  0  0  0
   11.9616   -0.1817   23.2889 C   0  0  0  0  0  0  0  0  0  0  0  0
    5.7970    0.9500   18.6730 C   0  0  0  0  0  0  0  0  0  0  0  0
    6.1460    0.6070   19.9750 C   0  0  0  0  0  0  0  0  0  0  0  0
    9.1280   -1.2090   23.4870 C   0  0  0  0  0  0  0  0  0  0  0  0
    8.3450   -3.3440   25.0980 C   0  0  0  0  0  0  0  0  0  0  0  0
    9.0430    0.2380   21.4940 C   0  0  0  0  0  0  0  0  0  0  0  0
    8.5124   -5.6656   25.5743 C   0  0  0  0  0  0  0  0  0  0  0  0
   10.7220    0.6590   23.1850 C   0  0  0  0  0  0  0  0  0  0  0  0
    6.7100    0.3850   17.8100 N   0  0  0  0  0  0  0  0  0  0  0  0
    7.2710   -0.1460   19.8310 N   0  0  0  0  0  0  0  0  0  0  0  0
    8.0950   -0.7700   20.8440 N   0  0  0  0  0  0  0  0  0  0  0  0
    9.5820   -0.1080   22.7000 N   0  0  0  0  0  0  0  0  0  0  0  0
    9.2950    1.3000   20.9480 O   0  0  0  0  0  0  0  0  0  0  0  0
    7.9864   -4.3799   25.8996 O   0  0  0  0  0  0  0  0  0  0  0  0
   14.0209   -1.3981   24.2270 S   0  0  0  0  0  0  0  0  0  0  0  0
    2.9844    2.6927   19.3613 H   0  0  0  0  0  0  0  0  0  0  0  0
    3.6214    2.0680   21.6561 H   0  0  0  0  0  0  0  0  0  0  0  0
    4.3780    2.0103   17.4276 H   0  0  0  0  0  0  0  0  0  0  0  0
    5.6758    0.7336   22.0897 H   0  0  0  0  0  0  0  0  0  0  0  0
   10.2678   -2.6746   22.3862 H   0  0  0  0  0  0  0  0  0  0  0  0
    7.8691   -0.0023   24.7606 H   0  0  0  0  0  0  0  0  0  0  0  0
    9.5404   -4.5633   23.7846 H   0  0  0  0  0  0  0  0  0  0  0  0
    7.1920   -1.8875   26.1914 H   0  0  0  0  0  0  0  0  0  0  0  0
   12.1799   -0.8381   21.1711 H   0  0  0  0  0  0  0  0  0  0  0  0
   14.3253   -2.1586   21.9250 H   0  0  0  0  0  0  0  0  0  0  0  0
   12.4317   -0.0004   25.4433 H   0  0  0  0  0  0  0  0  0  0  0  0
    8.4213   -0.8245   18.1548 H   0  0  0  0  0  0  0  0  0  0  0  0
    8.1469   -6.4024   26.2939 H   0  0  0  0  0  0  0  0  0  0  0  0
    9.6045   -5.6298   25.5962 H   0  0  0  0  0  0  0  0  0  0  0  0
    8.1790   -5.9427   24.5714 H   0  0  0  0  0  0  0  0  0  0  0  0
   10.4561    1.0772   24.1620 H   0  0  0  0  0  0  0  0  0  0  0  0
   10.8743    1.5008   22.5014 H   0  0  0  0  0  0  0  0  0  0  0  0
    8.0545   -1.6267   21.0593 H   0  0  0  0  0  0  0  0  0  0  0  0
  1  2  1  0  0  0  0
  1  3  2  0  0  0  0
  2  4  2  0  0  0  0
  3 14  1  0  0  0  0
  4 15  1  0  0  0  0
  5  7  2  0  0  0  0
  5 16  1  0  0  0  0
  6  8  1  0  0  0  0
  6 16  2  0  0  0  0
  7 17  1  0  0  0  0
  8 17  2  0  0  0  0
  9 10  2  0  0  0  0
  9 13  1  0  0  0  0
 10 27  1  0  0  0  0
 11 13  2  0  0  0  0
 11 27  1  0  0  0  0
 12 21  2  0  0  0  0
 12 22  1  0  0  0  0
 13 20  1  0  0  0  0
 14 15  2  0  0  0  0
 14 21  1  0  0  0  0
 15 22  1  0  0  0  0
 16 24  1  0  0  0  0
 17 26  1  0  0  0  0
 18 23  1  0  0  0  0
 18 24  1  0  0  0  0
 18 25  2  0  0  0  0
 19 26  1  0  0  0  0
 20 24  1  0  0  0  0
 22 23  1  0  0  0  0
  1 28  1  0  0  0  0
  2 29  1  0  0  0  0
  3 30  1  0  0  0  0
  4 31  1  0  0  0  0
  5 32  1  0  0  0  0
  6 33  1  0  0  0  0
  7 34  1  0  0  0  0
  8 35  1  0  0  0  0
  9 36  1  0  0  0  0
 10 37  1  0  0  0  0
 11 38  1  0  0  0  0
 12 39  1  0  0  0  0
 19 40  1  0  0  0  0
 19 41  1  0  0  0  0
 19 42  1  0  0  0  0
 20 43  1  0  0  0  0
 20 44  1  0  0  0  0
 23 45  1  0  0  0  0
M  END
> <clash_score>
0

> <docking_score>
-9.071046829223633

> <overlap_score>
0.9034124612808228

$$$$
BENZO_47_1
  -OEChem-08222022433D

 48 51  0     0  0  0  0  0  0999 V2000
    3.8860    2.1050   19.5250 C   0  0  0  0  0  0  0  0  0  0  0  0
    4.2460    1.7520   20.8250 C   0  0  0  0  0  0  0  0  0  0  0  0
    4.6610    1.7170   18.4380 C   0  0  0  0  0  0  0  0  0  0  0  0
    5.3890    1.0010   21.0690 C   0  0  0  0  0  0  0  0  0  0  0  0
    9.5890   -2.4950   23.2210 C   0  0  0  0  0  0  0  0  0  0  0  0
    8.2550   -1.0010   24.5520 C   0  0  0  0  0  0  0  0  0  0  0  0
    9.1890   -3.5540   24.0140 C   0  0  0  0  0  0  0  0  0  0  0  0
    7.8700   -2.0610   25.3550 C   0  0  0  0  0  0  0  0  0  0  0  0
   12.7320   -0.4464   24.4370 C   0  0  0  0  0  0  0  0  0  0  0  0
   12.5970   -0.8682   22.2832 C   0  0  0  0  0  0  0  0  0  0  0  0
    7.5840   -0.2700   18.5160 C   0  0  0  0  0  0  0  0  0  0  0  0
   11.9616   -0.1817   23.2889 C   0  0  0  0  0  0  0  0  0  0  0  0
    5.7970    0.9500   18.6730 C   0  0  0  0  0  0  0  0  0  0  0  0
    6.1460    0.6070   19.9750 C   0  0  0  0  0  0  0  0  0  0  0  0
    9.1280   -1.2090   23.4870 C   0  0  0  0  0  0  0  0  0  0  0  0
    8.3450   -3.3440   25.0980 C   0  0  0  0  0  0  0  0  0  0  0  0
    9.0430    0.2380   21.4940 C   0  0  0  0  0  0  0  0  0  0  0  0
   14.6393   -2.3180   22.2082 C   0  0  0  0  0  0  0  0  0  0  0  0
    8.5124   -5.6656   25.5743 C   0  0  0  0  0  0  0  0  0  0  0  0
   10.7220    0.6590   23.1850 C   0  0  0  0  0  0  0  0  0  0  0  0
   13.7770   -1.2393   24.1852 N   0  0  0  0  0  0  0  0  0  0  0  0
    6.7100    0.3850   17.8100 N   0  0  0  0  0  0  0  0  0  0  0  0
   13.6676   -1.4788   22.8673 N   0  0  0  0  0  0  0  0  0  0  0  0
    7.2710   -0.1460   19.8310 N   0  0  0  0  0  0  0  0  0  0  0  0
    8.0950   -0.7700   20.8440 N   0  0  0  0  0  0  0  0  0  0  0  0
    9.5820   -0.1080   22.7000 N   0  0  0  0  0  0  0  0  0  0  0  0
    9.2950    1.3000   20.9480 O   0  0  0  0  0  0  0  0  0  0  0  0
    7.9864   -4.3799   25.8996 O   0  0  0  0  0  0  0  0  0  0  0  0
    2.9844    2.6927   19.3613 H   0  0  0  0  0  0  0  0  0  0  0  0
    3.6214    2.0680   21.6561 H   0  0  0  0  0  0  0  0  0  0  0  0
    4.3780    2.0103   17.4276 H   0  0  0  0  0  0  0  0  0  0  0  0
    5.6758    0.7336   22.0897 H   0  0  0  0  0  0  0  0  0  0  0  0
   10.2678   -2.6746   22.3862 H   0  0  0  0  0  0  0  0  0  0  0  0
    7.8691   -0.0023   24.7606 H   0  0  0  0  0  0  0  0  0  0  0  0
    9.5404   -4.5633   23.7846 H   0  0  0  0  0  0  0  0  0  0  0  0
    7.1920   -1.8875   26.1914 H   0  0  0  0  0  0  0  0  0  0  0  0
   12.5771   -0.0965   25.4478 H   0  0  0  0  0  0  0  0  0  0  0  0
   12.3832   -0.9726   21.2281 H   0  0  0  0  0  0  0  0  0  0  0  0
    8.4213   -0.8245   18.1548 H   0  0  0  0  0  0  0  0  0  0  0  0
   15.4522   -1.6787   21.8540 H   0  0  0  0  0  0  0  0  0  0  0  0
   15.0179   -3.0612   22.9154 H   0  0  0  0  0  0  0  0  0  0  0  0
   14.1626   -2.8324   21.3691 H   0  0  0  0  0  0  0  0  0  0  0  0
    8.1469   -6.4024   26.2939 H   0  0  0  0  0  0  0  0  0  0  0  0
    9.6045   -5.6298   25.5962 H   0  0  0  0  0  0  0  0  0  0  0  0
    8.1790   -5.9427   24.5714 H   0  0  0  0  0  0  0  0  0  0  0  0
   10.4561    1.0772   24.1620 H   0  0  0  0  0  0  0  0  0  0  0  0
   10.8743    1.5008   22.5014 H   0  0  0  0  0  0  0  0  0  0  0  0
    8.0545   -1.6267   21.0593 H   0  0  0  0  0  0  0  0  0  0  0  0
  1  2  1  0  0  0  0
  1  3  2  0  0  0  0
  2  4  2  0  0  0  0
  3 13  1  0  0  0  0
  4 14  1  0  0  0  0
  5  7  2  0  0  0  0
  5 15  1  0  0  0  0
  6  8  1  0  0  0  0
  6 15  2  0  0  0  0
  7 16  1  0  0  0  0
  8 16  2  0  0  0  0
  9 12  1  0  0  0  0
  9 21  2  0  0  0  0
 10 12  2  0  0  0  0
 10 23  1  0  0  0  0
 11 22  2  0  0  0  0
 11 24  1  0  0  0  0
 12 20  1  0  0  0  0
 13 14  2  0  0  0  0
 13 22  1  0  0  0  0
 14 24  1  0  0  0  0
 15 26  1  0  0  0  0
 16 28  1  0  0  0  0
 17 25  1  0  0  0  0
 17 26  1  0  0  0  0
 17 27  2  0  0  0  0
 18 23  1  0  0  0  0
 19 28  1  0  0  0  0
 20 26  1  0  0  0  0
 21 23  1  0  0  0  0
 24 25  1  0  0  0  0
  1 29  1  0  0  0  0
  2 30  1  0  0  0  0
  3 31  1  0  0  0  0
  4 32  1  0  0  0  0
  5 33  1  0  0  0  0
  6 34  1  0  0  0  0
  7 35  1  0  0  0  0
  8 36  1  0  0  0  0
  9 37  1  0  0  0  0
 10 38  1  0  0  0  0
 11 39  1  0  0  0  0
 18 40  1  0  0  0  0
 18 41  1  0  0  0  0
 18 42  1  0  0  0  0
 19 43  1  0  0  0  0
 19 44  1  0  0  0  0
 19 45  1  0  0  0  0
 20 46  1  0  0  0  0
 20 47  1  0  0  0  0
 25 48  1  0  0  0  0
M  END
> <clash_score>
0

> <docking_score>
-7.872241497039795

> <overlap_score>
0.9186845421791077

$$$$
BENZO_46_1
  -OEChem-08222022433D

 48 51  0     0  0  0  0  0  0999 V2000
    3.8860    2.1050   19.5250 C   0  0  0  0  0  0  0  0  0  0  0  0
    4.2460    1.7520   20.8250 C   0  0  0  0  0  0  0  0  0  0  0  0
   13.7501   -1.1157   24.6176 C   0  0  0  0  0  0  0  0  0  0  0  0
   12.5991   -0.3339   24.5202 C   0  0  0  0  0  0  0  0  0  0  0  0
    4.6610    1.7170   18.4380 C   0  0  0  0  0  0  0  0  0  0  0  0
    5.3890    1.0010   21.0690 C   0  0  0  0  0  0  0  0  0  0  0  0
    9.5890   -2.4950   23.2210 C   0  0  0  0  0  0  0  0  0  0  0  0
    8.2550   -1.0010   24.5520 C   0  0  0  0  0  0  0  0  0  0  0  0
    9.1890   -3.5540   24.0140 C   0  0  0  0  0  0  0  0  0  0  0  0
    7.8700   -2.0610   25.3550 C   0  0  0  0  0  0  0  0  0  0  0  0
   14.2636   -1.7454   23.4838 C   0  0  0  0  0  0  0  0  0  0  0  0
   12.4750   -0.8115   22.1551 C   0  0  0  0  0  0  0  0  0  0  0  0
    7.5840   -0.2700   18.5160 C   0  0  0  0  0  0  0  0  0  0  0  0
   11.9616   -0.1817   23.2889 C   0  0  0  0  0  0  0  0  0  0  0  0
    5.7970    0.9500   18.6730 C   0  0  0  0  0  0  0  0  0  0  0  0
    6.1460    0.6070   19.9750 C   0  0  0  0  0  0  0  0  0  0  0  0
    9.1280   -1.2090   23.4870 C   0  0  0  0  0  0  0  0  0  0  0  0
    8.3450   -3.3440   25.0980 C   0  0  0  0  0  0  0  0  0  0  0  0
   13.6261   -1.5933   22.2526 C   0  0  0  0  0  0  0  0  0  0  0  0
    9.0430    0.2380   21.4940 C   0  0  0  0  0  0  0  0  0  0  0  0
    8.5124   -5.6656   25.5743 C   0  0  0  0  0  0  0  0  0  0  0  0
   10.7220    0.6590   23.1850 C   0  0  0  0  0  0  0  0  0  0  0  0
    6.7100    0.3850   17.8100 N   0  0  0  0  0  0  0  0  0  0  0  0
    7.2710   -0.1460   19.8310 N   0  0  0  0  0  0  0  0  0  0  0  0
    8.0950   -0.7700   20.8440 N   0  0  0  0  0  0  0  0  0  0  0  0
    9.5820   -0.1080   22.7000 N   0  0  0  0  0  0  0  0  0  0  0  0
    9.2950    1.3000   20.9480 O   0  0  0  0  0  0  0  0  0  0  0  0
    7.9864   -4.3799   25.8996 O   0  0  0  0  0  0  0  0  0  0  0  0
   14.2594   -2.3714   20.8543 Cl  0  0  0  0  0  0  0  0  0  0  0  0
    2.9844    2.6927   19.3613 H   0  0  0  0  0  0  0  0  0  0  0  0
    3.6214    2.0680   21.6561 H   0  0  0  0  0  0  0  0  0  0  0  0
   14.2462   -1.2340   25.5766 H   0  0  0  0  0  0  0  0  0  0  0  0
   12.2060    0.1530   25.4088 H   0  0  0  0  0  0  0  0  0  0  0  0
    4.3780    2.0103   17.4276 H   0  0  0  0  0  0  0  0  0  0  0  0
    5.6758    0.7336   22.0897 H   0  0  0  0  0  0  0  0  0  0  0  0
   10.2678   -2.6746   22.3862 H   0  0  0  0  0  0  0  0  0  0  0  0
    7.8691   -0.0023   24.7606 H   0  0  0  0  0  0  0  0  0  0  0  0
    9.5404   -4.5633   23.7846 H   0  0  0  0  0  0  0  0  0  0  0  0
    7.1920   -1.8875   26.1914 H   0  0  0  0  0  0  0  0  0  0  0  0
   15.1613   -2.3520   23.5747 H   0  0  0  0  0  0  0  0  0  0  0  0
   11.9745   -0.6893   21.1973 H   0  0  0  0  0  0  0  0  0  0  0  0
    8.4213   -0.8245   18.1548 H   0  0  0  0  0  0  0  0  0  0  0  0
    8.1469   -6.4024   26.2939 H   0  0  0  0  0  0  0  0  0  0  0  0
    9.6045   -5.6298   25.5962 H   0  0  0  0  0  0  0  0  0  0  0  0
    8.1790   -5.9427   24.5714 H   0  0  0  0  0  0  0  0  0  0  0  0
   10.4561    1.0772   24.1620 H   0  0  0  0  0  0  0  0  0  0  0  0
   10.8743    1.5008   22.5014 H   0  0  0  0  0  0  0  0  0  0  0  0
    8.0545   -1.6267   21.0593 H   0  0  0  0  0  0  0  0  0  0  0  0
  1  2  1  0  0  0  0
  1  5  2  0  0  0  0
  2  6  2  0  0  0  0
  3  4  2  0  0  0  0
  3 11  1  0  0  0  0
  4 14  1  0  0  0  0
  5 15  1  0  0  0  0
  6 16  1  0  0  0  0
  7  9  2  0  0  0  0
  7 17  1  0  0  0  0
  8 10  1  0  0  0  0
  8 17  2  0  0  0  0
  9 18  1  0  0  0  0
 10 18  2  0  0  0  0
 11 19  2  0  0  0  0
 12 14  2  0  0  0  0
 12 19  1  0  0  0  0
 13 23  2  0  0  0  0
 13 24  1  0  0  0  0
 14 22  1  0  0  0  0
 15 16  2  0  0  0  0
 15 23  1  0  0  0  0
 16 24  1  0  0  0  0
 17 26  1  0  0  0  0
 18 28  1  0  0  0  0
 19 29  1  0  0  0  0
 20 25  1  0  0  0  0
 20 26  1  0  0  0  0
 20 27  2  0  0  0  0
 21 28  1  0  0  0  0
 22 26  1  0  0  0  0
 24 25  1  0  0  0  0
  1 30  1  0  0  0  0
  2 31  1  0  0  0  0
  3 32  1  0  0  0  0
  4 33  1  0  0  0  0
  5 34  1  0  0  0  0
  6 35  1  0  0  0  0
  7 36  1  0  0  0  0
  8 37  1  0  0  0  0
  9 38  1  0  0  0  0
 10 39  1  0  0  0  0
 11 40  1  0  0  0  0
 12 41  1  0  0  0  0
 13 42  1  0  0  0  0
 21 43  1  0  0  0  0
 21 44  1  0  0  0  0
 21 45  1  0  0  0  0
 22 46  1  0  0  0  0
 22 47  1  0  0  0  0
 25 48  1  0  0  0  0
M  END
> <clash_score>
0

> <docking_score>
-8.63621711730957

> <overlap_score>
0.9233066439628601

$$$$
BENZO_49_1
  -OEChem-08222022433D

 58 62  0     0  0  0  0  0  0999 V2000
   14.2642   -1.7450   23.4813 C   0  0  0  0  0  0  0  0  0  0  0  0
   14.0779   -0.6681   24.3480 C   0  0  0  0  0  0  0  0  0  0  0  0
   13.2991   -2.0403   22.5184 C   0  0  0  0  0  0  0  0  0  0  0  0
    3.8860    2.1050   19.5250 C   0  0  0  0  0  0  0  0  0  0  0  0
    4.2460    1.7520   20.8250 C   0  0  0  0  0  0  0  0  0  0  0  0
   12.9266    0.1135   24.2518 C   0  0  0  0  0  0  0  0  0  0  0  0
   12.1478   -1.2587   22.4222 C   0  0  0  0  0  0  0  0  0  0  0  0
    4.6610    1.7170   18.4380 C   0  0  0  0  0  0  0  0  0  0  0  0
    5.3890    1.0010   21.0690 C   0  0  0  0  0  0  0  0  0  0  0  0
    9.1890   -3.5540   24.0140 C   0  0  0  0  0  0  0  0  0  0  0  0
    7.8700   -2.0610   25.3550 C   0  0  0  0  0  0  0  0  0  0  0  0
    9.5890   -2.4950   23.2210 C   0  0  0  0  0  0  0  0  0  0  0  0
    8.2550   -1.0010   24.5520 C   0  0  0  0  0  0  0  0  0  0  0  0
    7.5840   -0.2700   18.5160 C   0  0  0  0  0  0  0  0  0  0  0  0
   11.9616   -0.1817   23.2889 C   0  0  0  0  0  0  0  0  0  0  0  0
    5.7970    0.9500   18.6730 C   0  0  0  0  0  0  0  0  0  0  0  0
    6.1460    0.6070   19.9750 C   0  0  0  0  0  0  0  0  0  0  0  0
    8.3450   -3.3440   25.0980 C   0  0  0  0  0  0  0  0  0  0  0  0
    9.1280   -1.2090   23.4870 C   0  0  0  0  0  0  0  0  0  0  0  0
    7.8687   -5.7518   25.4384 C   0  0  0  0  0  0  0  0  0  0  0  0
    9.0430    0.2380   21.4940 C   0  0  0  0  0  0  0  0  0  0  0  0
    7.7614   -6.8724   26.4583 C   0  0  0  0  0  0  0  0  0  0  0  0
    7.0004   -6.5095   27.7148 C   0  0  0  0  0  0  0  0  0  0  0  0
    7.6035   -5.2531   28.3027 C   0  0  0  0  0  0  0  0  0  0  0  0
    7.4713   -4.1195   27.2996 C   0  0  0  0  0  0  0  0  0  0  0  0
   10.7220    0.6590   23.1850 C   0  0  0  0  0  0  0  0  0  0  0  0
    6.7100    0.3850   17.8100 N   0  0  0  0  0  0  0  0  0  0  0  0
    7.2710   -0.1460   19.8310 N   0  0  0  0  0  0  0  0  0  0  0  0
    7.9635   -4.4452   25.9501 N   0  0  0  0  0  0  0  0  0  0  0  0
    8.0950   -0.7700   20.8440 N   0  0  0  0  0  0  0  0  0  0  0  0
    9.5820   -0.1080   22.7000 N   0  0  0  0  0  0  0  0  0  0  0  0
    7.9246   -6.0590   24.2444 O   0  0  0  0  0  0  0  0  0  0  0  0
    9.2950    1.3000   20.9480 O   0  0  0  0  0  0  0  0  0  0  0  0
   15.1613   -2.3527   23.5555 H   0  0  0  0  0  0  0  0  0  0  0  0
   14.8297   -0.4373   25.0971 H   0  0  0  0  0  0  0  0  0  0  0  0
   13.4443   -2.8780   21.8427 H   0  0  0  0  0  0  0  0  0  0  0  0
    2.9844    2.6927   19.3613 H   0  0  0  0  0  0  0  0  0  0  0  0
    3.6214    2.0680   21.6561 H   0  0  0  0  0  0  0  0  0  0  0  0
   12.7899    0.9506   24.9315 H   0  0  0  0  0  0  0  0  0  0  0  0
   11.4013   -1.4963   21.6690 H   0  0  0  0  0  0  0  0  0  0  0  0
    4.3780    2.0103   17.4276 H   0  0  0  0  0  0  0  0  0  0  0  0
    5.6758    0.7336   22.0897 H   0  0  0  0  0  0  0  0  0  0  0  0
    9.5436   -4.5614   23.7799 H   0  0  0  0  0  0  0  0  0  0  0  0
    7.1918   -1.8823   26.1906 H   0  0  0  0  0  0  0  0  0  0  0  0
   10.2676   -2.6754   22.3861 H   0  0  0  0  0  0  0  0  0  0  0  0
    7.8686   -0.0026   24.7598 H   0  0  0  0  0  0  0  0  0  0  0  0
    8.4213   -0.8245   18.1548 H   0  0  0  0  0  0  0  0  0  0  0  0
    7.2713   -7.7257   25.9758 H   0  0  0  0  0  0  0  0  0  0  0  0
    8.7837   -7.1790   26.7111 H   0  0  0  0  0  0  0  0  0  0  0  0
    5.9406   -6.3476   27.4837 H   0  0  0  0  0  0  0  0  0  0  0  0
    7.0566   -7.3314   28.4368 H   0  0  0  0  0  0  0  0  0  0  0  0
    7.0858   -4.9863   29.2307 H   0  0  0  0  0  0  0  0  0  0  0  0
    8.6585   -5.4140   28.5554 H   0  0  0  0  0  0  0  0  0  0  0  0
    6.4149   -3.8417   27.1934 H   0  0  0  0  0  0  0  0  0  0  0  0
    8.0152   -3.2408   27.6666 H   0  0  0  0  0  0  0  0  0  0  0  0
   10.4561    1.0772   24.1620 H   0  0  0  0  0  0  0  0  0  0  0  0
   10.8743    1.5008   22.5014 H   0  0  0  0  0  0  0  0  0  0  0  0
    8.0897   -1.6082   21.0890 H   0  0  0  0  0  0  0  0  0  0  0  0
  1  2  1  0  0  0  0
  1  3  2  0  0  0  0
  2  6  2  0  0  0  0
  3  7  1  0  0  0  0
  4  5  1  0  0  0  0
  4  8  2  0  0  0  0
  5  9  2  0  0  0  0
  6 15  1  0  0  0  0
  7 15  2  0  0  0  0
  8 16  1  0  0  0  0
  9 17  1  0  0  0  0
 10 12  2  0  0  0  0
 10 18  1  0  0  0  0
 11 13  1  0  0  0  0
 11 18  2  0  0  0  0
 12 19  1  0  0  0  0
 13 19  2  0  0  0  0
 14 27  2  0  0  0  0
 14 28  1  0  0  0  0
 15 26  1  0  0  0  0
 16 17  2  0  0  0  0
 16 27  1  0  0  0  0
 17 28  1  0  0  0  0
 18 29  1  0  0  0  0
 19 31  1  0  0  0  0
 20 22  1  0  0  0  0
 20 29  1  0  0  0  0
 20 32  2  0  0  0  0
 21 30  1  0  0  0  0
 21 31  1  0  0  0  0
 21 33  2  0  0  0  0
 22 23  1  0  0  0  0
 23 24  1  0  0  0  0
 24 25  1  0  0  0  0
 25 29  1  0  0  0  0
 26 31  1  0  0  0  0
 28 30  1  0  0  0  0
  1 34  1  0  0  0  0
  2 35  1  0  0  0  0
  3 36  1  0  0  0  0
  4 37  1  0  0  0  0
  5 38  1  0  0  0  0
  6 39  1  0  0  0  0
  7 40  1  0  0  0  0
  8 41  1  0  0  0  0
  9 42  1  0  0  0  0
 10 43  1  0  0  0  0
 11 44  1  0  0  0  0
 12 45  1  0  0  0  0
 13 46  1  0  0  0  0
 14 47  1  0  0  0  0
 22 48  1  0  0  0  0
 22 49  1  0  0  0  0
 23 50  1  0  0  0  0
 23 51  1  0  0  0  0
 24 52  1  0  0  0  0
 24 53  1  0  0  0  0
 25 54  1  0  0  0  0
 25 55  1  0  0  0  0
 26 56  1  0  0  0  0
 26 57  1  0  0  0  0
 30 58  1  0  0  0  0
M  END
> <clash_score>
0

> <docking_score>
-8.518757820129395

> <overlap_score>
0.9891775846481323

$$$$
BENZO_48_1
  -OEChem-08222022433D

 55 59  0     0  0  0  0  0  0999 V2000
    3.8860    2.1050   19.5250 C   0  0  0  0  0  0  0  0  0  0  0  0
    4.2460    1.7520   20.8250 C   0  0  0  0  0  0  0  0  0  0  0  0
    4.6610    1.7170   18.4380 C   0  0  0  0  0  0  0  0  0  0  0  0
    5.3890    1.0010   21.0690 C   0  0  0  0  0  0  0  0  0  0  0  0
    9.1890   -3.5540   24.0140 C   0  0  0  0  0  0  0  0  0  0  0  0
    7.8700   -2.0610   25.3550 C   0  0  0  0  0  0  0  0  0  0  0  0
    9.5890   -2.4950   23.2210 C   0  0  0  0  0  0  0  0  0  0  0  0
    8.2550   -1.0010   24.5520 C   0  0  0  0  0  0  0  0  0  0  0  0
   12.6785   -0.3936   24.5018 C   0  0  0  0  0  0  0  0  0  0  0  0
   13.7775   -1.2037   24.3186 C   0  0  0  0  0  0  0  0  0  0  0  0
   12.5401   -0.8378   22.2246 C   0  0  0  0  0  0  0  0  0  0  0  0
    7.5840   -0.2700   18.5160 C   0  0  0  0  0  0  0  0  0  0  0  0
   11.9616   -0.1817   23.2889 C   0  0  0  0  0  0  0  0  0  0  0  0
    5.7970    0.9500   18.6730 C   0  0  0  0  0  0  0  0  0  0  0  0
    6.1460    0.6070   19.9750 C   0  0  0  0  0  0  0  0  0  0  0  0
    8.3450   -3.3440   25.0980 C   0  0  0  0  0  0  0  0  0  0  0  0
    9.1280   -1.2090   23.4870 C   0  0  0  0  0  0  0  0  0  0  0  0
    7.2752   -5.5548   25.4273 C   0  0  0  0  0  0  0  0  0  0  0  0
    9.0430    0.2380   21.4940 C   0  0  0  0  0  0  0  0  0  0  0  0
    7.1880   -6.7800   26.3209 C   0  0  0  0  0  0  0  0  0  0  0  0
    7.0916   -6.4753   27.7999 C   0  0  0  0  0  0  0  0  0  0  0  0
    8.2362   -5.5640   28.1841 C   0  0  0  0  0  0  0  0  0  0  0  0
    8.1240   -4.2655   27.4032 C   0  0  0  0  0  0  0  0  0  0  0  0
   10.7220    0.6590   23.1850 C   0  0  0  0  0  0  0  0  0  0  0  0
    6.7100    0.3850   17.8100 N   0  0  0  0  0  0  0  0  0  0  0  0
    7.2710   -0.1460   19.8310 N   0  0  0  0  0  0  0  0  0  0  0  0
    7.9635   -4.4452   25.9501 N   0  0  0  0  0  0  0  0  0  0  0  0
    8.0950   -0.7700   20.8440 N   0  0  0  0  0  0  0  0  0  0  0  0
    9.5820   -0.1080   22.7000 N   0  0  0  0  0  0  0  0  0  0  0  0
    6.7947   -5.6299   24.2931 O   0  0  0  0  0  0  0  0  0  0  0  0
    9.2950    1.3000   20.9480 O   0  0  0  0  0  0  0  0  0  0  0  0
   13.9416   -1.7050   22.6894 S   0  0  0  0  0  0  0  0  0  0  0  0
    2.9844    2.6927   19.3613 H   0  0  0  0  0  0  0  0  0  0  0  0
    3.6214    2.0680   21.6561 H   0  0  0  0  0  0  0  0  0  0  0  0
    4.3780    2.0103   17.4276 H   0  0  0  0  0  0  0  0  0  0  0  0
    5.6758    0.7336   22.0897 H   0  0  0  0  0  0  0  0  0  0  0  0
    9.5436   -4.5614   23.7799 H   0  0  0  0  0  0  0  0  0  0  0  0
    7.1918   -1.8823   26.1906 H   0  0  0  0  0  0  0  0  0  0  0  0
   10.2676   -2.6754   22.3861 H   0  0  0  0  0  0  0  0  0  0  0  0
    7.8686   -0.0026   24.7598 H   0  0  0  0  0  0  0  0  0  0  0  0
   12.4058    0.0253   25.4623 H   0  0  0  0  0  0  0  0  0  0  0  0
   14.4923   -1.5246   25.0631 H   0  0  0  0  0  0  0  0  0  0  0  0
   12.2108   -0.8511   21.1948 H   0  0  0  0  0  0  0  0  0  0  0  0
    8.4213   -0.8245   18.1548 H   0  0  0  0  0  0  0  0  0  0  0  0
    6.3101   -7.3613   26.0164 H   0  0  0  0  0  0  0  0  0  0  0  0
    8.0752   -7.3922   26.1183 H   0  0  0  0  0  0  0  0  0  0  0  0
    6.1328   -5.9938   28.0269 H   0  0  0  0  0  0  0  0  0  0  0  0
    7.1363   -7.4051   28.3772 H   0  0  0  0  0  0  0  0  0  0  0  0
    8.2035   -5.3520   29.2586 H   0  0  0  0  0  0  0  0  0  0  0  0
    9.1990   -6.0474   27.9788 H   0  0  0  0  0  0  0  0  0  0  0  0
    7.2505   -3.6996   27.7511 H   0  0  0  0  0  0  0  0  0  0  0  0
    9.0155   -3.6525   27.5824 H   0  0  0  0  0  0  0  0  0  0  0  0
   10.4561    1.0772   24.1620 H   0  0  0  0  0  0  0  0  0  0  0  0
   10.8743    1.5008   22.5014 H   0  0  0  0  0  0  0  0  0  0  0  0
    8.0897   -1.6082   21.0890 H   0  0  0  0  0  0  0  0  0  0  0  0
  1  2  1  0  0  0  0
  1  3  2  0  0  0  0
  2  4  2  0  0  0  0
  3 14  1  0  0  0  0
  4 15  1  0  0  0  0
  5  7  2  0  0  0  0
  5 16  1  0  0  0  0
  6  8  1  0  0  0  0
  6 16  2  0  0  0  0
  7 17  1  0  0  0  0
  8 17  2  0  0  0  0
  9 10  2  0  0  0  0
  9 13  1  0  0  0  0
 10 32  1  0  0  0  0
 11 13  2  0  0  0  0
 11 32  1  0  0  0  0
 12 25  2  0  0  0  0
 12 26  1  0  0  0  0
 13 24  1  0  0  0  0
 14 15  2  0  0  0  0
 14 25  1  0  0  0  0
 15 26  1  0  0  0  0
 16 27  1  0  0  0  0
 17 29  1  0  0  0  0
 18 20  1  0  0  0  0
 18 27  1  0  0  0  0
 18 30  2  0  0  0  0
 19 28  1  0  0  0  0
 19 29  1  0  0  0  0
 19 31  2  0  0  0  0
 20 21  1  0  0  0  0
 21 22  1  0  0  0  0
 22 23  1  0  0  0  0
 23 27  1  0  0  0  0
 24 29  1  0  0  0  0
 26 28  1  0  0  0  0
  1 33  1  0  0  0  0
  2 34  1  0  0  0  0
  3 35  1  0  0  0  0
  4 36  1  0  0  0  0
  5 37  1  0  0  0  0
  6 38  1  0  0  0  0
  7 39  1  0  0  0  0
  8 40  1  0  0  0  0
  9 41  1  0  0  0  0
 10 42  1  0  0  0  0
 11 43  1  0  0  0  0
 12 44  1  0  0  0  0
 20 45  1  0  0  0  0
 20 46  1  0  0  0  0
 21 47  1  0  0  0  0
 21 48  1  0  0  0  0
 22 49  1  0  0  0  0
 22 50  1  0  0  0  0
 23 51  1  0  0  0  0
 23 52  1  0  0  0  0
 24 53  1  0  0  0  0
 24 54  1  0  0  0  0
 28 55  1  0  0  0  0
M  END
> <clash_score>
0

> <docking_score>
-8.915899276733398

> <overlap_score>
0.9828841090202332

$$$$
BENZO_51_1
  -OEChem-08222022433D

 58 62  0     0  0  0  0  0  0999 V2000
    3.8860    2.1050   19.5250 C   0  0  0  0  0  0  0  0  0  0  0  0
    4.2460    1.7520   20.8250 C   0  0  0  0  0  0  0  0  0  0  0  0
    4.6610    1.7170   18.4380 C   0  0  0  0  0  0  0  0  0  0  0  0
    5.3890    1.0010   21.0690 C   0  0  0  0  0  0  0  0  0  0  0  0
    9.1890   -3.5540   24.0140 C   0  0  0  0  0  0  0  0  0  0  0  0
    7.8700   -2.0610   25.3550 C   0  0  0  0  0  0  0  0  0  0  0  0
    9.5890   -2.4950   23.2210 C   0  0  0  0  0  0  0  0  0  0  0  0
    8.2550   -1.0010   24.5520 C   0  0  0  0  0  0  0  0  0  0  0  0
   12.7320   -0.4464   24.4370 C   0  0  0  0  0  0  0  0  0  0  0  0
   12.5970   -0.8682   22.2832 C   0  0  0  0  0  0  0  0  0  0  0  0
    7.5840   -0.2700   18.5160 C   0  0  0  0  0  0  0  0  0  0  0  0
   11.9616   -0.1817   23.2889 C   0  0  0  0  0  0  0  0  0  0  0  0
    5.7970    0.9500   18.6730 C   0  0  0  0  0  0  0  0  0  0  0  0
    6.1460    0.6070   19.9750 C   0  0  0  0  0  0  0  0  0  0  0  0
    8.3450   -3.3440   25.0980 C   0  0  0  0  0  0  0  0  0  0  0  0
    9.1280   -1.2090   23.4870 C   0  0  0  0  0  0  0  0  0  0  0  0
    7.2752   -5.5548   25.4273 C   0  0  0  0  0  0  0  0  0  0  0  0
    9.0430    0.2380   21.4940 C   0  0  0  0  0  0  0  0  0  0  0  0
    7.1880   -6.7800   26.3209 C   0  0  0  0  0  0  0  0  0  0  0  0
    7.0916   -6.4753   27.7999 C   0  0  0  0  0  0  0  0  0  0  0  0
    8.2362   -5.5640   28.1841 C   0  0  0  0  0  0  0  0  0  0  0  0
    8.1240   -4.2655   27.4032 C   0  0  0  0  0  0  0  0  0  0  0  0
   14.6393   -2.3180   22.2082 C   0  0  0  0  0  0  0  0  0  0  0  0
   10.7220    0.6590   23.1850 C   0  0  0  0  0  0  0  0  0  0  0  0
   13.7770   -1.2393   24.1852 N   0  0  0  0  0  0  0  0  0  0  0  0
    6.7100    0.3850   17.8100 N   0  0  0  0  0  0  0  0  0  0  0  0
   13.6676   -1.4788   22.8673 N   0  0  0  0  0  0  0  0  0  0  0  0
    7.2710   -0.1460   19.8310 N   0  0  0  0  0  0  0  0  0  0  0  0
    7.9635   -4.4452   25.9501 N   0  0  0  0  0  0  0  0  0  0  0  0
    8.0950   -0.7700   20.8440 N   0  0  0  0  0  0  0  0  0  0  0  0
    9.5820   -0.1080   22.7000 N   0  0  0  0  0  0  0  0  0  0  0  0
    6.7947   -5.6299   24.2931 O   0  0  0  0  0  0  0  0  0  0  0  0
    9.2950    1.3000   20.9480 O   0  0  0  0  0  0  0  0  0  0  0  0
    2.9844    2.6927   19.3613 H   0  0  0  0  0  0  0  0  0  0  0  0
    3.6214    2.0680   21.6561 H   0  0  0  0  0  0  0  0  0  0  0  0
    4.3780    2.0103   17.4276 H   0  0  0  0  0  0  0  0  0  0  0  0
    5.6758    0.7336   22.0897 H   0  0  0  0  0  0  0  0  0  0  0  0
    9.5436   -4.5614   23.7799 H   0  0  0  0  0  0  0  0  0  0  0  0
    7.1918   -1.8823   26.1906 H   0  0  0  0  0  0  0  0  0  0  0  0
   10.2676   -2.6754   22.3861 H   0  0  0  0  0  0  0  0  0  0  0  0
    7.8686   -0.0026   24.7598 H   0  0  0  0  0  0  0  0  0  0  0  0
   12.5771   -0.0965   25.4478 H   0  0  0  0  0  0  0  0  0  0  0  0
   12.3832   -0.9726   21.2281 H   0  0  0  0  0  0  0  0  0  0  0  0
    8.4213   -0.8245   18.1548 H   0  0  0  0  0  0  0  0  0  0  0  0
    6.3101   -7.3613   26.0164 H   0  0  0  0  0  0  0  0  0  0  0  0
    8.0752   -7.3922   26.1183 H   0  0  0  0  0  0  0  0  0  0  0  0
    6.1328   -5.9938   28.0269 H   0  0  0  0  0  0  0  0  0  0  0  0
    7.1363   -7.4051   28.3772 H   0  0  0  0  0  0  0  0  0  0  0  0
    8.2035   -5.3520   29.2586 H   0  0  0  0  0  0  0  0  0  0  0  0
    9.1990   -6.0474   27.9788 H   0  0  0  0  0  0  0  0  0  0  0  0
    7.2505   -3.6996   27.7511 H   0  0  0  0  0  0  0  0  0  0  0  0
    9.0155   -3.6525   27.5824 H   0  0  0  0  0  0  0  0  0  0  0  0
   15.4522   -1.6787   21.8540 H   0  0  0  0  0  0  0  0  0  0  0  0
   15.0179   -3.0612   22.9154 H   0  0  0  0  0  0  0  0  0  0  0  0
   14.1626   -2.8324   21.3691 H   0  0  0  0  0  0  0  0  0  0  0  0
   10.4561    1.0772   24.1620 H   0  0  0  0  0  0  0  0  0  0  0  0
   10.8743    1.5008   22.5014 H   0  0  0  0  0  0  0  0  0  0  0  0
    8.0897   -1.6082   21.0890 H   0  0  0  0  0  0  0  0  0  0  0  0
  1  2  1  0  0  0  0
  1  3  2  0  0  0  0
  2  4  2  0  0  0  0
  3 13  1  0  0  0  0
  4 14  1  0  0  0  0
  5  7  2  0  0  0  0
  5 15  1  0  0  0  0
  6  8  1  0  0  0  0
  6 15  2  0  0  0  0
  7 16  1  0  0  0  0
  8 16  2  0  0  0  0
  9 12  1  0  0  0  0
  9 25  2  0  0  0  0
 10 12  2  0  0  0  0
 10 27  1  0  0  0  0
 11 26  2  0  0  0  0
 11 28  1  0  0  0  0
 12 24  1  0  0  0  0
 13 14  2  0  0  0  0
 13 26  1  0  0  0  0
 14 28  1  0  0  0  0
 15 29  1  0  0  0  0
 16 31  1  0  0  0  0
 17 19  1  0  0  0  0
 17 29  1  0  0  0  0
 17 32  2  0  0  0  0
 18 30  1  0  0  0  0
 18 31  1  0  0  0  0
 18 33  2  0  0  0  0
 19 20  1  0  0  0  0
 20 21  1  0  0  0  0
 21 22  1  0  0  0  0
 22 29  1  0  0  0  0
 23 27  1  0  0  0  0
 24 31  1  0  0  0  0
 25 27  1  0  0  0  0
 28 30  1  0  0  0  0
  1 34  1  0  0  0  0
  2 35  1  0  0  0  0
  3 36  1  0  0  0  0
  4 37  1  0  0  0  0
  5 38  1  0  0  0  0
  6 39  1  0  0  0  0
  7 40  1  0  0  0  0
  8 41  1  0  0  0  0
  9 42  1  0  0  0  0
 10 43  1  0  0  0  0
 11 44  1  0  0  0  0
 19 45  1  0  0  0  0
 19 46  1  0  0  0  0
 20 47  1  0  0  0  0
 20 48  1  0  0  0  0
 21 49  1  0  0  0  0
 21 50  1  0  0  0  0
 22 51  1  0  0  0  0
 22 52  1  0  0  0  0
 23 53  1  0  0  0  0
 23 54  1  0  0  0  0
 23 55  1  0  0  0  0
 24 56  1  0  0  0  0
 24 57  1  0  0  0  0
 30 58  1  0  0  0  0
M  END
> <clash_score>
0

> <docking_score>
-7.665119171142578

> <overlap_score>
0.9994744658470154

$$$$
BENZO_50_1
  -OEChem-08222022433D

 58 62  0     0  0  0  0  0  0999 V2000
    3.8860    2.1050   19.5250 C   0  0  0  0  0  0  0  0  0  0  0  0
    4.2460    1.7520   20.8250 C   0  0  0  0  0  0  0  0  0  0  0  0
   13.7501   -1.1157   24.6176 C   0  0  0  0  0  0  0  0  0  0  0  0
   12.5991   -0.3339   24.5202 C   0  0  0  0  0  0  0  0  0  0  0  0
    4.6610    1.7170   18.4380 C   0  0  0  0  0  0  0  0  0  0  0  0
    5.3890    1.0010   21.0690 C   0  0  0  0  0  0  0  0  0  0  0  0
    9.1890   -3.5540   24.0140 C   0  0  0  0  0  0  0  0  0  0  0  0
    7.8700   -2.0610   25.3550 C   0  0  0  0  0  0  0  0  0  0  0  0
    9.5890   -2.4950   23.2210 C   0  0  0  0  0  0  0  0  0  0  0  0
    8.2550   -1.0010   24.5520 C   0  0  0  0  0  0  0  0  0  0  0  0
   14.2636   -1.7454   23.4838 C   0  0  0  0  0  0  0  0  0  0  0  0
   12.4750   -0.8115   22.1551 C   0  0  0  0  0  0  0  0  0  0  0  0
    7.5840   -0.2700   18.5160 C   0  0  0  0  0  0  0  0  0  0  0  0
   11.9616   -0.1817   23.2889 C   0  0  0  0  0  0  0  0  0  0  0  0
    5.7970    0.9500   18.6730 C   0  0  0  0  0  0  0  0  0  0  0  0
    6.1460    0.6070   19.9750 C   0  0  0  0  0  0  0  0  0  0  0  0
    8.3450   -3.3440   25.0980 C   0  0  0  0  0  0  0  0  0  0  0  0
    9.1280   -1.2090   23.4870 C   0  0  0  0  0  0  0  0  0  0  0  0
   13.6260   -1.5933   22.2526 C   0  0  0  0  0  0  0  0  0  0  0  0
    7.2757   -5.5631   25.4492 C   0  0  0  0  0  0  0  0  0  0  0  0
    9.0430    0.2380   21.4940 C   0  0  0  0  0  0  0  0  0  0  0  0
    6.9626   -6.6001   26.5133 C   0  0  0  0  0  0  0  0  0  0  0  0
    6.3765   -5.9422   27.7501 C   0  0  0  0  0  0  0  0  0  0  0  0
    7.2660   -4.8258   28.2881 C   0  0  0  0  0  0  0  0  0  0  0  0
    8.4098   -4.4623   27.3426 C   0  0  0  0  0  0  0  0  0  0  0  0
   10.7220    0.6590   23.1850 C   0  0  0  0  0  0  0  0  0  0  0  0
    6.7100    0.3850   17.8100 N   0  0  0  0  0  0  0  0  0  0  0  0
    7.2710   -0.1460   19.8310 N   0  0  0  0  0  0  0  0  0  0  0  0
    7.9658   -4.4384   25.9449 N   0  0  0  0  0  0  0  0  0  0  0  0
    8.0950   -0.7700   20.8440 N   0  0  0  0  0  0  0  0  0  0  0  0
    9.5820   -0.1080   22.7000 N   0  0  0  0  0  0  0  0  0  0  0  0
    6.9858   -5.7908   24.2753 O   0  0  0  0  0  0  0  0  0  0  0  0
    9.2950    1.3000   20.9480 O   0  0  0  0  0  0  0  0  0  0  0  0
   14.2594   -2.3714   20.8543 Cl  0  0  0  0  0  0  0  0  0  0  0  0
    2.9844    2.6927   19.3613 H   0  0  0  0  0  0  0  0  0  0  0  0
    3.6214    2.0680   21.6561 H   0  0  0  0  0  0  0  0  0  0  0  0
   14.2462   -1.2340   25.5766 H   0  0  0  0  0  0  0  0  0  0  0  0
   12.2060    0.1530   25.4088 H   0  0  0  0  0  0  0  0  0  0  0  0
    4.3780    2.0103   17.4276 H   0  0  0  0  0  0  0  0  0  0  0  0
    5.6758    0.7335   22.0897 H   0  0  0  0  0  0  0  0  0  0  0  0
    9.5436   -4.5614   23.7799 H   0  0  0  0  0  0  0  0  0  0  0  0
    7.1918   -1.8823   26.1906 H   0  0  0  0  0  0  0  0  0  0  0  0
   10.2676   -2.6754   22.3861 H   0  0  0  0  0  0  0  0  0  0  0  0
    7.8686   -0.0026   24.7598 H   0  0  0  0  0  0  0  0  0  0  0  0
   15.1613   -2.3520   23.5747 H   0  0  0  0  0  0  0  0  0  0  0  0
   11.9745   -0.6893   21.1973 H   0  0  0  0  0  0  0  0  0  0  0  0
    8.4213   -0.8245   18.1548 H   0  0  0  0  0  0  0  0  0  0  0  0
    6.2500   -7.3027   26.1097 H   0  0  0  0  0  0  0  0  0  0  0  0
    7.8838   -7.1078   26.7574 H   0  0  0  0  0  0  0  0  0  0  0  0
    5.3690   -5.5364   27.5214 H   0  0  0  0  0  0  0  0  0  0  0  0
    6.2178   -6.7054   28.5384 H   0  0  0  0  0  0  0  0  0  0  0  0
    6.6498   -3.9225   28.4807 H   0  0  0  0  0  0  0  0  0  0  0  0
    7.6764   -5.1138   29.2803 H   0  0  0  0  0  0  0  0  0  0  0  0
    8.7796   -3.4700   27.5826 H   0  0  0  0  0  0  0  0  0  0  0  0
    9.2112   -5.1853   27.4497 H   0  0  0  0  0  0  0  0  0  0  0  0
   10.4561    1.0772   24.1620 H   0  0  0  0  0  0  0  0  0  0  0  0
   10.8743    1.5008   22.5014 H   0  0  0  0  0  0  0  0  0  0  0  0
    8.0897   -1.6082   21.0890 H   0  0  0  0  0  0  0  0  0  0  0  0
  1  2  1  0  0  0  0
  1  5  2  0  0  0  0
  2  6  2  0  0  0  0
  3  4  2  0  0  0  0
  3 11  1  0  0  0  0
  4 14  1  0  0  0  0
  5 15  1  0  0  0  0
  6 16  1  0  0  0  0
  7  9  2  0  0  0  0
  7 17  1  0  0  0  0
  8 10  1  0  0  0  0
  8 17  2  0  0  0  0
  9 18  1  0  0  0  0
 10 18  2  0  0  0  0
 11 19  2  0  0  0  0
 12 14  2  0  0  0  0
 12 19  1  0  0  0  0
 13 27  2  0  0  0  0
 13 28  1  0  0  0  0
 14 26  1  0  0  0  0
 15 16  2  0  0  0  0
 15 27  1  0  0  0  0
 16 28  1  0  0  0  0
 17 29  1  0  0  0  0
 18 31  1  0  0  0  0
 19 34  1  0  0  0  0
 20 22  1  0  0  0  0
 20 29  1  0  0  0  0
 20 32  2  0  0  0  0
 21 30  1  0  0  0  0
 21 31  1  0  0  0  0
 21 33  2  0  0  0  0
 22 23  1  0  0  0  0
 23 24  1  0  0  0  0
 24 25  1  0  0  0  0
 25 29  1  0  0  0  0
 26 31  1  0  0  0  0
 28 30  1  0  0  0  0
  1 35  1  0  0  0  0
  2 36  1  0  0  0  0
  3 37  1  0  0  0  0
  4 38  1  0  0  0  0
  5 39  1  0  0  0  0
  6 40  1  0  0  0  0
  7 41  1  0  0  0  0
  8 42  1  0  0  0  0
  9 43  1  0  0  0  0
 10 44  1  0  0  0  0
 11 45  1  0  0  0  0
 12 46  1  0  0  0  0
 13 47  1  0  0  0  0
 22 48  1  0  0  0  0
 22 49  1  0  0  0  0
 23 50  1  0  0  0  0
 23 51  1  0  0  0  0
 24 52  1  0  0  0  0
 24 53  1  0  0  0  0
 25 54  1  0  0  0  0
 25 55  1  0  0  0  0
 26 56  1  0  0  0  0
 26 57  1  0  0  0  0
 30 58  1  0  0  0  0
M  END
> <clash_score>
0

> <docking_score>
-8.508535385131836

> <overlap_score>
0.9984303712844849

$$$$
BENZO_53_1
  -OEChem-08222022433D

 57 61  0     0  0  0  0  0  0999 V2000
   14.2641   -1.7450   23.4813 C   0  0  0  0  0  0  0  0  0  0  0  0
   14.0779   -0.6681   24.3480 C   0  0  0  0  0  0  0  0  0  0  0  0
   13.2991   -2.0403   22.5184 C   0  0  0  0  0  0  0  0  0  0  0  0
    3.8860    2.1050   19.5250 C   0  0  0  0  0  0  0  0  0  0  0  0
    4.2460    1.7520   20.8250 C   0  0  0  0  0  0  0  0  0  0  0  0
   12.9266    0.1135   24.2518 C   0  0  0  0  0  0  0  0  0  0  0  0
   12.1478   -1.2587   22.4222 C   0  0  0  0  0  0  0  0  0  0  0  0
    4.6610    1.7170   18.4380 C   0  0  0  0  0  0  0  0  0  0  0  0
    5.3890    1.0010   21.0690 C   0  0  0  0  0  0  0  0  0  0  0  0
    9.1890   -3.5540   24.0140 C   0  0  0  0  0  0  0  0  0  0  0  0
    7.8700   -2.0610   25.3550 C   0  0  0  0  0  0  0  0  0  0  0  0
    9.5890   -2.4950   23.2210 C   0  0  0  0  0  0  0  0  0  0  0  0
    8.2550   -1.0010   24.5520 C   0  0  0  0  0  0  0  0  0  0  0  0
    7.5840   -0.2700   18.5160 C   0  0  0  0  0  0  0  0  0  0  0  0
   11.9616   -0.1817   23.2889 C   0  0  0  0  0  0  0  0  0  0  0  0
    5.7970    0.9500   18.6730 C   0  0  0  0  0  0  0  0  0  0  0  0
    6.1460    0.6070   19.9750 C   0  0  0  0  0  0  0  0  0  0  0  0
    8.3450   -3.3440   25.0980 C   0  0  0  0  0  0  0  0  0  0  0  0
    9.1280   -1.2090   23.4870 C   0  0  0  0  0  0  0  0  0  0  0  0
    9.0430    0.2380   21.4940 C   0  0  0  0  0  0  0  0  0  0  0  0
    7.2567   -5.5373   25.3128 C   0  0  0  0  0  0  0  0  0  0  0  0
    7.6783   -4.1701   27.3375 C   0  0  0  0  0  0  0  0  0  0  0  0
    7.3927   -6.7710   26.1978 C   0  0  0  0  0  0  0  0  0  0  0  0
    7.7912   -5.4770   28.1147 C   0  0  0  0  0  0  0  0  0  0  0  0
   10.7220    0.6590   23.1850 C   0  0  0  0  0  0  0  0  0  0  0  0
    6.7100    0.3850   17.8100 N   0  0  0  0  0  0  0  0  0  0  0  0
    7.2710   -0.1460   19.8310 N   0  0  0  0  0  0  0  0  0  0  0  0
    7.9750   -4.4088   25.9208 N   0  0  0  0  0  0  0  0  0  0  0  0
    8.0950   -0.7700   20.8440 N   0  0  0  0  0  0  0  0  0  0  0  0
    9.5820   -0.1080   22.7000 N   0  0  0  0  0  0  0  0  0  0  0  0
    9.2950    1.3000   20.9480 O   0  0  0  0  0  0  0  0  0  0  0  0
    6.9636   -6.4808   27.5280 O   0  0  0  0  0  0  0  0  0  0  0  0
   15.1613   -2.3527   23.5555 H   0  0  0  0  0  0  0  0  0  0  0  0
   14.8297   -0.4373   25.0971 H   0  0  0  0  0  0  0  0  0  0  0  0
   13.4443   -2.8780   21.8427 H   0  0  0  0  0  0  0  0  0  0  0  0
    2.9844    2.6927   19.3613 H   0  0  0  0  0  0  0  0  0  0  0  0
    3.6214    2.0680   21.6561 H   0  0  0  0  0  0  0  0  0  0  0  0
   12.7899    0.9506   24.9315 H   0  0  0  0  0  0  0  0  0  0  0  0
   11.4013   -1.4963   21.6690 H   0  0  0  0  0  0  0  0  0  0  0  0
    4.3780    2.0103   17.4276 H   0  0  0  0  0  0  0  0  0  0  0  0
    5.6758    0.7336   22.0897 H   0  0  0  0  0  0  0  0  0  0  0  0
    9.5426   -4.5618   23.7797 H   0  0  0  0  0  0  0  0  0  0  0  0
    7.1914   -1.8824   26.1903 H   0  0  0  0  0  0  0  0  0  0  0  0
   10.2669   -2.6745   22.3854 H   0  0  0  0  0  0  0  0  0  0  0  0
    7.8690   -0.0020   24.7587 H   0  0  0  0  0  0  0  0  0  0  0  0
    8.4213   -0.8245   18.1548 H   0  0  0  0  0  0  0  0  0  0  0  0
    7.6535   -5.7575   24.3148 H   0  0  0  0  0  0  0  0  0  0  0  0
    6.1962   -5.2737   25.2113 H   0  0  0  0  0  0  0  0  0  0  0  0
    6.6579   -3.7759   27.4290 H   0  0  0  0  0  0  0  0  0  0  0  0
    8.3696   -3.4320   27.7610 H   0  0  0  0  0  0  0  0  0  0  0  0
    6.7582   -7.5752   25.8116 H   0  0  0  0  0  0  0  0  0  0  0  0
    8.4238   -7.1441   26.2130 H   0  0  0  0  0  0  0  0  0  0  0  0
    8.8287   -5.8300   28.1600 H   0  0  0  0  0  0  0  0  0  0  0  0
    7.4508   -5.3250   29.1440 H   0  0  0  0  0  0  0  0  0  0  0  0
   10.4561    1.0772   24.1620 H   0  0  0  0  0  0  0  0  0  0  0  0
   10.8743    1.5008   22.5014 H   0  0  0  0  0  0  0  0  0  0  0  0
    8.0897   -1.6082   21.0890 H   0  0  0  0  0  0  0  0  0  0  0  0
  1  2  1  0  0  0  0
  1  3  2  0  0  0  0
  2  6  2  0  0  0  0
  3  7  1  0  0  0  0
  4  5  1  0  0  0  0
  4  8  2  0  0  0  0
  5  9  2  0  0  0  0
  6 15  1  0  0  0  0
  7 15  2  0  0  0  0
  8 16  1  0  0  0  0
  9 17  1  0  0  0  0
 10 12  2  0  0  0  0
 10 18  1  0  0  0  0
 11 13  1  0  0  0  0
 11 18  2  0  0  0  0
 12 19  1  0  0  0  0
 13 19  2  0  0  0  0
 14 26  2  0  0  0  0
 14 27  1  0  0  0  0
 15 25  1  0  0  0  0
 16 17  2  0  0  0  0
 16 26  1  0  0  0  0
 17 27  1  0  0  0  0
 18 28  1  0  0  0  0
 19 30  1  0  0  0  0
 20 29  1  0  0  0  0
 20 30  1  0  0  0  0
 20 31  2  0  0  0  0
 21 23  1  0  0  0  0
 21 28  1  0  0  0  0
 22 24  1  0  0  0  0
 22 28  1  0  0  0  0
 23 32  1  0  0  0  0
 24 32  1  0  0  0  0
 25 30  1  0  0  0  0
 27 29  1  0  0  0  0
  1 33  1  0  0  0  0
  2 34  1  0  0  0  0
  3 35  1  0  0  0  0
  4 36  1  0  0  0  0
  5 37  1  0  0  0  0
  6 38  1  0  0  0  0
  7 39  1  0  0  0  0
  8 40  1  0  0  0  0
  9 41  1  0  0  0  0
 10 42  1  0  0  0  0
 11 43  1  0  0  0  0
 12 44  1  0  0  0  0
 13 45  1  0  0  0  0
 14 46  1  0  0  0  0
 21 47  1  0  0  0  0
 21 48  1  0  0  0  0
 22 49  1  0  0  0  0
 22 50  1  0  0  0  0
 23 51  1  0  0  0  0
 23 52  1  0  0  0  0
 24 53  1  0  0  0  0
 24 54  1  0  0  0  0
 25 55  1  0  0  0  0
 25 56  1  0  0  0  0
 29 57  1  0  0  0  0
M  END
> <clash_score>
0

> <docking_score>
-9.778977394104004

> <overlap_score>
0.9890321493148804

$$$$
BENZO_52_1
  -OEChem-08222022433D

 54 58  0     0  0  0  0  0  0999 V2000
    3.8860    2.1050   19.5250 C   0  0  0  0  0  0  0  0  0  0  0  0
    4.2460    1.7520   20.8250 C   0  0  0  0  0  0  0  0  0  0  0  0
    4.6610    1.7170   18.4380 C   0  0  0  0  0  0  0  0  0  0  0  0
    5.3890    1.0010   21.0690 C   0  0  0  0  0  0  0  0  0  0  0  0
    9.1890   -3.5540   24.0140 C   0  0  0  0  0  0  0  0  0  0  0  0
    7.8700   -2.0610   25.3550 C   0  0  0  0  0  0  0  0  0  0  0  0
    9.5890   -2.4950   23.2210 C   0  0  0  0  0  0  0  0  0  0  0  0
    8.2550   -1.0010   24.5520 C   0  0  0  0  0  0  0  0  0  0  0  0
   12.6785   -0.3936   24.5018 C   0  0  0  0  0  0  0  0  0  0  0  0
   13.7775   -1.2037   24.3186 C   0  0  0  0  0  0  0  0  0  0  0  0
   12.5401   -0.8378   22.2246 C   0  0  0  0  0  0  0  0  0  0  0  0
    7.5840   -0.2700   18.5160 C   0  0  0  0  0  0  0  0  0  0  0  0
   11.9616   -0.1817   23.2889 C   0  0  0  0  0  0  0  0  0  0  0  0
    5.7970    0.9500   18.6730 C   0  0  0  0  0  0  0  0  0  0  0  0
    6.1460    0.6070   19.9750 C   0  0  0  0  0  0  0  0  0  0  0  0
    8.3450   -3.3440   25.0980 C   0  0  0  0  0  0  0  0  0  0  0  0
    9.1280   -1.2090   23.4870 C   0  0  0  0  0  0  0  0  0  0  0  0
    9.0430    0.2380   21.4940 C   0  0  0  0  0  0  0  0  0  0  0  0
    8.9524   -5.2012   26.6600 C   0  0  0  0  0  0  0  0  0  0  0  0
    6.6112   -4.5068   26.4379 C   0  0  0  0  0  0  0  0  0  0  0  0
    8.9037   -4.7845   28.1261 C   0  0  0  0  0  0  0  0  0  0  0  0
    6.6374   -4.1243   27.9184 C   0  0  0  0  0  0  0  0  0  0  0  0
   10.7220    0.6590   23.1850 C   0  0  0  0  0  0  0  0  0  0  0  0
    6.7100    0.3850   17.8100 N   0  0  0  0  0  0  0  0  0  0  0  0
    7.2710   -0.1460   19.8310 N   0  0  0  0  0  0  0  0  0  0  0  0
    7.9775   -4.4014   25.9151 N   0  0  0  0  0  0  0  0  0  0  0  0
    8.0950   -0.7700   20.8440 N   0  0  0  0  0  0  0  0  0  0  0  0
    9.5820   -0.1080   22.7000 N   0  0  0  0  0  0  0  0  0  0  0  0
    9.2950    1.3000   20.9480 O   0  0  0  0  0  0  0  0  0  0  0  0
    7.5729   -4.9391   28.6338 O   0  0  0  0  0  0  0  0  0  0  0  0
   13.9416   -1.7050   22.6894 S   0  0  0  0  0  0  0  0  0  0  0  0
    2.9844    2.6927   19.3613 H   0  0  0  0  0  0  0  0  0  0  0  0
    3.6214    2.0680   21.6561 H   0  0  0  0  0  0  0  0  0  0  0  0
    4.3780    2.0103   17.4276 H   0  0  0  0  0  0  0  0  0  0  0  0
    5.6758    0.7336   22.0897 H   0  0  0  0  0  0  0  0  0  0  0  0
    9.5426   -4.5618   23.7797 H   0  0  0  0  0  0  0  0  0  0  0  0
    7.1914   -1.8824   26.1903 H   0  0  0  0  0  0  0  0  0  0  0  0
   10.2669   -2.6745   22.3854 H   0  0  0  0  0  0  0  0  0  0  0  0
    7.8690   -0.0020   24.7587 H   0  0  0  0  0  0  0  0  0  0  0  0
   12.4058    0.0253   25.4623 H   0  0  0  0  0  0  0  0  0  0  0  0
   14.4923   -1.5246   25.0631 H   0  0  0  0  0  0  0  0  0  0  0  0
   12.2108   -0.8511   21.1948 H   0  0  0  0  0  0  0  0  0  0  0  0
    8.4213   -0.8245   18.1548 H   0  0  0  0  0  0  0  0  0  0  0  0
    9.9615   -5.0500   26.2711 H   0  0  0  0  0  0  0  0  0  0  0  0
    8.6935   -6.2597   26.5720 H   0  0  0  0  0  0  0  0  0  0  0  0
    6.2628   -5.5350   26.3330 H   0  0  0  0  0  0  0  0  0  0  0  0
    5.9347   -3.8423   25.9023 H   0  0  0  0  0  0  0  0  0  0  0  0
    9.5597   -5.4275   28.7166 H   0  0  0  0  0  0  0  0  0  0  0  0
    9.2344   -3.7511   28.2636 H   0  0  0  0  0  0  0  0  0  0  0  0
    6.8874   -3.0657   28.0553 H   0  0  0  0  0  0  0  0  0  0  0  0
    5.6495   -4.2893   28.3591 H   0  0  0  0  0  0  0  0  0  0  0  0
   10.4561    1.0772   24.1620 H   0  0  0  0  0  0  0  0  0  0  0  0
   10.8743    1.5008   22.5014 H   0  0  0  0  0  0  0  0  0  0  0  0
    8.0897   -1.6082   21.0890 H   0  0  0  0  0  0  0  0  0  0  0  0
  1  2  1  0  0  0  0
  1  3  2  0  0  0  0
  2  4  2  0  0  0  0
  3 14  1  0  0  0  0
  4 15  1  0  0  0  0
  5  7  2  0  0  0  0
  5 16  1  0  0  0  0
  6  8  1  0  0  0  0
  6 16  2  0  0  0  0
  7 17  1  0  0  0  0
  8 17  2  0  0  0  0
  9 10  2  0  0  0  0
  9 13  1  0  0  0  0
 10 31  1  0  0  0  0
 11 13  2  0  0  0  0
 11 31  1  0  0  0  0
 12 24  2  0  0  0  0
 12 25  1  0  0  0  0
 13 23  1  0  0  0  0
 14 15  2  0  0  0  0
 14 24  1  0  0  0  0
 15 25  1  0  0  0  0
 16 26  1  0  0  0  0
 17 28  1  0  0  0  0
 18 27  1  0  0  0  0
 18 28  1  0  0  0  0
 18 29  2  0  0  0  0
 19 21  1  0  0  0  0
 19 26  1  0  0  0  0
 20 22  1  0  0  0  0
 20 26  1  0  0  0  0
 21 30  1  0  0  0  0
 22 30  1  0  0  0  0
 23 28  1  0  0  0  0
 25 27  1  0  0  0  0
  1 32  1  0  0  0  0
  2 33  1  0  0  0  0
  3 34  1  0  0  0  0
  4 35  1  0  0  0  0
  5 36  1  0  0  0  0
  6 37  1  0  0  0  0
  7 38  1  0  0  0  0
  8 39  1  0  0  0  0
  9 40  1  0  0  0  0
 10 41  1  0  0  0  0
 11 42  1  0  0  0  0
 12 43  1  0  0  0  0
 19 44  1  0  0  0  0
 19 45  1  0  0  0  0
 20 46  1  0  0  0  0
 20 47  1  0  0  0  0
 21 48  1  0  0  0  0
 21 49  1  0  0  0  0
 22 50  1  0  0  0  0
 22 51  1  0  0  0  0
 23 52  1  0  0  0  0
 23 53  1  0  0  0  0
 27 54  1  0  0  0  0
M  END
> <clash_score>
0

> <docking_score>
-10.053497314453125

> <overlap_score>
0.9805795550346375

$$$$
BENZO_57_1
  -OEChem-08222022433D

 52 55  0     0  0  0  0  0  0999 V2000
   14.2641   -1.7450   23.4813 C   0  0  0  0  0  0  0  0  0  0  0  0
    4.2460    1.7520   20.8250 C   0  0  0  0  0  0  0  0  0  0  0  0
   14.0779   -0.6681   24.3480 C   0  0  0  0  0  0  0  0  0  0  0  0
   13.2991   -2.0403   22.5184 C   0  0  0  0  0  0  0  0  0  0  0  0
    3.8860    2.1050   19.5250 C   0  0  0  0  0  0  0  0  0  0  0  0
    5.3890    1.0010   21.0690 C   0  0  0  0  0  0  0  0  0  0  0  0
   12.9266    0.1135   24.2518 C   0  0  0  0  0  0  0  0  0  0  0  0
   12.1478   -1.2587   22.4222 C   0  0  0  0  0  0  0  0  0  0  0  0
    4.6610    1.7170   18.4380 C   0  0  0  0  0  0  0  0  0  0  0  0
    9.5890   -2.4950   23.2210 C   0  0  0  0  0  0  0  0  0  0  0  0
    8.2550   -1.0010   24.5520 C   0  0  0  0  0  0  0  0  0  0  0  0
    9.1890   -3.5540   24.0140 C   0  0  0  0  0  0  0  0  0  0  0  0
    7.8700   -2.0610   25.3550 C   0  0  0  0  0  0  0  0  0  0  0  0
    6.1460    0.6070   19.9750 C   0  0  0  0  0  0  0  0  0  0  0  0
   11.9616   -0.1817   23.2889 C   0  0  0  0  0  0  0  0  0  0  0  0
    5.7970    0.9500   18.6730 C   0  0  0  0  0  0  0  0  0  0  0  0
    9.1280   -1.2090   23.4870 C   0  0  0  0  0  0  0  0  0  0  0  0
    8.3450   -3.3440   25.0980 C   0  0  0  0  0  0  0  0  0  0  0  0
    7.2710   -0.1460   19.8310 C   0  0  0  0  0  0  0  0  0  0  0  0
    9.0430    0.2380   21.4940 C   0  0  0  0  0  0  0  0  0  0  0  0
    8.4648   -5.7555   25.6632 C   0  0  0  0  0  0  0  0  0  0  0  0
    7.1042   -4.1977   27.0670 C   0  0  0  0  0  0  0  0  0  0  0  0
   10.7220    0.6590   23.1850 C   0  0  0  0  0  0  0  0  0  0  0  0
    7.5840   -0.2700   18.5160 N   0  0  0  0  0  0  0  0  0  0  0  0
    6.7100    0.3850   17.8100 N   0  0  0  0  0  0  0  0  0  0  0  0
    8.0950   -0.7700   20.8440 N   0  0  0  0  0  0  0  0  0  0  0  0
    9.5820   -0.1080   22.7000 N   0  0  0  0  0  0  0  0  0  0  0  0
    7.9731   -4.4180   25.9279 N   0  0  0  0  0  0  0  0  0  0  0  0
    9.2950    1.3000   20.9480 O   0  0  0  0  0  0  0  0  0  0  0  0
   15.1613   -2.3527   23.5555 H   0  0  0  0  0  0  0  0  0  0  0  0
    3.6223    2.0725   21.6574 H   0  0  0  0  0  0  0  0  0  0  0  0
   14.8297   -0.4373   25.0971 H   0  0  0  0  0  0  0  0  0  0  0  0
   13.4443   -2.8780   21.8427 H   0  0  0  0  0  0  0  0  0  0  0  0
    2.9864    2.6933   19.3609 H   0  0  0  0  0  0  0  0  0  0  0  0
    5.6689    0.7392   22.0836 H   0  0  0  0  0  0  0  0  0  0  0  0
   12.7899    0.9506   24.9315 H   0  0  0  0  0  0  0  0  0  0  0  0
   11.4013   -1.4963   21.6690 H   0  0  0  0  0  0  0  0  0  0  0  0
    4.3807    2.0116   17.4186 H   0  0  0  0  0  0  0  0  0  0  0  0
   10.2682   -2.6746   22.3864 H   0  0  0  0  0  0  0  0  0  0  0  0
    7.8692   -0.0022   24.7600 H   0  0  0  0  0  0  0  0  0  0  0  0
    9.5433   -4.5619   23.7809 H   0  0  0  0  0  0  0  0  0  0  0  0
    7.1923   -1.8829   26.1908 H   0  0  0  0  0  0  0  0  0  0  0  0
    8.0647   -6.4497   26.4168 H   0  0  0  0  0  0  0  0  0  0  0  0
    8.1393   -6.0741   24.6619 H   0  0  0  0  0  0  0  0  0  0  0  0
    9.5638   -5.7578   25.7095 H   0  0  0  0  0  0  0  0  0  0  0  0
    6.9310   -5.1516   27.5866 H   0  0  0  0  0  0  0  0  0  0  0  0
    7.5788   -3.4851   27.7575 H   0  0  0  0  0  0  0  0  0  0  0  0
    6.1433   -3.7888   26.7213 H   0  0  0  0  0  0  0  0  0  0  0  0
   10.4561    1.0772   24.1620 H   0  0  0  0  0  0  0  0  0  0  0  0
   10.8743    1.5008   22.5014 H   0  0  0  0  0  0  0  0  0  0  0  0
    6.7486    0.4313   16.8331 H   0  0  0  0  0  0  0  0  0  0  0  0
    8.0733   -1.6163   21.0749 H   0  0  0  0  0  0  0  0  0  0  0  0
  1  3  1  0  0  0  0
  1  4  2  0  0  0  0
  2  5  1  0  0  0  0
  2  6  2  0  0  0  0
  3  7  2  0  0  0  0
  4  8  1  0  0  0  0
  5  9  2  0  0  0  0
  6 14  1  0  0  0  0
  7 15  1  0  0  0  0
  8 15  2  0  0  0  0
  9 16  1  0  0  0  0
 10 12  2  0  0  0  0
 10 17  1  0  0  0  0
 11 13  1  0  0  0  0
 11 17  2  0  0  0  0
 12 18  1  0  0  0  0
 13 18  2  0  0  0  0
 14 16  2  0  0  0  0
 14 19  1  0  0  0  0
 15 23  1  0  0  0  0
 16 25  1  0  0  0  0
 17 27  1  0  0  0  0
 18 28  1  0  0  0  0
 19 24  2  0  0  0  0
 19 26  1  0  0  0  0
 20 26  1  0  0  0  0
 20 27  1  0  0  0  0
 20 29  2  0  0  0  0
 21 28  1  0  0  0  0
 22 28  1  0  0  0  0
 23 27  1  0  0  0  0
 24 25  1  0  0  0  0
  1 30  1  0  0  0  0
  2 31  1  0  0  0  0
  3 32  1  0  0  0  0
  4 33  1  0  0  0  0
  5 34  1  0  0  0  0
  6 35  1  0  0  0  0
  7 36  1  0  0  0  0
  8 37  1  0  0  0  0
  9 38  1  0  0  0  0
 10 39  1  0  0  0  0
 11 40  1  0  0  0  0
 12 41  1  0  0  0  0
 13 42  1  0  0  0  0
 21 43  1  0  0  0  0
 21 44  1  0  0  0  0
 21 45  1  0  0  0  0
 22 46  1  0  0  0  0
 22 47  1  0  0  0  0
 22 48  1  0  0  0  0
 23 49  1  0  0  0  0
 23 50  1  0  0  0  0
 25 51  1  0  0  0  0
 26 52  1  0  0  0  0
M  END
> <clash_score>
0

> <docking_score>
-8.677972793579102

> <overlap_score>
0.9344958066940308

$$$$
BENZO_56_1
  -OEChem-08222022433D

 49 52  0     0  0  0  0  0  0999 V2000
    4.2460    1.7520   20.8250 C   0  0  0  0  0  0  0  0  0  0  0  0
    3.8860    2.1050   19.5250 C   0  0  0  0  0  0  0  0  0  0  0  0
    5.3890    1.0010   21.0690 C   0  0  0  0  0  0  0  0  0  0  0  0
    4.6610    1.7170   18.4380 C   0  0  0  0  0  0  0  0  0  0  0  0
    9.5890   -2.4950   23.2210 C   0  0  0  0  0  0  0  0  0  0  0  0
    8.2550   -1.0010   24.5520 C   0  0  0  0  0  0  0  0  0  0  0  0
    9.1890   -3.5540   24.0140 C   0  0  0  0  0  0  0  0  0  0  0  0
    7.8700   -2.0610   25.3550 C   0  0  0  0  0  0  0  0  0  0  0  0
   12.6785   -0.3937   24.5018 C   0  0  0  0  0  0  0  0  0  0  0  0
   13.7775   -1.2037   24.3186 C   0  0  0  0  0  0  0  0  0  0  0  0
   12.5401   -0.8378   22.2246 C   0  0  0  0  0  0  0  0  0  0  0  0
    6.1460    0.6070   19.9750 C   0  0  0  0  0  0  0  0  0  0  0  0
   11.9616   -0.1817   23.2889 C   0  0  0  0  0  0  0  0  0  0  0  0
    5.7970    0.9500   18.6730 C   0  0  0  0  0  0  0  0  0  0  0  0
    9.1280   -1.2090   23.4870 C   0  0  0  0  0  0  0  0  0  0  0  0
    8.3450   -3.3440   25.0980 C   0  0  0  0  0  0  0  0  0  0  0  0
    7.2710   -0.1460   19.8310 C   0  0  0  0  0  0  0  0  0  0  0  0
    9.0430    0.2380   21.4940 C   0  0  0  0  0  0  0  0  0  0  0  0
    7.2639   -5.5576   25.3810 C   0  0  0  0  0  0  0  0  0  0  0  0
    8.3071   -4.4046   27.3383 C   0  0  0  0  0  0  0  0  0  0  0  0
   10.7220    0.6590   23.1850 C   0  0  0  0  0  0  0  0  0  0  0  0
    7.5840   -0.2700   18.5160 N   0  0  0  0  0  0  0  0  0  0  0  0
    6.7100    0.3850   17.8100 N   0  0  0  0  0  0  0  0  0  0  0  0
    8.0950   -0.7700   20.8440 N   0  0  0  0  0  0  0  0  0  0  0  0
    9.5820   -0.1080   22.7000 N   0  0  0  0  0  0  0  0  0  0  0  0
    7.9731   -4.4180   25.9279 N   0  0  0  0  0  0  0  0  0  0  0  0
    9.2950    1.3000   20.9480 O   0  0  0  0  0  0  0  0  0  0  0  0
   13.9416   -1.7051   22.6894 S   0  0  0  0  0  0  0  0  0  0  0  0
    3.6223    2.0725   21.6574 H   0  0  0  0  0  0  0  0  0  0  0  0
    2.9864    2.6933   19.3609 H   0  0  0  0  0  0  0  0  0  0  0  0
    5.6689    0.7392   22.0836 H   0  0  0  0  0  0  0  0  0  0  0  0
    4.3807    2.0116   17.4186 H   0  0  0  0  0  0  0  0  0  0  0  0
   10.2682   -2.6746   22.3864 H   0  0  0  0  0  0  0  0  0  0  0  0
    7.8692   -0.0022   24.7600 H   0  0  0  0  0  0  0  0  0  0  0  0
    9.5433   -4.5619   23.7809 H   0  0  0  0  0  0  0  0  0  0  0  0
    7.1923   -1.8829   26.1908 H   0  0  0  0  0  0  0  0  0  0  0  0
   12.4058    0.0253   25.4623 H   0  0  0  0  0  0  0  0  0  0  0  0
   14.4923   -1.5246   25.0631 H   0  0  0  0  0  0  0  0  0  0  0  0
   12.2108   -0.8511   21.1948 H   0  0  0  0  0  0  0  0  0  0  0  0
    7.0647   -6.2850   26.1818 H   0  0  0  0  0  0  0  0  0  0  0  0
    6.3112   -5.2219   24.9455 H   0  0  0  0  0  0  0  0  0  0  0  0
    7.8774   -6.0309   24.6002 H   0  0  0  0  0  0  0  0  0  0  0  0
    7.9340   -5.3242   27.8127 H   0  0  0  0  0  0  0  0  0  0  0  0
    9.3994   -4.3487   27.4557 H   0  0  0  0  0  0  0  0  0  0  0  0
    7.8416   -3.5304   27.8169 H   0  0  0  0  0  0  0  0  0  0  0  0
   10.4561    1.0772   24.1620 H   0  0  0  0  0  0  0  0  0  0  0  0
   10.8743    1.5008   22.5014 H   0  0  0  0  0  0  0  0  0  0  0  0
    6.7486    0.4313   16.8331 H   0  0  0  0  0  0  0  0  0  0  0  0
    8.0733   -1.6163   21.0749 H   0  0  0  0  0  0  0  0  0  0  0  0
  1  2  1  0  0  0  0
  1  3  2  0  0  0  0
  2  4  2  0  0  0  0
  3 12  1  0  0  0  0
  4 14  1  0  0  0  0
  5  7  2  0  0  0  0
  5 15  1  0  0  0  0
  6  8  1  0  0  0  0
  6 15  2  0  0  0  0
  7 16  1  0  0  0  0
  8 16  2  0  0  0  0
  9 10  2  0  0  0  0
  9 13  1  0  0  0  0
 10 28  1  0  0  0  0
 11 13  2  0  0  0  0
 11 28  1  0  0  0  0
 12 14  2  0  0  0  0
 12 17  1  0  0  0  0
 13 21  1  0  0  0  0
 14 23  1  0  0  0  0
 15 25  1  0  0  0  0
 16 26  1  0  0  0  0
 17 22  2  0  0  0  0
 17 24  1  0  0  0  0
 18 24  1  0  0  0  0
 18 25  1  0  0  0  0
 18 27  2  0  0  0  0
 19 26  1  0  0  0  0
 20 26  1  0  0  0  0
 21 25  1  0  0  0  0
 22 23  1  0  0  0  0
  1 29  1  0  0  0  0
  2 30  1  0  0  0  0
  3 31  1  0  0  0  0
  4 32  1  0  0  0  0
  5 33  1  0  0  0  0
  6 34  1  0  0  0  0
  7 35  1  0  0  0  0
  8 36  1  0  0  0  0
  9 37  1  0  0  0  0
 10 38  1  0  0  0  0
 11 39  1  0  0  0  0
 19 40  1  0  0  0  0
 19 41  1  0  0  0  0
 19 42  1  0  0  0  0
 20 43  1  0  0  0  0
 20 44  1  0  0  0  0
 20 45  1  0  0  0  0
 21 46  1  0  0  0  0
 21 47  1  0  0  0  0
 23 48  1  0  0  0  0
 24 49  1  0  0  0  0
M  END
> <clash_score>
0

> <docking_score>
-8.251060485839844

> <overlap_score>
0.9331549406051636

$$$$
BENZO_54_1
  -OEChem-08222022433D

 57 61  0     0  0  0  0  0  0999 V2000
    3.8860    2.1050   19.5250 C   0  0  0  0  0  0  0  0  0  0  0  0
    4.2460    1.7520   20.8250 C   0  0  0  0  0  0  0  0  0  0  0  0
   13.7501   -1.1157   24.6177 C   0  0  0  0  0  0  0  0  0  0  0  0
   12.5991   -0.3339   24.5202 C   0  0  0  0  0  0  0  0  0  0  0  0
    4.6610    1.7170   18.4380 C   0  0  0  0  0  0  0  0  0  0  0  0
    5.3890    1.0010   21.0690 C   0  0  0  0  0  0  0  0  0  0  0  0
    9.1890   -3.5540   24.0140 C   0  0  0  0  0  0  0  0  0  0  0  0
    7.8700   -2.0610   25.3550 C   0  0  0  0  0  0  0  0  0  0  0  0
    9.5890   -2.4950   23.2210 C   0  0  0  0  0  0  0  0  0  0  0  0
    8.2550   -1.0010   24.5520 C   0  0  0  0  0  0  0  0  0  0  0  0
   14.2636   -1.7454   23.4838 C   0  0  0  0  0  0  0  0  0  0  0  0
   12.4750   -0.8115   22.1551 C   0  0  0  0  0  0  0  0  0  0  0  0
    7.5840   -0.2700   18.5160 C   0  0  0  0  0  0  0  0  0  0  0  0
   11.9616   -0.1817   23.2889 C   0  0  0  0  0  0  0  0  0  0  0  0
    5.7970    0.9500   18.6730 C   0  0  0  0  0  0  0  0  0  0  0  0
    6.1460    0.6070   19.9750 C   0  0  0  0  0  0  0  0  0  0  0  0
    8.3450   -3.3440   25.0980 C   0  0  0  0  0  0  0  0  0  0  0  0
    9.1280   -1.2090   23.4870 C   0  0  0  0  0  0  0  0  0  0  0  0
   13.6260   -1.5933   22.2526 C   0  0  0  0  0  0  0  0  0  0  0  0
    9.0430    0.2380   21.4940 C   0  0  0  0  0  0  0  0  0  0  0  0
    8.9524   -5.2012   26.6600 C   0  0  0  0  0  0  0  0  0  0  0  0
    6.6112   -4.5068   26.4379 C   0  0  0  0  0  0  0  0  0  0  0  0
    8.9037   -4.7845   28.1261 C   0  0  0  0  0  0  0  0  0  0  0  0
    6.6374   -4.1243   27.9184 C   0  0  0  0  0  0  0  0  0  0  0  0
   10.7220    0.6590   23.1850 C   0  0  0  0  0  0  0  0  0  0  0  0
    6.7100    0.3850   17.8100 N   0  0  0  0  0  0  0  0  0  0  0  0
    7.2710   -0.1460   19.8310 N   0  0  0  0  0  0  0  0  0  0  0  0
    7.9775   -4.4014   25.9151 N   0  0  0  0  0  0  0  0  0  0  0  0
    8.0950   -0.7700   20.8440 N   0  0  0  0  0  0  0  0  0  0  0  0
    9.5820   -0.1080   22.7000 N   0  0  0  0  0  0  0  0  0  0  0  0
    9.2950    1.3000   20.9480 O   0  0  0  0  0  0  0  0  0  0  0  0
    7.5729   -4.9391   28.6338 O   0  0  0  0  0  0  0  0  0  0  0  0
   14.2594   -2.3714   20.8543 Cl  0  0  0  0  0  0  0  0  0  0  0  0
    2.9844    2.6927   19.3613 H   0  0  0  0  0  0  0  0  0  0  0  0
    3.6214    2.0680   21.6561 H   0  0  0  0  0  0  0  0  0  0  0  0
   14.2462   -1.2340   25.5766 H   0  0  0  0  0  0  0  0  0  0  0  0
   12.2060    0.1530   25.4088 H   0  0  0  0  0  0  0  0  0  0  0  0
    4.3780    2.0103   17.4276 H   0  0  0  0  0  0  0  0  0  0  0  0
    5.6758    0.7336   22.0897 H   0  0  0  0  0  0  0  0  0  0  0  0
    9.5426   -4.5618   23.7797 H   0  0  0  0  0  0  0  0  0  0  0  0
    7.1914   -1.8824   26.1903 H   0  0  0  0  0  0  0  0  0  0  0  0
   10.2669   -2.6745   22.3854 H   0  0  0  0  0  0  0  0  0  0  0  0
    7.8690   -0.0020   24.7587 H   0  0  0  0  0  0  0  0  0  0  0  0
   15.1613   -2.3520   23.5748 H   0  0  0  0  0  0  0  0  0  0  0  0
   11.9745   -0.6893   21.1973 H   0  0  0  0  0  0  0  0  0  0  0  0
    8.4213   -0.8245   18.1548 H   0  0  0  0  0  0  0  0  0  0  0  0
    9.9615   -5.0500   26.2711 H   0  0  0  0  0  0  0  0  0  0  0  0
    8.6935   -6.2597   26.5720 H   0  0  0  0  0  0  0  0  0  0  0  0
    6.2628   -5.5350   26.3330 H   0  0  0  0  0  0  0  0  0  0  0  0
    5.9347   -3.8423   25.9023 H   0  0  0  0  0  0  0  0  0  0  0  0
    9.5597   -5.4275   28.7166 H   0  0  0  0  0  0  0  0  0  0  0  0
    9.2344   -3.7511   28.2636 H   0  0  0  0  0  0  0  0  0  0  0  0
    6.8874   -3.0657   28.0553 H   0  0  0  0  0  0  0  0  0  0  0  0
    5.6495   -4.2893   28.3591 H   0  0  0  0  0  0  0  0  0  0  0  0
   10.4561    1.0772   24.1620 H   0  0  0  0  0  0  0  0  0  0  0  0
   10.8743    1.5008   22.5014 H   0  0  0  0  0  0  0  0  0  0  0  0
    8.0897   -1.6082   21.0890 H   0  0  0  0  0  0  0  0  0  0  0  0
  1  2  1  0  0  0  0
  1  5  2  0  0  0  0
  2  6  2  0  0  0  0
  3  4  2  0  0  0  0
  3 11  1  0  0  0  0
  4 14  1  0  0  0  0
  5 15  1  0  0  0  0
  6 16  1  0  0  0  0
  7  9  2  0  0  0  0
  7 17  1  0  0  0  0
  8 10  1  0  0  0  0
  8 17  2  0  0  0  0
  9 18  1  0  0  0  0
 10 18  2  0  0  0  0
 11 19  2  0  0  0  0
 12 14  2  0  0  0  0
 12 19  1  0  0  0  0
 13 26  2  0  0  0  0
 13 27  1  0  0  0  0
 14 25  1  0  0  0  0
 15 16  2  0  0  0  0
 15 26  1  0  0  0  0
 16 27  1  0  0  0  0
 17 28  1  0  0  0  0
 18 30  1  0  0  0  0
 19 33  1  0  0  0  0
 20 29  1  0  0  0  0
 20 30  1  0  0  0  0
 20 31  2  0  0  0  0
 21 23  1  0  0  0  0
 21 28  1  0  0  0  0
 22 24  1  0  0  0  0
 22 28  1  0  0  0  0
 23 32  1  0  0  0  0
 24 32  1  0  0  0  0
 25 30  1  0  0  0  0
 27 29  1  0  0  0  0
  1 34  1  0  0  0  0
  2 35  1  0  0  0  0
  3 36  1  0  0  0  0
  4 37  1  0  0  0  0
  5 38  1  0  0  0  0
  6 39  1  0  0  0  0
  7 40  1  0  0  0  0
  8 41  1  0  0  0  0
  9 42  1  0  0  0  0
 10 43  1  0  0  0  0
 11 44  1  0  0  0  0
 12 45  1  0  0  0  0
 13 46  1  0  0  0  0
 21 47  1  0  0  0  0
 21 48  1  0  0  0  0
 22 49  1  0  0  0  0
 22 50  1  0  0  0  0
 23 51  1  0  0  0  0
 23 52  1  0  0  0  0
 24 53  1  0  0  0  0
 24 54  1  0  0  0  0
 25 55  1  0  0  0  0
 25 56  1  0  0  0  0
 29 57  1  0  0  0  0
M  END
> <clash_score>
0

> <docking_score>
-9.566692352294922

> <overlap_score>
1.001713752746582

$$$$
BENZO_55_1
  -OEChem-08222022433D

 57 61  0     0  0  0  0  0  0999 V2000
    3.8860    2.1050   19.5250 C   0  0  0  0  0  0  0  0  0  0  0  0
    4.2460    1.7520   20.8250 C   0  0  0  0  0  0  0  0  0  0  0  0
    4.6610    1.7170   18.4380 C   0  0  0  0  0  0  0  0  0  0  0  0
    5.3890    1.0010   21.0690 C   0  0  0  0  0  0  0  0  0  0  0  0
    9.1890   -3.5540   24.0140 C   0  0  0  0  0  0  0  0  0  0  0  0
    7.8700   -2.0610   25.3550 C   0  0  0  0  0  0  0  0  0  0  0  0
    9.5890   -2.4950   23.2210 C   0  0  0  0  0  0  0  0  0  0  0  0
    8.2550   -1.0010   24.5520 C   0  0  0  0  0  0  0  0  0  0  0  0
   12.7320   -0.4464   24.4370 C   0  0  0  0  0  0  0  0  0  0  0  0
   12.5970   -0.8682   22.2832 C   0  0  0  0  0  0  0  0  0  0  0  0
    7.5840   -0.2700   18.5160 C   0  0  0  0  0  0  0  0  0  0  0  0
   11.9616   -0.1817   23.2889 C   0  0  0  0  0  0  0  0  0  0  0  0
    5.7970    0.9500   18.6730 C   0  0  0  0  0  0  0  0  0  0  0  0
    6.1460    0.6070   19.9750 C   0  0  0  0  0  0  0  0  0  0  0  0
    8.3450   -3.3440   25.0980 C   0  0  0  0  0  0  0  0  0  0  0  0
    9.1280   -1.2090   23.4870 C   0  0  0  0  0  0  0  0  0  0  0  0
    9.0430    0.2380   21.4940 C   0  0  0  0  0  0  0  0  0  0  0  0
    8.9524   -5.2012   26.6600 C   0  0  0  0  0  0  0  0  0  0  0  0
    6.6112   -4.5068   26.4379 C   0  0  0  0  0  0  0  0  0  0  0  0
    8.9037   -4.7845   28.1261 C   0  0  0  0  0  0  0  0  0  0  0  0
    6.6374   -4.1243   27.9184 C   0  0  0  0  0  0  0  0  0  0  0  0
   14.6393   -2.3180   22.2082 C   0  0  0  0  0  0  0  0  0  0  0  0
   10.7220    0.6590   23.1850 C   0  0  0  0  0  0  0  0  0  0  0  0
   13.7770   -1.2393   24.1852 N   0  0  0  0  0  0  0  0  0  0  0  0
    6.7100    0.3850   17.8100 N   0  0  0  0  0  0  0  0  0  0  0  0
   13.6676   -1.4788   22.8673 N   0  0  0  0  0  0  0  0  0  0  0  0
    7.2710   -0.1460   19.8310 N   0  0  0  0  0  0  0  0  0  0  0  0
    7.9775   -4.4014   25.9151 N   0  0  0  0  0  0  0  0  0  0  0  0
    8.0950   -0.7700   20.8440 N   0  0  0  0  0  0  0  0  0  0  0  0
    9.5820   -0.1080   22.7000 N   0  0  0  0  0  0  0  0  0  0  0  0
    9.2950    1.3000   20.9480 O   0  0  0  0  0  0  0  0  0  0  0  0
    7.5729   -4.9391   28.6338 O   0  0  0  0  0  0  0  0  0  0  0  0
    2.9844    2.6927   19.3613 H   0  0  0  0  0  0  0  0  0  0  0  0
    3.6214    2.0680   21.6561 H   0  0  0  0  0  0  0  0  0  0  0  0
    4.3780    2.0103   17.4276 H   0  0  0  0  0  0  0  0  0  0  0  0
    5.6758    0.7336   22.0897 H   0  0  0  0  0  0  0  0  0  0  0  0
    9.5426   -4.5618   23.7797 H   0  0  0  0  0  0  0  0  0  0  0  0
    7.1914   -1.8824   26.1903 H   0  0  0  0  0  0  0  0  0  0  0  0
   10.2669   -2.6745   22.3854 H   0  0  0  0  0  0  0  0  0  0  0  0
    7.8690   -0.0020   24.7587 H   0  0  0  0  0  0  0  0  0  0  0  0
   12.5771   -0.0965   25.4478 H   0  0  0  0  0  0  0  0  0  0  0  0
   12.3832   -0.9726   21.2281 H   0  0  0  0  0  0  0  0  0  0  0  0
    8.4213   -0.8245   18.1548 H   0  0  0  0  0  0  0  0  0  0  0  0
    9.9615   -5.0500   26.2711 H   0  0  0  0  0  0  0  0  0  0  0  0
    8.6935   -6.2597   26.5720 H   0  0  0  0  0  0  0  0  0  0  0  0
    6.2628   -5.5350   26.3330 H   0  0  0  0  0  0  0  0  0  0  0  0
    5.9347   -3.8423   25.9023 H   0  0  0  0  0  0  0  0  0  0  0  0
    9.5597   -5.4275   28.7166 H   0  0  0  0  0  0  0  0  0  0  0  0
    9.2344   -3.7511   28.2636 H   0  0  0  0  0  0  0  0  0  0  0  0
    6.8874   -3.0657   28.0553 H   0  0  0  0  0  0  0  0  0  0  0  0
    5.6495   -4.2893   28.3591 H   0  0  0  0  0  0  0  0  0  0  0  0
   15.4522   -1.6787   21.8540 H   0  0  0  0  0  0  0  0  0  0  0  0
   15.0179   -3.0612   22.9154 H   0  0  0  0  0  0  0  0  0  0  0  0
   14.1626   -2.8324   21.3691 H   0  0  0  0  0  0  0  0  0  0  0  0
   10.4561    1.0772   24.1620 H   0  0  0  0  0  0  0  0  0  0  0  0
   10.8743    1.5008   22.5014 H   0  0  0  0  0  0  0  0  0  0  0  0
    8.0897   -1.6082   21.0890 H   0  0  0  0  0  0  0  0  0  0  0  0
  1  2  1  0  0  0  0
  1  3  2  0  0  0  0
  2  4  2  0  0  0  0
  3 13  1  0  0  0  0
  4 14  1  0  0  0  0
  5  7  2  0  0  0  0
  5 15  1  0  0  0  0
  6  8  1  0  0  0  0
  6 15  2  0  0  0  0
  7 16  1  0  0  0  0
  8 16  2  0  0  0  0
  9 12  1  0  0  0  0
  9 24  2  0  0  0  0
 10 12  2  0  0  0  0
 10 26  1  0  0  0  0
 11 25  2  0  0  0  0
 11 27  1  0  0  0  0
 12 23  1  0  0  0  0
 13 14  2  0  0  0  0
 13 25  1  0  0  0  0
 14 27  1  0  0  0  0
 15 28  1  0  0  0  0
 16 30  1  0  0  0  0
 17 29  1  0  0  0  0
 17 30  1  0  0  0  0
 17 31  2  0  0  0  0
 18 20  1  0  0  0  0
 18 28  1  0  0  0  0
 19 21  1  0  0  0  0
 19 28  1  0  0  0  0
 20 32  1  0  0  0  0
 21 32  1  0  0  0  0
 22 26  1  0  0  0  0
 23 30  1  0  0  0  0
 24 26  1  0  0  0  0
 27 29  1  0  0  0  0
  1 33  1  0  0  0  0
  2 34  1  0  0  0  0
  3 35  1  0  0  0  0
  4 36  1  0  0  0  0
  5 37  1  0  0  0  0
  6 38  1  0  0  0  0
  7 39  1  0  0  0  0
  8 40  1  0  0  0  0
  9 41  1  0  0  0  0
 10 42  1  0  0  0  0
 11 43  1  0  0  0  0
 18 44  1  0  0  0  0
 18 45  1  0  0  0  0
 19 46  1  0  0  0  0
 19 47  1  0  0  0  0
 20 48  1  0  0  0  0
 20 49  1  0  0  0  0
 21 50  1  0  0  0  0
 21 51  1  0  0  0  0
 22 52  1  0  0  0  0
 22 53  1  0  0  0  0
 22 54  1  0  0  0  0
 23 55  1  0  0  0  0
 23 56  1  0  0  0  0
 29 57  1  0  0  0  0
M  END
> <clash_score>
0

> <docking_score>
-8.802719116210938

> <overlap_score>
0.9972016215324402

$$$$
BENZO_59_1
  -OEChem-08222022433D

 52 55  0     0  0  0  0  0  0999 V2000
    4.2460    1.7520   20.8250 C   0  0  0  0  0  0  0  0  0  0  0  0
    3.8860    2.1050   19.5250 C   0  0  0  0  0  0  0  0  0  0  0  0
    5.3890    1.0010   21.0690 C   0  0  0  0  0  0  0  0  0  0  0  0
    4.6610    1.7170   18.4380 C   0  0  0  0  0  0  0  0  0  0  0  0
    9.5890   -2.4950   23.2210 C   0  0  0  0  0  0  0  0  0  0  0  0
    8.2550   -1.0010   24.5520 C   0  0  0  0  0  0  0  0  0  0  0  0
    9.1890   -3.5540   24.0140 C   0  0  0  0  0  0  0  0  0  0  0  0
    7.8700   -2.0610   25.3550 C   0  0  0  0  0  0  0  0  0  0  0  0
   12.7320   -0.4464   24.4370 C   0  0  0  0  0  0  0  0  0  0  0  0
   12.5970   -0.8682   22.2832 C   0  0  0  0  0  0  0  0  0  0  0  0
    6.1460    0.6070   19.9750 C   0  0  0  0  0  0  0  0  0  0  0  0
   11.9616   -0.1817   23.2889 C   0  0  0  0  0  0  0  0  0  0  0  0
    5.7970    0.9500   18.6730 C   0  0  0  0  0  0  0  0  0  0  0  0
    9.1280   -1.2090   23.4870 C   0  0  0  0  0  0  0  0  0  0  0  0
    8.3450   -3.3440   25.0980 C   0  0  0  0  0  0  0  0  0  0  0  0
    7.2710   -0.1460   19.8310 C   0  0  0  0  0  0  0  0  0  0  0  0
    9.0430    0.2380   21.4940 C   0  0  0  0  0  0  0  0  0  0  0  0
   14.6393   -2.3180   22.2082 C   0  0  0  0  0  0  0  0  0  0  0  0
    7.2639   -5.5576   25.3810 C   0  0  0  0  0  0  0  0  0  0  0  0
    8.3071   -4.4046   27.3383 C   0  0  0  0  0  0  0  0  0  0  0  0
   10.7220    0.6590   23.1850 C   0  0  0  0  0  0  0  0  0  0  0  0
   13.7770   -1.2393   24.1852 N   0  0  0  0  0  0  0  0  0  0  0  0
    7.5840   -0.2700   18.5160 N   0  0  0  0  0  0  0  0  0  0  0  0
    6.7100    0.3850   17.8100 N   0  0  0  0  0  0  0  0  0  0  0  0
   13.6676   -1.4788   22.8673 N   0  0  0  0  0  0  0  0  0  0  0  0
    8.0950   -0.7700   20.8440 N   0  0  0  0  0  0  0  0  0  0  0  0
    9.5820   -0.1080   22.7000 N   0  0  0  0  0  0  0  0  0  0  0  0
    7.9731   -4.4180   25.9279 N   0  0  0  0  0  0  0  0  0  0  0  0
    9.2950    1.3000   20.9480 O   0  0  0  0  0  0  0  0  0  0  0  0
    3.6223    2.0725   21.6574 H   0  0  0  0  0  0  0  0  0  0  0  0
    2.9864    2.6933   19.3609 H   0  0  0  0  0  0  0  0  0  0  0  0
    5.6689    0.7392   22.0836 H   0  0  0  0  0  0  0  0  0  0  0  0
    4.3807    2.0116   17.4186 H   0  0  0  0  0  0  0  0  0  0  0  0
   10.2682   -2.6746   22.3864 H   0  0  0  0  0  0  0  0  0  0  0  0
    7.8692   -0.0022   24.7600 H   0  0  0  0  0  0  0  0  0  0  0  0
    9.5433   -4.5619   23.7809 H   0  0  0  0  0  0  0  0  0  0  0  0
    7.1923   -1.8829   26.1908 H   0  0  0  0  0  0  0  0  0  0  0  0
   12.5771   -0.0965   25.4478 H   0  0  0  0  0  0  0  0  0  0  0  0
   12.3832   -0.9726   21.2281 H   0  0  0  0  0  0  0  0  0  0  0  0
   15.4522   -1.6787   21.8540 H   0  0  0  0  0  0  0  0  0  0  0  0
   15.0179   -3.0613   22.9154 H   0  0  0  0  0  0  0  0  0  0  0  0
   14.1626   -2.8324   21.3691 H   0  0  0  0  0  0  0  0  0  0  0  0
    7.0647   -6.2850   26.1818 H   0  0  0  0  0  0  0  0  0  0  0  0
    6.3112   -5.2219   24.9455 H   0  0  0  0  0  0  0  0  0  0  0  0
    7.8774   -6.0309   24.6002 H   0  0  0  0  0  0  0  0  0  0  0  0
    7.9340   -5.3242   27.8127 H   0  0  0  0  0  0  0  0  0  0  0  0
    9.3994   -4.3487   27.4557 H   0  0  0  0  0  0  0  0  0  0  0  0
    7.8416   -3.5304   27.8169 H   0  0  0  0  0  0  0  0  0  0  0  0
   10.4561    1.0772   24.1620 H   0  0  0  0  0  0  0  0  0  0  0  0
   10.8743    1.5008   22.5014 H   0  0  0  0  0  0  0  0  0  0  0  0
    6.7486    0.4313   16.8331 H   0  0  0  0  0  0  0  0  0  0  0  0
    8.0733   -1.6163   21.0749 H   0  0  0  0  0  0  0  0  0  0  0  0
  1  2  1  0  0  0  0
  1  3  2  0  0  0  0
  2  4  2  0  0  0  0
  3 11  1  0  0  0  0
  4 13  1  0  0  0  0
  5  7  2  0  0  0  0
  5 14  1  0  0  0  0
  6  8  1  0  0  0  0
  6 14  2  0  0  0  0
  7 15  1  0  0  0  0
  8 15  2  0  0  0  0
  9 12  1  0  0  0  0
  9 22  2  0  0  0  0
 10 12  2  0  0  0  0
 10 25  1  0  0  0  0
 11 13  2  0  0  0  0
 11 16  1  0  0  0  0
 12 21  1  0  0  0  0
 13 24  1  0  0  0  0
 14 27  1  0  0  0  0
 15 28  1  0  0  0  0
 16 23  2  0  0  0  0
 16 26  1  0  0  0  0
 17 26  1  0  0  0  0
 17 27  1  0  0  0  0
 17 29  2  0  0  0  0
 18 25  1  0  0  0  0
 19 28  1  0  0  0  0
 20 28  1  0  0  0  0
 21 27  1  0  0  0  0
 22 25  1  0  0  0  0
 23 24  1  0  0  0  0
  1 30  1  0  0  0  0
  2 31  1  0  0  0  0
  3 32  1  0  0  0  0
  4 33  1  0  0  0  0
  5 34  1  0  0  0  0
  6 35  1  0  0  0  0
  7 36  1  0  0  0  0
  8 37  1  0  0  0  0
  9 38  1  0  0  0  0
 10 39  1  0  0  0  0
 18 40  1  0  0  0  0
 18 41  1  0  0  0  0
 18 42  1  0  0  0  0
 19 43  1  0  0  0  0
 19 44  1  0  0  0  0
 19 45  1  0  0  0  0
 20 46  1  0  0  0  0
 20 47  1  0  0  0  0
 20 48  1  0  0  0  0
 21 49  1  0  0  0  0
 21 50  1  0  0  0  0
 24 51  1  0  0  0  0
 26 52  1  0  0  0  0
M  END
> <clash_score>
0

> <docking_score>
-7.000278472900391

> <overlap_score>
0.9499847888946533

$$$$
BENZO_58_1
  -OEChem-08222022433D

 52 55  0     0  0  0  0  0  0999 V2000
    4.2460    1.7520   20.8250 C   0  0  0  0  0  0  0  0  0  0  0  0
    3.8860    2.1050   19.5250 C   0  0  0  0  0  0  0  0  0  0  0  0
   13.7501   -1.1157   24.6177 C   0  0  0  0  0  0  0  0  0  0  0  0
    5.3890    1.0010   21.0690 C   0  0  0  0  0  0  0  0  0  0  0  0
   12.5991   -0.3339   24.5202 C   0  0  0  0  0  0  0  0  0  0  0  0
    4.6610    1.7170   18.4380 C   0  0  0  0  0  0  0  0  0  0  0  0
    9.5890   -2.4950   23.2210 C   0  0  0  0  0  0  0  0  0  0  0  0
    8.2550   -1.0010   24.5520 C   0  0  0  0  0  0  0  0  0  0  0  0
    9.1890   -3.5540   24.0140 C   0  0  0  0  0  0  0  0  0  0  0  0
    7.8700   -2.0610   25.3550 C   0  0  0  0  0  0  0  0  0  0  0  0
   14.2636   -1.7454   23.4838 C   0  0  0  0  0  0  0  0  0  0  0  0
   12.4750   -0.8115   22.1551 C   0  0  0  0  0  0  0  0  0  0  0  0
    6.1460    0.6070   19.9750 C   0  0  0  0  0  0  0  0  0  0  0  0
   11.9616   -0.1817   23.2889 C   0  0  0  0  0  0  0  0  0  0  0  0
    5.7970    0.9500   18.6730 C   0  0  0  0  0  0  0  0  0  0  0  0
    9.1280   -1.2090   23.4870 C   0  0  0  0  0  0  0  0  0  0  0  0
    8.3450   -3.3440   25.0980 C   0  0  0  0  0  0  0  0  0  0  0  0
   13.6260   -1.5933   22.2526 C   0  0  0  0  0  0  0  0  0  0  0  0
    7.2710   -0.1460   19.8310 C   0  0  0  0  0  0  0  0  0  0  0  0
    9.0430    0.2380   21.4940 C   0  0  0  0  0  0  0  0  0  0  0  0
    7.2639   -5.5576   25.3810 C   0  0  0  0  0  0  0  0  0  0  0  0
    8.3071   -4.4046   27.3383 C   0  0  0  0  0  0  0  0  0  0  0  0
   10.7220    0.6590   23.1850 C   0  0  0  0  0  0  0  0  0  0  0  0
    7.5840   -0.2700   18.5160 N   0  0  0  0  0  0  0  0  0  0  0  0
    6.7100    0.3850   17.8100 N   0  0  0  0  0  0  0  0  0  0  0  0
    8.0950   -0.7700   20.8440 N   0  0  0  0  0  0  0  0  0  0  0  0
    9.5820   -0.1080   22.7000 N   0  0  0  0  0  0  0  0  0  0  0  0
    7.9731   -4.4180   25.9279 N   0  0  0  0  0  0  0  0  0  0  0  0
    9.2950    1.3000   20.9480 O   0  0  0  0  0  0  0  0  0  0  0  0
   14.2594   -2.3714   20.8543 Cl  0  0  0  0  0  0  0  0  0  0  0  0
    3.6223    2.0725   21.6574 H   0  0  0  0  0  0  0  0  0  0  0  0
    2.9864    2.6933   19.3609 H   0  0  0  0  0  0  0  0  0  0  0  0
   14.2462   -1.2340   25.5766 H   0  0  0  0  0  0  0  0  0  0  0  0
    5.6689    0.7392   22.0836 H   0  0  0  0  0  0  0  0  0  0  0  0
   12.2060    0.1530   25.4088 H   0  0  0  0  0  0  0  0  0  0  0  0
    4.3807    2.0116   17.4186 H   0  0  0  0  0  0  0  0  0  0  0  0
   10.2682   -2.6746   22.3864 H   0  0  0  0  0  0  0  0  0  0  0  0
    7.8692   -0.0022   24.7600 H   0  0  0  0  0  0  0  0  0  0  0  0
    9.5433   -4.5619   23.7809 H   0  0  0  0  0  0  0  0  0  0  0  0
    7.1923   -1.8829   26.1908 H   0  0  0  0  0  0  0  0  0  0  0  0
   15.1613   -2.3520   23.5747 H   0  0  0  0  0  0  0  0  0  0  0  0
   11.9745   -0.6893   21.1973 H   0  0  0  0  0  0  0  0  0  0  0  0
    7.0647   -6.2850   26.1818 H   0  0  0  0  0  0  0  0  0  0  0  0
    6.3112   -5.2219   24.9455 H   0  0  0  0  0  0  0  0  0  0  0  0
    7.8774   -6.0309   24.6002 H   0  0  0  0  0  0  0  0  0  0  0  0
    7.9340   -5.3242   27.8127 H   0  0  0  0  0  0  0  0  0  0  0  0
    9.3994   -4.3487   27.4557 H   0  0  0  0  0  0  0  0  0  0  0  0
    7.8416   -3.5304   27.8169 H   0  0  0  0  0  0  0  0  0  0  0  0
   10.4561    1.0772   24.1620 H   0  0  0  0  0  0  0  0  0  0  0  0
   10.8743    1.5008   22.5014 H   0  0  0  0  0  0  0  0  0  0  0  0
    6.7486    0.4313   16.8331 H   0  0  0  0  0  0  0  0  0  0  0  0
    8.0733   -1.6163   21.0749 H   0  0  0  0  0  0  0  0  0  0  0  0
  1  2  1  0  0  0  0
  1  4  2  0  0  0  0
  2  6  2  0  0  0  0
  3  5  2  0  0  0  0
  3 11  1  0  0  0  0
  4 13  1  0  0  0  0
  5 14  1  0  0  0  0
  6 15  1  0  0  0  0
  7  9  2  0  0  0  0
  7 16  1  0  0  0  0
  8 10  1  0  0  0  0
  8 16  2  0  0  0  0
  9 17  1  0  0  0  0
 10 17  2  0  0  0  0
 11 18  2  0  0  0  0
 12 14  2  0  0  0  0
 12 18  1  0  0  0  0
 13 15  2  0  0  0  0
 13 19  1  0  0  0  0
 14 23  1  0  0  0  0
 15 25  1  0  0  0  0
 16 27  1  0  0  0  0
 17 28  1  0  0  0  0
 18 30  1  0  0  0  0
 19 24  2  0  0  0  0
 19 26  1  0  0  0  0
 20 26  1  0  0  0  0
 20 27  1  0  0  0  0
 20 29  2  0  0  0  0
 21 28  1  0  0  0  0
 22 28  1  0  0  0  0
 23 27  1  0  0  0  0
 24 25  1  0  0  0  0
  1 31  1  0  0  0  0
  2 32  1  0  0  0  0
  3 33  1  0  0  0  0
  4 34  1  0  0  0  0
  5 35  1  0  0  0  0
  6 36  1  0  0  0  0
  7 37  1  0  0  0  0
  8 38  1  0  0  0  0
  9 39  1  0  0  0  0
 10 40  1  0  0  0  0
 11 41  1  0  0  0  0
 12 42  1  0  0  0  0
 21 43  1  0  0  0  0
 21 44  1  0  0  0  0
 21 45  1  0  0  0  0
 22 46  1  0  0  0  0
 22 47  1  0  0  0  0
 22 48  1  0  0  0  0
 23 49  1  0  0  0  0
 23 50  1  0  0  0  0
 25 51  1  0  0  0  0
 26 52  1  0  0  0  0
M  END
> <clash_score>
0

> <docking_score>
-7.764257431030273

> <overlap_score>
0.9545687437057495

$$$$
BENZO_60_1
  -OEChem-08222022433D

 51 54  0     0  0  0  0  0  0999 V2000
    4.2460    1.7520   20.8250 C   0  0  0  0  0  0  0  0  0  0  0  0
    3.8860    2.1050   19.5250 C   0  0  0  0  0  0  0  0  0  0  0  0
    5.3890    1.0010   21.0690 C   0  0  0  0  0  0  0  0  0  0  0  0
    4.6610    1.7170   18.4380 C   0  0  0  0  0  0  0  0  0  0  0  0
    9.1890   -3.5540   24.0140 C   0  0  0  0  0  0  0  0  0  0  0  0
    7.8700   -2.0610   25.3550 C   0  0  0  0  0  0  0  0  0  0  0  0
    9.5890   -2.4950   23.2210 C   0  0  0  0  0  0  0  0  0  0  0  0
    8.2550   -1.0010   24.5520 C   0  0  0  0  0  0  0  0  0  0  0  0
   12.6785   -0.3937   24.5018 C   0  0  0  0  0  0  0  0  0  0  0  0
   13.7775   -1.2037   24.3186 C   0  0  0  0  0  0  0  0  0  0  0  0
   12.5401   -0.8378   22.2246 C   0  0  0  0  0  0  0  0  0  0  0  0
    6.1460    0.6070   19.9750 C   0  0  0  0  0  0  0  0  0  0  0  0
   11.9616   -0.1817   23.2889 C   0  0  0  0  0  0  0  0  0  0  0  0
    5.7970    0.9500   18.6730 C   0  0  0  0  0  0  0  0  0  0  0  0
    8.3450   -3.3440   25.0980 C   0  0  0  0  0  0  0  0  0  0  0  0
    9.1280   -1.2090   23.4870 C   0  0  0  0  0  0  0  0  0  0  0  0
    7.2710   -0.1460   19.8310 C   0  0  0  0  0  0  0  0  0  0  0  0
    8.2013   -4.5562   27.2977 C   0  0  0  0  0  0  0  0  0  0  0  0
    9.0430    0.2380   21.4940 C   0  0  0  0  0  0  0  0  0  0  0  0
    7.8866   -6.0877   29.2880 C   0  0  0  0  0  0  0  0  0  0  0  0
   10.7220    0.6590   23.1850 C   0  0  0  0  0  0  0  0  0  0  0  0
    7.6334   -5.8728   27.8066 C   0  0  0  0  0  0  0  0  0  0  0  0
    7.5840   -0.2700   18.5160 N   0  0  0  0  0  0  0  0  0  0  0  0
    6.7100    0.3850   17.8100 N   0  0  0  0  0  0  0  0  0  0  0  0
    7.9771   -4.4058   25.9196 N   0  0  0  0  0  0  0  0  0  0  0  0
    8.0950   -0.7700   20.8440 N   0  0  0  0  0  0  0  0  0  0  0  0
    9.5820   -0.1080   22.7000 N   0  0  0  0  0  0  0  0  0  0  0  0
    8.7722   -3.7639   28.0399 O   0  0  0  0  0  0  0  0  0  0  0  0
    9.2950    1.3000   20.9480 O   0  0  0  0  0  0  0  0  0  0  0  0
   13.9416   -1.7051   22.6894 S   0  0  0  0  0  0  0  0  0  0  0  0
    3.6223    2.0725   21.6574 H   0  0  0  0  0  0  0  0  0  0  0  0
    2.9864    2.6933   19.3609 H   0  0  0  0  0  0  0  0  0  0  0  0
    5.6689    0.7392   22.0836 H   0  0  0  0  0  0  0  0  0  0  0  0
    4.3807    2.0116   17.4186 H   0  0  0  0  0  0  0  0  0  0  0  0
    9.5436   -4.5614   23.7799 H   0  0  0  0  0  0  0  0  0  0  0  0
    7.1918   -1.8823   26.1906 H   0  0  0  0  0  0  0  0  0  0  0  0
   10.2676   -2.6754   22.3861 H   0  0  0  0  0  0  0  0  0  0  0  0
    7.8686   -0.0026   24.7598 H   0  0  0  0  0  0  0  0  0  0  0  0
   12.4058    0.0253   25.4623 H   0  0  0  0  0  0  0  0  0  0  0  0
   14.4923   -1.5246   25.0631 H   0  0  0  0  0  0  0  0  0  0  0  0
   12.2108   -0.8511   21.1948 H   0  0  0  0  0  0  0  0  0  0  0  0
    8.9592   -6.0823   29.5085 H   0  0  0  0  0  0  0  0  0  0  0  0
    7.4764   -7.0502   29.6091 H   0  0  0  0  0  0  0  0  0  0  0  0
    7.4171   -5.2994   29.8855 H   0  0  0  0  0  0  0  0  0  0  0  0
   10.4561    1.0772   24.1620 H   0  0  0  0  0  0  0  0  0  0  0  0
   10.8743    1.5008   22.5014 H   0  0  0  0  0  0  0  0  0  0  0  0
    6.5542   -5.8829   27.6152 H   0  0  0  0  0  0  0  0  0  0  0  0
    8.0873   -6.6910   27.2357 H   0  0  0  0  0  0  0  0  0  0  0  0
    6.7486    0.4313   16.8331 H   0  0  0  0  0  0  0  0  0  0  0  0
    7.4775   -5.1797   25.4662 H   0  0  0  0  0  0  0  0  0  0  0  0
    8.0733   -1.6163   21.0749 H   0  0  0  0  0  0  0  0  0  0  0  0
  1  2  1  0  0  0  0
  1  3  2  0  0  0  0
  2  4  2  0  0  0  0
  3 12  1  0  0  0  0
  4 14  1  0  0  0  0
  5  7  2  0  0  0  0
  5 15  1  0  0  0  0
  6  8  1  0  0  0  0
  6 15  2  0  0  0  0
  7 16  1  0  0  0  0
  8 16  2  0  0  0  0
  9 10  2  0  0  0  0
  9 13  1  0  0  0  0
 10 30  1  0  0  0  0
 11 13  2  0  0  0  0
 11 30  1  0  0  0  0
 12 14  2  0  0  0  0
 12 17  1  0  0  0  0
 13 21  1  0  0  0  0
 14 24  1  0  0  0  0
 15 25  1  0  0  0  0
 16 27  1  0  0  0  0
 17 23  2  0  0  0  0
 17 26  1  0  0  0  0
 18 22  1  0  0  0  0
 18 25  1  0  0  0  0
 18 28  2  0  0  0  0
 19 26  1  0  0  0  0
 19 27  1  0  0  0  0
 19 29  2  0  0  0  0
 20 22  1  0  0  0  0
 21 27  1  0  0  0  0
 23 24  1  0  0  0  0
  1 31  1  0  0  0  0
  2 32  1  0  0  0  0
  3 33  1  0  0  0  0
  4 34  1  0  0  0  0
  5 35  1  0  0  0  0
  6 36  1  0  0  0  0
  7 37  1  0  0  0  0
  8 38  1  0  0  0  0
  9 39  1  0  0  0  0
 10 40  1  0  0  0  0
 11 41  1  0  0  0  0
 20 42  1  0  0  0  0
 20 43  1  0  0  0  0
 20 44  1  0  0  0  0
 21 45  1  0  0  0  0
 21 46  1  0  0  0  0
 22 47  1  0  0  0  0
 22 48  1  0  0  0  0
 24 49  1  0  0  0  0
 25 50  1  0  0  0  0
 26 51  1  0  0  0  0
M  END
> <clash_score>
0

> <docking_score>
-8.530613899230957

> <overlap_score>
0.9895446300506592

$$$$
BENZO_61_1
  -OEChem-08222022433D

 54 57  0     0  0  0  0  0  0999 V2000
   14.2641   -1.7450   23.4813 C   0  0  0  0  0  0  0  0  0  0  0  0
    4.2460    1.7520   20.8250 C   0  0  0  0  0  0  0  0  0  0  0  0
   14.0779   -0.6681   24.3480 C   0  0  0  0  0  0  0  0  0  0  0  0
   13.2991   -2.0403   22.5184 C   0  0  0  0  0  0  0  0  0  0  0  0
    3.8860    2.1050   19.5250 C   0  0  0  0  0  0  0  0  0  0  0  0
    5.3890    1.0010   21.0690 C   0  0  0  0  0  0  0  0  0  0  0  0
   12.9266    0.1135   24.2518 C   0  0  0  0  0  0  0  0  0  0  0  0
   12.1478   -1.2587   22.4222 C   0  0  0  0  0  0  0  0  0  0  0  0
    4.6610    1.7170   18.4380 C   0  0  0  0  0  0  0  0  0  0  0  0
    9.1890   -3.5540   24.0140 C   0  0  0  0  0  0  0  0  0  0  0  0
    7.8700   -2.0610   25.3550 C   0  0  0  0  0  0  0  0  0  0  0  0
    9.5890   -2.4950   23.2210 C   0  0  0  0  0  0  0  0  0  0  0  0
    8.2550   -1.0010   24.5520 C   0  0  0  0  0  0  0  0  0  0  0  0
    6.1460    0.6070   19.9750 C   0  0  0  0  0  0  0  0  0  0  0  0
   11.9616   -0.1817   23.2889 C   0  0  0  0  0  0  0  0  0  0  0  0
    5.7970    0.9500   18.6730 C   0  0  0  0  0  0  0  0  0  0  0  0
    8.3450   -3.3440   25.0980 C   0  0  0  0  0  0  0  0  0  0  0  0
    9.1280   -1.2090   23.4870 C   0  0  0  0  0  0  0  0  0  0  0  0
    7.2710   -0.1460   19.8310 C   0  0  0  0  0  0  0  0  0  0  0  0
    7.1410   -4.3824   27.0476 C   0  0  0  0  0  0  0  0  0  0  0  0
    9.0430    0.2380   21.4940 C   0  0  0  0  0  0  0  0  0  0  0  0
    8.0779   -6.0692   28.6855 C   0  0  0  0  0  0  0  0  0  0  0  0
   10.7220    0.6590   23.1850 C   0  0  0  0  0  0  0  0  0  0  0  0
    7.0016   -5.7692   27.6576 C   0  0  0  0  0  0  0  0  0  0  0  0
    7.5840   -0.2700   18.5160 N   0  0  0  0  0  0  0  0  0  0  0  0
    6.7100    0.3850   17.8100 N   0  0  0  0  0  0  0  0  0  0  0  0
    7.9771   -4.4058   25.9196 N   0  0  0  0  0  0  0  0  0  0  0  0
    8.0950   -0.7700   20.8440 N   0  0  0  0  0  0  0  0  0  0  0  0
    9.5820   -0.1080   22.7000 N   0  0  0  0  0  0  0  0  0  0  0  0
    6.5731   -3.4036   27.5208 O   0  0  0  0  0  0  0  0  0  0  0  0
    9.2950    1.3000   20.9480 O   0  0  0  0  0  0  0  0  0  0  0  0
   15.1613   -2.3527   23.5555 H   0  0  0  0  0  0  0  0  0  0  0  0
    3.6223    2.0725   21.6574 H   0  0  0  0  0  0  0  0  0  0  0  0
   14.8297   -0.4373   25.0971 H   0  0  0  0  0  0  0  0  0  0  0  0
   13.4443   -2.8780   21.8427 H   0  0  0  0  0  0  0  0  0  0  0  0
    2.9864    2.6933   19.3609 H   0  0  0  0  0  0  0  0  0  0  0  0
    5.6689    0.7392   22.0836 H   0  0  0  0  0  0  0  0  0  0  0  0
   12.7899    0.9506   24.9315 H   0  0  0  0  0  0  0  0  0  0  0  0
   11.4013   -1.4963   21.6690 H   0  0  0  0  0  0  0  0  0  0  0  0
    4.3807    2.0116   17.4186 H   0  0  0  0  0  0  0  0  0  0  0  0
    9.5436   -4.5614   23.7799 H   0  0  0  0  0  0  0  0  0  0  0  0
    7.1918   -1.8823   26.1906 H   0  0  0  0  0  0  0  0  0  0  0  0
   10.2676   -2.6754   22.3861 H   0  0  0  0  0  0  0  0  0  0  0  0
    7.8686   -0.0026   24.7598 H   0  0  0  0  0  0  0  0  0  0  0  0
    9.0762   -6.0016   28.2408 H   0  0  0  0  0  0  0  0  0  0  0  0
    7.9502   -7.0790   29.0874 H   0  0  0  0  0  0  0  0  0  0  0  0
    8.0333   -5.3610   29.5194 H   0  0  0  0  0  0  0  0  0  0  0  0
   10.4561    1.0772   24.1620 H   0  0  0  0  0  0  0  0  0  0  0  0
   10.8743    1.5008   22.5014 H   0  0  0  0  0  0  0  0  0  0  0  0
    6.0150   -5.8439   28.1292 H   0  0  0  0  0  0  0  0  0  0  0  0
    7.0496   -6.5101   26.8512 H   0  0  0  0  0  0  0  0  0  0  0  0
    6.7486    0.4313   16.8331 H   0  0  0  0  0  0  0  0  0  0  0  0
    8.3623   -5.3253   25.6742 H   0  0  0  0  0  0  0  0  0  0  0  0
    8.0733   -1.6163   21.0749 H   0  0  0  0  0  0  0  0  0  0  0  0
  1  3  1  0  0  0  0
  1  4  2  0  0  0  0
  2  5  1  0  0  0  0
  2  6  2  0  0  0  0
  3  7  2  0  0  0  0
  4  8  1  0  0  0  0
  5  9  2  0  0  0  0
  6 14  1  0  0  0  0
  7 15  1  0  0  0  0
  8 15  2  0  0  0  0
  9 16  1  0  0  0  0
 10 12  2  0  0  0  0
 10 17  1  0  0  0  0
 11 13  1  0  0  0  0
 11 17  2  0  0  0  0
 12 18  1  0  0  0  0
 13 18  2  0  0  0  0
 14 16  2  0  0  0  0
 14 19  1  0  0  0  0
 15 23  1  0  0  0  0
 16 26  1  0  0  0  0
 17 27  1  0  0  0  0
 18 29  1  0  0  0  0
 19 25  2  0  0  0  0
 19 28  1  0  0  0  0
 20 24  1  0  0  0  0
 20 27  1  0  0  0  0
 20 30  2  0  0  0  0
 21 28  1  0  0  0  0
 21 29  1  0  0  0  0
 21 31  2  0  0  0  0
 22 24  1  0  0  0  0
 23 29  1  0  0  0  0
 25 26  1  0  0  0  0
  1 32  1  0  0  0  0
  2 33  1  0  0  0  0
  3 34  1  0  0  0  0
  4 35  1  0  0  0  0
  5 36  1  0  0  0  0
  6 37  1  0  0  0  0
  7 38  1  0  0  0  0
  8 39  1  0  0  0  0
  9 40  1  0  0  0  0
 10 41  1  0  0  0  0
 11 42  1  0  0  0  0
 12 43  1  0  0  0  0
 13 44  1  0  0  0  0
 22 45  1  0  0  0  0
 22 46  1  0  0  0  0
 22 47  1  0  0  0  0
 23 48  1  0  0  0  0
 23 49  1  0  0  0  0
 24 50  1  0  0  0  0
 24 51  1  0  0  0  0
 26 52  1  0  0  0  0
 27 53  1  0  0  0  0
 28 54  1  0  0  0  0
M  END
> <clash_score>
0

> <docking_score>
-8.238618850708008

> <overlap_score>
0.9713020324707031

$$$$
BENZO_63_1
  -OEChem-08222022433D

 54 57  0     0  0  0  0  0  0999 V2000
    4.2460    1.7520   20.8250 C   0  0  0  0  0  0  0  0  0  0  0  0
    3.8860    2.1050   19.5250 C   0  0  0  0  0  0  0  0  0  0  0  0
    5.3890    1.0010   21.0690 C   0  0  0  0  0  0  0  0  0  0  0  0
    4.6610    1.7170   18.4380 C   0  0  0  0  0  0  0  0  0  0  0  0
    9.1890   -3.5540   24.0140 C   0  0  0  0  0  0  0  0  0  0  0  0
    7.8700   -2.0610   25.3550 C   0  0  0  0  0  0  0  0  0  0  0  0
    9.5890   -2.4950   23.2210 C   0  0  0  0  0  0  0  0  0  0  0  0
    8.2550   -1.0010   24.5520 C   0  0  0  0  0  0  0  0  0  0  0  0
   12.7320   -0.4464   24.4370 C   0  0  0  0  0  0  0  0  0  0  0  0
   12.5970   -0.8682   22.2832 C   0  0  0  0  0  0  0  0  0  0  0  0
    6.1460    0.6070   19.9750 C   0  0  0  0  0  0  0  0  0  0  0  0
   11.9616   -0.1817   23.2889 C   0  0  0  0  0  0  0  0  0  0  0  0
    5.7970    0.9500   18.6730 C   0  0  0  0  0  0  0  0  0  0  0  0
    8.3450   -3.3440   25.0980 C   0  0  0  0  0  0  0  0  0  0  0  0
    9.1280   -1.2090   23.4870 C   0  0  0  0  0  0  0  0  0  0  0  0
    7.2710   -0.1460   19.8310 C   0  0  0  0  0  0  0  0  0  0  0  0
    8.2013   -4.5562   27.2977 C   0  0  0  0  0  0  0  0  0  0  0  0
    9.0430    0.2380   21.4940 C   0  0  0  0  0  0  0  0  0  0  0  0
    7.8866   -6.0877   29.2880 C   0  0  0  0  0  0  0  0  0  0  0  0
   14.6393   -2.3180   22.2082 C   0  0  0  0  0  0  0  0  0  0  0  0
   10.7220    0.6590   23.1850 C   0  0  0  0  0  0  0  0  0  0  0  0
    7.6334   -5.8728   27.8066 C   0  0  0  0  0  0  0  0  0  0  0  0
   13.7770   -1.2393   24.1852 N   0  0  0  0  0  0  0  0  0  0  0  0
    7.5840   -0.2700   18.5160 N   0  0  0  0  0  0  0  0  0  0  0  0
    6.7100    0.3850   17.8100 N   0  0  0  0  0  0  0  0  0  0  0  0
   13.6676   -1.4788   22.8673 N   0  0  0  0  0  0  0  0  0  0  0  0
    7.9771   -4.4058   25.9196 N   0  0  0  0  0  0  0  0  0  0  0  0
    8.0950   -0.7700   20.8440 N   0  0  0  0  0  0  0  0  0  0  0  0
    9.5820   -0.1080   22.7000 N   0  0  0  0  0  0  0  0  0  0  0  0
    8.7722   -3.7639   28.0399 O   0  0  0  0  0  0  0  0  0  0  0  0
    9.2950    1.3000   20.9480 O   0  0  0  0  0  0  0  0  0  0  0  0
    3.6223    2.0725   21.6574 H   0  0  0  0  0  0  0  0  0  0  0  0
    2.9864    2.6933   19.3609 H   0  0  0  0  0  0  0  0  0  0  0  0
    5.6689    0.7392   22.0836 H   0  0  0  0  0  0  0  0  0  0  0  0
    4.3807    2.0116   17.4186 H   0  0  0  0  0  0  0  0  0  0  0  0
    9.5436   -4.5614   23.7799 H   0  0  0  0  0  0  0  0  0  0  0  0
    7.1918   -1.8823   26.1906 H   0  0  0  0  0  0  0  0  0  0  0  0
   10.2676   -2.6754   22.3861 H   0  0  0  0  0  0  0  0  0  0  0  0
    7.8686   -0.0026   24.7598 H   0  0  0  0  0  0  0  0  0  0  0  0
   12.5771   -0.0965   25.4478 H   0  0  0  0  0  0  0  0  0  0  0  0
   12.3832   -0.9726   21.2281 H   0  0  0  0  0  0  0  0  0  0  0  0
    8.9592   -6.0823   29.5085 H   0  0  0  0  0  0  0  0  0  0  0  0
    7.4764   -7.0502   29.6091 H   0  0  0  0  0  0  0  0  0  0  0  0
    7.4171   -5.2994   29.8855 H   0  0  0  0  0  0  0  0  0  0  0  0
   15.4522   -1.6787   21.8540 H   0  0  0  0  0  0  0  0  0  0  0  0
   15.0179   -3.0613   22.9154 H   0  0  0  0  0  0  0  0  0  0  0  0
   14.1626   -2.8324   21.3691 H   0  0  0  0  0  0  0  0  0  0  0  0
   10.4561    1.0772   24.1620 H   0  0  0  0  0  0  0  0  0  0  0  0
   10.8743    1.5008   22.5014 H   0  0  0  0  0  0  0  0  0  0  0  0
    6.5542   -5.8829   27.6152 H   0  0  0  0  0  0  0  0  0  0  0  0
    8.0873   -6.6910   27.2357 H   0  0  0  0  0  0  0  0  0  0  0  0
    6.7486    0.4313   16.8331 H   0  0  0  0  0  0  0  0  0  0  0  0
    7.4775   -5.1797   25.4662 H   0  0  0  0  0  0  0  0  0  0  0  0
    8.0733   -1.6163   21.0749 H   0  0  0  0  0  0  0  0  0  0  0  0
  1  2  1  0  0  0  0
  1  3  2  0  0  0  0
  2  4  2  0  0  0  0
  3 11  1  0  0  0  0
  4 13  1  0  0  0  0
  5  7  2  0  0  0  0
  5 14  1  0  0  0  0
  6  8  1  0  0  0  0
  6 14  2  0  0  0  0
  7 15  1  0  0  0  0
  8 15  2  0  0  0  0
  9 12  1  0  0  0  0
  9 23  2  0  0  0  0
 10 12  2  0  0  0  0
 10 26  1  0  0  0  0
 11 13  2  0  0  0  0
 11 16  1  0  0  0  0
 12 21  1  0  0  0  0
 13 25  1  0  0  0  0
 14 27  1  0  0  0  0
 15 29  1  0  0  0  0
 16 24  2  0  0  0  0
 16 28  1  0  0  0  0
 17 22  1  0  0  0  0
 17 27  1  0  0  0  0
 17 30  2  0  0  0  0
 18 28  1  0  0  0  0
 18 29  1  0  0  0  0
 18 31  2  0  0  0  0
 19 22  1  0  0  0  0
 20 26  1  0  0  0  0
 21 29  1  0  0  0  0
 23 26  1  0  0  0  0
 24 25  1  0  0  0  0
  1 32  1  0  0  0  0
  2 33  1  0  0  0  0
  3 34  1  0  0  0  0
  4 35  1  0  0  0  0
  5 36  1  0  0  0  0
  6 37  1  0  0  0  0
  7 38  1  0  0  0  0
  8 39  1  0  0  0  0
  9 40  1  0  0  0  0
 10 41  1  0  0  0  0
 19 42  1  0  0  0  0
 19 43  1  0  0  0  0
 19 44  1  0  0  0  0
 20 45  1  0  0  0  0
 20 46  1  0  0  0  0
 20 47  1  0  0  0  0
 21 48  1  0  0  0  0
 21 49  1  0  0  0  0
 22 50  1  0  0  0  0
 22 51  1  0  0  0  0
 25 52  1  0  0  0  0
 27 53  1  0  0  0  0
 28 54  1  0  0  0  0
M  END
> <clash_score>
0

> <docking_score>
-7.279831886291504

> <overlap_score>
1.0061818361282349

$$$$
BENZO_62_1
  -OEChem-08222022433D

 54 57  0     0  0  0  0  0  0999 V2000
    4.2460    1.7520   20.8250 C   0  0  0  0  0  0  0  0  0  0  0  0
    3.8860    2.1050   19.5250 C   0  0  0  0  0  0  0  0  0  0  0  0
   13.7501   -1.1157   24.6177 C   0  0  0  0  0  0  0  0  0  0  0  0
    5.3890    1.0010   21.0690 C   0  0  0  0  0  0  0  0  0  0  0  0
   12.5991   -0.3339   24.5202 C   0  0  0  0  0  0  0  0  0  0  0  0
    4.6610    1.7170   18.4380 C   0  0  0  0  0  0  0  0  0  0  0  0
    9.1890   -3.5540   24.0140 C   0  0  0  0  0  0  0  0  0  0  0  0
    7.8700   -2.0610   25.3550 C   0  0  0  0  0  0  0  0  0  0  0  0
    9.5890   -2.4950   23.2210 C   0  0  0  0  0  0  0  0  0  0  0  0
    8.2550   -1.0010   24.5520 C   0  0  0  0  0  0  0  0  0  0  0  0
   14.2636   -1.7454   23.4838 C   0  0  0  0  0  0  0  0  0  0  0  0
   12.4750   -0.8115   22.1551 C   0  0  0  0  0  0  0  0  0  0  0  0
    6.1460    0.6070   19.9750 C   0  0  0  0  0  0  0  0  0  0  0  0
   11.9616   -0.1817   23.2889 C   0  0  0  0  0  0  0  0  0  0  0  0
    5.7970    0.9500   18.6730 C   0  0  0  0  0  0  0  0  0  0  0  0
    8.3450   -3.3440   25.0980 C   0  0  0  0  0  0  0  0  0  0  0  0
    9.1280   -1.2090   23.4870 C   0  0  0  0  0  0  0  0  0  0  0  0
   13.6260   -1.5933   22.2526 C   0  0  0  0  0  0  0  0  0  0  0  0
    7.2710   -0.1460   19.8310 C   0  0  0  0  0  0  0  0  0  0  0  0
    8.2013   -4.5562   27.2977 C   0  0  0  0  0  0  0  0  0  0  0  0
    9.0430    0.2380   21.4940 C   0  0  0  0  0  0  0  0  0  0  0  0
    7.8866   -6.0877   29.2880 C   0  0  0  0  0  0  0  0  0  0  0  0
   10.7220    0.6590   23.1850 C   0  0  0  0  0  0  0  0  0  0  0  0
    7.6334   -5.8728   27.8066 C   0  0  0  0  0  0  0  0  0  0  0  0
    7.5840   -0.2700   18.5160 N   0  0  0  0  0  0  0  0  0  0  0  0
    6.7100    0.3850   17.8100 N   0  0  0  0  0  0  0  0  0  0  0  0
    7.9771   -4.4058   25.9196 N   0  0  0  0  0  0  0  0  0  0  0  0
    8.0950   -0.7700   20.8440 N   0  0  0  0  0  0  0  0  0  0  0  0
    9.5820   -0.1080   22.7000 N   0  0  0  0  0  0  0  0  0  0  0  0
    8.7722   -3.7639   28.0399 O   0  0  0  0  0  0  0  0  0  0  0  0
    9.2950    1.3000   20.9480 O   0  0  0  0  0  0  0  0  0  0  0  0
   14.2594   -2.3714   20.8543 Cl  0  0  0  0  0  0  0  0  0  0  0  0
    3.6223    2.0725   21.6574 H   0  0  0  0  0  0  0  0  0  0  0  0
    2.9864    2.6933   19.3609 H   0  0  0  0  0  0  0  0  0  0  0  0
   14.2462   -1.2340   25.5766 H   0  0  0  0  0  0  0  0  0  0  0  0
    5.6689    0.7392   22.0836 H   0  0  0  0  0  0  0  0  0  0  0  0
   12.2060    0.1530   25.4088 H   0  0  0  0  0  0  0  0  0  0  0  0
    4.3807    2.0116   17.4186 H   0  0  0  0  0  0  0  0  0  0  0  0
    9.5436   -4.5614   23.7799 H   0  0  0  0  0  0  0  0  0  0  0  0
    7.1918   -1.8823   26.1906 H   0  0  0  0  0  0  0  0  0  0  0  0
   10.2676   -2.6754   22.3861 H   0  0  0  0  0  0  0  0  0  0  0  0
    7.8686   -0.0026   24.7598 H   0  0  0  0  0  0  0  0  0  0  0  0
   15.1613   -2.3520   23.5747 H   0  0  0  0  0  0  0  0  0  0  0  0
   11.9745   -0.6893   21.1973 H   0  0  0  0  0  0  0  0  0  0  0  0
    8.9592   -6.0823   29.5085 H   0  0  0  0  0  0  0  0  0  0  0  0
    7.4764   -7.0502   29.6091 H   0  0  0  0  0  0  0  0  0  0  0  0
    7.4171   -5.2994   29.8855 H   0  0  0  0  0  0  0  0  0  0  0  0
   10.4561    1.0772   24.1620 H   0  0  0  0  0  0  0  0  0  0  0  0
   10.8743    1.5008   22.5014 H   0  0  0  0  0  0  0  0  0  0  0  0
    6.5542   -5.8829   27.6152 H   0  0  0  0  0  0  0  0  0  0  0  0
    8.0873   -6.6910   27.2357 H   0  0  0  0  0  0  0  0  0  0  0  0
    6.7486    0.4313   16.8331 H   0  0  0  0  0  0  0  0  0  0  0  0
    7.4775   -5.1797   25.4662 H   0  0  0  0  0  0  0  0  0  0  0  0
    8.0733   -1.6163   21.0749 H   0  0  0  0  0  0  0  0  0  0  0  0
  1  2  1  0  0  0  0
  1  4  2  0  0  0  0
  2  6  2  0  0  0  0
  3  5  2  0  0  0  0
  3 11  1  0  0  0  0
  4 13  1  0  0  0  0
  5 14  1  0  0  0  0
  6 15  1  0  0  0  0
  7  9  2  0  0  0  0
  7 16  1  0  0  0  0
  8 10  1  0  0  0  0
  8 16  2  0  0  0  0
  9 17  1  0  0  0  0
 10 17  2  0  0  0  0
 11 18  2  0  0  0  0
 12 14  2  0  0  0  0
 12 18  1  0  0  0  0
 13 15  2  0  0  0  0
 13 19  1  0  0  0  0
 14 23  1  0  0  0  0
 15 26  1  0  0  0  0
 16 27  1  0  0  0  0
 17 29  1  0  0  0  0
 18 32  1  0  0  0  0
 19 25  2  0  0  0  0
 19 28  1  0  0  0  0
 20 24  1  0  0  0  0
 20 27  1  0  0  0  0
 20 30  2  0  0  0  0
 21 28  1  0  0  0  0
 21 29  1  0  0  0  0
 21 31  2  0  0  0  0
 22 24  1  0  0  0  0
 23 29  1  0  0  0  0
 25 26  1  0  0  0  0
  1 33  1  0  0  0  0
  2 34  1  0  0  0  0
  3 35  1  0  0  0  0
  4 36  1  0  0  0  0
  5 37  1  0  0  0  0
  6 38  1  0  0  0  0
  7 39  1  0  0  0  0
  8 40  1  0  0  0  0
  9 41  1  0  0  0  0
 10 42  1  0  0  0  0
 11 43  1  0  0  0  0
 12 44  1  0  0  0  0
 22 45  1  0  0  0  0
 22 46  1  0  0  0  0
 22 47  1  0  0  0  0
 23 48  1  0  0  0  0
 23 49  1  0  0  0  0
 24 50  1  0  0  0  0
 24 51  1  0  0  0  0
 26 52  1  0  0  0  0
 27 53  1  0  0  0  0
 28 54  1  0  0  0  0
M  END
> <clash_score>
0

> <docking_score>
-8.043811798095703

> <overlap_score>
1.0106953382492065

$$$$
BENZO_65_1
  -OEChem-08222022433D

 59 63  0     0  0  0  0  0  0999 V2000
   14.2642   -1.7450   23.4813 C   0  0  0  0  0  0  0  0  0  0  0  0
    4.2460    1.7520   20.8250 C   0  0  0  0  0  0  0  0  0  0  0  0
   14.0779   -0.6681   24.3480 C   0  0  0  0  0  0  0  0  0  0  0  0
   13.2991   -2.0403   22.5184 C   0  0  0  0  0  0  0  0  0  0  0  0
    3.8860    2.1050   19.5250 C   0  0  0  0  0  0  0  0  0  0  0  0
    5.3890    1.0010   21.0690 C   0  0  0  0  0  0  0  0  0  0  0  0
   12.9266    0.1135   24.2518 C   0  0  0  0  0  0  0  0  0  0  0  0
   12.1478   -1.2587   22.4222 C   0  0  0  0  0  0  0  0  0  0  0  0
    4.6610    1.7170   18.4380 C   0  0  0  0  0  0  0  0  0  0  0  0
    9.1890   -3.5540   24.0140 C   0  0  0  0  0  0  0  0  0  0  0  0
    7.8700   -2.0610   25.3550 C   0  0  0  0  0  0  0  0  0  0  0  0
    9.5890   -2.4950   23.2210 C   0  0  0  0  0  0  0  0  0  0  0  0
    8.2550   -1.0010   24.5520 C   0  0  0  0  0  0  0  0  0  0  0  0
    6.1460    0.6070   19.9750 C   0  0  0  0  0  0  0  0  0  0  0  0
   11.9616   -0.1817   23.2889 C   0  0  0  0  0  0  0  0  0  0  0  0
    5.7970    0.9500   18.6730 C   0  0  0  0  0  0  0  0  0  0  0  0
    8.3450   -3.3440   25.0980 C   0  0  0  0  0  0  0  0  0  0  0  0
    9.1280   -1.2090   23.4870 C   0  0  0  0  0  0  0  0  0  0  0  0
    7.2710   -0.1460   19.8310 C   0  0  0  0  0  0  0  0  0  0  0  0
    9.0430    0.2380   21.4940 C   0  0  0  0  0  0  0  0  0  0  0  0
    7.3495   -6.6199   27.6701 C   0  0  0  0  0  0  0  0  0  0  0  0
    6.9542   -6.6348   26.1986 C   0  0  0  0  0  0  0  0  0  0  0  0
    7.3959   -5.1872   28.1871 C   0  0  0  0  0  0  0  0  0  0  0  0
    7.8834   -5.7613   25.3569 C   0  0  0  0  0  0  0  0  0  0  0  0
    8.3297   -4.3204   27.3453 C   0  0  0  0  0  0  0  0  0  0  0  0
   10.7220    0.6590   23.1850 C   0  0  0  0  0  0  0  0  0  0  0  0
    7.5840   -0.2700   18.5160 N   0  0  0  0  0  0  0  0  0  0  0  0
    6.7100    0.3850   17.8100 N   0  0  0  0  0  0  0  0  0  0  0  0
    7.9745   -4.4101   25.9218 N   0  0  0  0  0  0  0  0  0  0  0  0
    8.0950   -0.7700   20.8440 N   0  0  0  0  0  0  0  0  0  0  0  0
    9.5820   -0.1080   22.7000 N   0  0  0  0  0  0  0  0  0  0  0  0
    9.2950    1.3000   20.9480 O   0  0  0  0  0  0  0  0  0  0  0  0
   15.1613   -2.3527   23.5555 H   0  0  0  0  0  0  0  0  0  0  0  0
    3.6223    2.0725   21.6574 H   0  0  0  0  0  0  0  0  0  0  0  0
   14.8297   -0.4373   25.0971 H   0  0  0  0  0  0  0  0  0  0  0  0
   13.4443   -2.8780   21.8427 H   0  0  0  0  0  0  0  0  0  0  0  0
    2.9864    2.6933   19.3609 H   0  0  0  0  0  0  0  0  0  0  0  0
    5.6689    0.7392   22.0836 H   0  0  0  0  0  0  0  0  0  0  0  0
   12.7899    0.9506   24.9315 H   0  0  0  0  0  0  0  0  0  0  0  0
   11.4013   -1.4963   21.6690 H   0  0  0  0  0  0  0  0  0  0  0  0
    4.3807    2.0116   17.4186 H   0  0  0  0  0  0  0  0  0  0  0  0
    9.5426   -4.5618   23.7797 H   0  0  0  0  0  0  0  0  0  0  0  0
    7.1914   -1.8824   26.1903 H   0  0  0  0  0  0  0  0  0  0  0  0
   10.2669   -2.6745   22.3854 H   0  0  0  0  0  0  0  0  0  0  0  0
    7.8690   -0.0020   24.7587 H   0  0  0  0  0  0  0  0  0  0  0  0
    6.6275   -7.2030   28.2544 H   0  0  0  0  0  0  0  0  0  0  0  0
    8.3286   -7.0944   27.7981 H   0  0  0  0  0  0  0  0  0  0  0  0
    6.9785   -7.6646   25.8205 H   0  0  0  0  0  0  0  0  0  0  0  0
    5.9224   -6.2815   26.0912 H   0  0  0  0  0  0  0  0  0  0  0  0
    6.3874   -4.7586   28.1744 H   0  0  0  0  0  0  0  0  0  0  0  0
    7.7314   -5.1812   29.2316 H   0  0  0  0  0  0  0  0  0  0  0  0
    8.8752   -6.2297   25.3260 H   0  0  0  0  0  0  0  0  0  0  0  0
    7.5092   -5.7078   24.3260 H   0  0  0  0  0  0  0  0  0  0  0  0
    8.2703   -3.2761   27.6782 H   0  0  0  0  0  0  0  0  0  0  0  0
    9.3614   -4.6600   27.5015 H   0  0  0  0  0  0  0  0  0  0  0  0
   10.4561    1.0772   24.1620 H   0  0  0  0  0  0  0  0  0  0  0  0
   10.8743    1.5008   22.5014 H   0  0  0  0  0  0  0  0  0  0  0  0
    6.7486    0.4313   16.8331 H   0  0  0  0  0  0  0  0  0  0  0  0
    8.0897   -1.6082   21.0890 H   0  0  0  0  0  0  0  0  0  0  0  0
  1  3  1  0  0  0  0
  1  4  2  0  0  0  0
  2  5  1  0  0  0  0
  2  6  2  0  0  0  0
  3  7  2  0  0  0  0
  4  8  1  0  0  0  0
  5  9  2  0  0  0  0
  6 14  1  0  0  0  0
  7 15  1  0  0  0  0
  8 15  2  0  0  0  0
  9 16  1  0  0  0  0
 10 12  2  0  0  0  0
 10 17  1  0  0  0  0
 11 13  1  0  0  0  0
 11 17  2  0  0  0  0
 12 18  1  0  0  0  0
 13 18  2  0  0  0  0
 14 16  2  0  0  0  0
 14 19  1  0  0  0  0
 15 26  1  0  0  0  0
 16 28  1  0  0  0  0
 17 29  1  0  0  0  0
 18 31  1  0  0  0  0
 19 27  2  0  0  0  0
 19 30  1  0  0  0  0
 20 30  1  0  0  0  0
 20 31  1  0  0  0  0
 20 32  2  0  0  0  0
 21 22  1  0  0  0  0
 21 23  1  0  0  0  0
 22 24  1  0  0  0  0
 23 25  1  0  0  0  0
 24 29  1  0  0  0  0
 25 29  1  0  0  0  0
 26 31  1  0  0  0  0
 27 28  1  0  0  0  0
  1 33  1  0  0  0  0
  2 34  1  0  0  0  0
  3 35  1  0  0  0  0
  4 36  1  0  0  0  0
  5 37  1  0  0  0  0
  6 38  1  0  0  0  0
  7 39  1  0  0  0  0
  8 40  1  0  0  0  0
  9 41  1  0  0  0  0
 10 42  1  0  0  0  0
 11 43  1  0  0  0  0
 12 44  1  0  0  0  0
 13 45  1  0  0  0  0
 21 46  1  0  0  0  0
 21 47  1  0  0  0  0
 22 48  1  0  0  0  0
 22 49  1  0  0  0  0
 23 50  1  0  0  0  0
 23 51  1  0  0  0  0
 24 52  1  0  0  0  0
 24 53  1  0  0  0  0
 25 54  1  0  0  0  0
 25 55  1  0  0  0  0
 26 56  1  0  0  0  0
 26 57  1  0  0  0  0
 28 58  1  0  0  0  0
 30 59  1  0  0  0  0
M  END
> <clash_score>
0

> <docking_score>
-8.324092864990234

> <overlap_score>
0.9952272772789001

$$$$
BENZO_64_1
  -OEChem-08222022433D

 56 60  0     0  0  0  0  0  0999 V2000
    4.2460    1.7520   20.8250 C   0  0  0  0  0  0  0  0  0  0  0  0
    3.8860    2.1050   19.5250 C   0  0  0  0  0  0  0  0  0  0  0  0
    5.3890    1.0010   21.0690 C   0  0  0  0  0  0  0  0  0  0  0  0
    4.6610    1.7170   18.4380 C   0  0  0  0  0  0  0  0  0  0  0  0
    9.1890   -3.5540   24.0140 C   0  0  0  0  0  0  0  0  0  0  0  0
    7.8700   -2.0610   25.3550 C   0  0  0  0  0  0  0  0  0  0  0  0
    9.5890   -2.4950   23.2210 C   0  0  0  0  0  0  0  0  0  0  0  0
    8.2550   -1.0010   24.5520 C   0  0  0  0  0  0  0  0  0  0  0  0
   12.6785   -0.3936   24.5018 C   0  0  0  0  0  0  0  0  0  0  0  0
   13.7775   -1.2037   24.3186 C   0  0  0  0  0  0  0  0  0  0  0  0
   12.5401   -0.8378   22.2246 C   0  0  0  0  0  0  0  0  0  0  0  0
    6.1460    0.6070   19.9750 C   0  0  0  0  0  0  0  0  0  0  0  0
   11.9616   -0.1817   23.2889 C   0  0  0  0  0  0  0  0  0  0  0  0
    5.7970    0.9500   18.6730 C   0  0  0  0  0  0  0  0  0  0  0  0
    8.3450   -3.3440   25.0980 C   0  0  0  0  0  0  0  0  0  0  0  0
    9.1280   -1.2090   23.4870 C   0  0  0  0  0  0  0  0  0  0  0  0
    7.2710   -0.1460   19.8310 C   0  0  0  0  0  0  0  0  0  0  0  0
    9.0430    0.2380   21.4940 C   0  0  0  0  0  0  0  0  0  0  0  0
    7.5748   -4.8280   28.7278 C   0  0  0  0  0  0  0  0  0  0  0  0
    8.9776   -4.7555   28.1204 C   0  0  0  0  0  0  0  0  0  0  0  0
    6.5554   -4.0713   27.8732 C   0  0  0  0  0  0  0  0  0  0  0  0
    8.9620   -5.1961   26.6568 C   0  0  0  0  0  0  0  0  0  0  0  0
    6.6009   -4.5253   26.4110 C   0  0  0  0  0  0  0  0  0  0  0  0
   10.7220    0.6590   23.1850 C   0  0  0  0  0  0  0  0  0  0  0  0
    7.5840   -0.2700   18.5160 N   0  0  0  0  0  0  0  0  0  0  0  0
    6.7100    0.3850   17.8100 N   0  0  0  0  0  0  0  0  0  0  0  0
    7.9770   -4.4029   25.9162 N   0  0  0  0  0  0  0  0  0  0  0  0
    8.0950   -0.7700   20.8440 N   0  0  0  0  0  0  0  0  0  0  0  0
    9.5820   -0.1080   22.7000 N   0  0  0  0  0  0  0  0  0  0  0  0
    9.2950    1.3000   20.9480 O   0  0  0  0  0  0  0  0  0  0  0  0
   13.9416   -1.7051   22.6894 S   0  0  0  0  0  0  0  0  0  0  0  0
    3.6223    2.0725   21.6574 H   0  0  0  0  0  0  0  0  0  0  0  0
    2.9864    2.6933   19.3609 H   0  0  0  0  0  0  0  0  0  0  0  0
    5.6689    0.7392   22.0836 H   0  0  0  0  0  0  0  0  0  0  0  0
    4.3807    2.0116   17.4186 H   0  0  0  0  0  0  0  0  0  0  0  0
    9.5426   -4.5618   23.7797 H   0  0  0  0  0  0  0  0  0  0  0  0
    7.1914   -1.8824   26.1903 H   0  0  0  0  0  0  0  0  0  0  0  0
   10.2669   -2.6745   22.3854 H   0  0  0  0  0  0  0  0  0  0  0  0
    7.8690   -0.0020   24.7587 H   0  0  0  0  0  0  0  0  0  0  0  0
   12.4058    0.0253   25.4623 H   0  0  0  0  0  0  0  0  0  0  0  0
   14.4923   -1.5246   25.0631 H   0  0  0  0  0  0  0  0  0  0  0  0
   12.2108   -0.8511   21.1948 H   0  0  0  0  0  0  0  0  0  0  0  0
    7.2681   -5.8807   28.8239 H   0  0  0  0  0  0  0  0  0  0  0  0
    7.5891   -4.4101   29.7448 H   0  0  0  0  0  0  0  0  0  0  0  0
    9.3554   -3.7320   28.1920 H   0  0  0  0  0  0  0  0  0  0  0  0
    9.6558   -5.3943   28.6900 H   0  0  0  0  0  0  0  0  0  0  0  0
    5.5496   -4.2322   28.2751 H   0  0  0  0  0  0  0  0  0  0  0  0
    6.7545   -2.9948   27.9293 H   0  0  0  0  0  0  0  0  0  0  0  0
    9.9612   -5.0560   26.2363 H   0  0  0  0  0  0  0  0  0  0  0  0
    8.7097   -6.2583   26.5922 H   0  0  0  0  0  0  0  0  0  0  0  0
    6.2649   -5.5600   26.3335 H   0  0  0  0  0  0  0  0  0  0  0  0
    5.9271   -3.8964   25.8283 H   0  0  0  0  0  0  0  0  0  0  0  0
   10.4561    1.0772   24.1620 H   0  0  0  0  0  0  0  0  0  0  0  0
   10.8743    1.5008   22.5014 H   0  0  0  0  0  0  0  0  0  0  0  0
    6.7486    0.4313   16.8331 H   0  0  0  0  0  0  0  0  0  0  0  0
    8.0897   -1.6082   21.0890 H   0  0  0  0  0  0  0  0  0  0  0  0
  1  2  1  0  0  0  0
  1  3  2  0  0  0  0
  2  4  2  0  0  0  0
  3 12  1  0  0  0  0
  4 14  1  0  0  0  0
  5  7  2  0  0  0  0
  5 15  1  0  0  0  0
  6  8  1  0  0  0  0
  6 15  2  0  0  0  0
  7 16  1  0  0  0  0
  8 16  2  0  0  0  0
  9 10  2  0  0  0  0
  9 13  1  0  0  0  0
 10 31  1  0  0  0  0
 11 13  2  0  0  0  0
 11 31  1  0  0  0  0
 12 14  2  0  0  0  0
 12 17  1  0  0  0  0
 13 24  1  0  0  0  0
 14 26  1  0  0  0  0
 15 27  1  0  0  0  0
 16 29  1  0  0  0  0
 17 25  2  0  0  0  0
 17 28  1  0  0  0  0
 18 28  1  0  0  0  0
 18 29  1  0  0  0  0
 18 30  2  0  0  0  0
 19 20  1  0  0  0  0
 19 21  1  0  0  0  0
 20 22  1  0  0  0  0
 21 23  1  0  0  0  0
 22 27  1  0  0  0  0
 23 27  1  0  0  0  0
 24 29  1  0  0  0  0
 25 26  1  0  0  0  0
  1 32  1  0  0  0  0
  2 33  1  0  0  0  0
  3 34  1  0  0  0  0
  4 35  1  0  0  0  0
  5 36  1  0  0  0  0
  6 37  1  0  0  0  0
  7 38  1  0  0  0  0
  8 39  1  0  0  0  0
  9 40  1  0  0  0  0
 10 41  1  0  0  0  0
 11 42  1  0  0  0  0
 19 43  1  0  0  0  0
 19 44  1  0  0  0  0
 20 45  1  0  0  0  0
 20 46  1  0  0  0  0
 21 47  1  0  0  0  0
 21 48  1  0  0  0  0
 22 49  1  0  0  0  0
 22 50  1  0  0  0  0
 23 51  1  0  0  0  0
 23 52  1  0  0  0  0
 24 53  1  0  0  0  0
 24 54  1  0  0  0  0
 26 55  1  0  0  0  0
 28 56  1  0  0  0  0
M  END
> <clash_score>
0

> <docking_score>
-8.889848709106445

> <overlap_score>
0.9766672849655151

$$$$
BENZO_69_1
  -OEChem-08222022433D

 47 50  0     0  0  0  0  0  0999 V2000
   14.2641   -1.7450   23.4813 C   0  0  0  0  0  0  0  0  0  0  0  0
    4.2460    1.7520   20.8250 C   0  0  0  0  0  0  0  0  0  0  0  0
   14.0779   -0.6681   24.3480 C   0  0  0  0  0  0  0  0  0  0  0  0
   13.2991   -2.0403   22.5184 C   0  0  0  0  0  0  0  0  0  0  0  0
    3.8860    2.1050   19.5250 C   0  0  0  0  0  0  0  0  0  0  0  0
    5.3890    1.0010   21.0690 C   0  0  0  0  0  0  0  0  0  0  0  0
   12.9266    0.1135   24.2518 C   0  0  0  0  0  0  0  0  0  0  0  0
   12.1478   -1.2587   22.4222 C   0  0  0  0  0  0  0  0  0  0  0  0
    9.1890   -3.5540   24.0140 C   0  0  0  0  0  0  0  0  0  0  0  0
    7.8700   -2.0610   25.3550 C   0  0  0  0  0  0  0  0  0  0  0  0
    4.6610    1.7170   18.4380 C   0  0  0  0  0  0  0  0  0  0  0  0
    9.5890   -2.4950   23.2210 C   0  0  0  0  0  0  0  0  0  0  0  0
    8.2550   -1.0010   24.5520 C   0  0  0  0  0  0  0  0  0  0  0  0
    6.1460    0.6070   19.9750 C   0  0  0  0  0  0  0  0  0  0  0  0
    8.3450   -3.3440   25.0980 C   0  0  0  0  0  0  0  0  0  0  0  0
   11.9616   -0.1817   23.2889 C   0  0  0  0  0  0  0  0  0  0  0  0
    5.7970    0.9500   18.6730 C   0  0  0  0  0  0  0  0  0  0  0  0
    9.1280   -1.2090   23.4870 C   0  0  0  0  0  0  0  0  0  0  0  0
    7.2710   -0.1460   19.8310 C   0  0  0  0  0  0  0  0  0  0  0  0
    9.0430    0.2380   21.4940 C   0  0  0  0  0  0  0  0  0  0  0  0
    7.9522   -4.4794   25.9764 C   0  0  0  0  0  0  0  0  0  0  0  0
   10.7220    0.6590   23.1850 C   0  0  0  0  0  0  0  0  0  0  0  0
    7.5840   -0.2700   18.5160 N   0  0  0  0  0  0  0  0  0  0  0  0
    6.7100    0.3850   17.8100 N   0  0  0  0  0  0  0  0  0  0  0  0
    8.0950   -0.7700   20.8440 N   0  0  0  0  0  0  0  0  0  0  0  0
    9.5820   -0.1080   22.7000 N   0  0  0  0  0  0  0  0  0  0  0  0
    9.2950    1.3000   20.9480 O   0  0  0  0  0  0  0  0  0  0  0  0
   15.1613   -2.3527   23.5555 H   0  0  0  0  0  0  0  0  0  0  0  0
    3.6223    2.0725   21.6574 H   0  0  0  0  0  0  0  0  0  0  0  0
   14.8297   -0.4373   25.0971 H   0  0  0  0  0  0  0  0  0  0  0  0
   13.4443   -2.8780   21.8427 H   0  0  0  0  0  0  0  0  0  0  0  0
    2.9864    2.6933   19.3609 H   0  0  0  0  0  0  0  0  0  0  0  0
    5.6689    0.7392   22.0836 H   0  0  0  0  0  0  0  0  0  0  0  0
   12.7899    0.9506   24.9315 H   0  0  0  0  0  0  0  0  0  0  0  0
   11.4013   -1.4963   21.6690 H   0  0  0  0  0  0  0  0  0  0  0  0
    9.5403   -4.5627   23.7809 H   0  0  0  0  0  0  0  0  0  0  0  0
    7.1911   -1.8848   26.1904 H   0  0  0  0  0  0  0  0  0  0  0  0
    4.3807    2.0116   17.4186 H   0  0  0  0  0  0  0  0  0  0  0  0
   10.2682   -2.6746   22.3865 H   0  0  0  0  0  0  0  0  0  0  0  0
    7.8684   -0.0022   24.7594 H   0  0  0  0  0  0  0  0  0  0  0  0
    8.6668   -4.5891   26.8013 H   0  0  0  0  0  0  0  0  0  0  0  0
    6.9513   -4.3276   26.4010 H   0  0  0  0  0  0  0  0  0  0  0  0
    7.9196   -5.4231   25.4163 H   0  0  0  0  0  0  0  0  0  0  0  0
   10.4561    1.0772   24.1620 H   0  0  0  0  0  0  0  0  0  0  0  0
   10.8743    1.5008   22.5014 H   0  0  0  0  0  0  0  0  0  0  0  0
    6.7486    0.4313   16.8331 H   0  0  0  0  0  0  0  0  0  0  0  0
    8.0733   -1.6163   21.0749 H   0  0  0  0  0  0  0  0  0  0  0  0
  1  3  1  0  0  0  0
  1  4  2  0  0  0  0
  2  5  1  0  0  0  0
  2  6  2  0  0  0  0
  3  7  2  0  0  0  0
  4  8  1  0  0  0  0
  5 11  2  0  0  0  0
  6 14  1  0  0  0  0
  7 16  1  0  0  0  0
  8 16  2  0  0  0  0
  9 12  2  0  0  0  0
  9 15  1  0  0  0  0
 10 13  1  0  0  0  0
 10 15  2  0  0  0  0
 11 17  1  0  0  0  0
 12 18  1  0  0  0  0
 13 18  2  0  0  0  0
 14 17  2  0  0  0  0
 14 19  1  0  0  0  0
 15 21  1  0  0  0  0
 16 22  1  0  0  0  0
 17 24  1  0  0  0  0
 18 26  1  0  0  0  0
 19 23  2  0  0  0  0
 19 25  1  0  0  0  0
 20 25  1  0  0  0  0
 20 26  1  0  0  0  0
 20 27  2  0  0  0  0
 22 26  1  0  0  0  0
 23 24  1  0  0  0  0
  1 28  1  0  0  0  0
  2 29  1  0  0  0  0
  3 30  1  0  0  0  0
  4 31  1  0  0  0  0
  5 32  1  0  0  0  0
  6 33  1  0  0  0  0
  7 34  1  0  0  0  0
  8 35  1  0  0  0  0
  9 36  1  0  0  0  0
 10 37  1  0  0  0  0
 11 38  1  0  0  0  0
 12 39  1  0  0  0  0
 13 40  1  0  0  0  0
 21 41  1  0  0  0  0
 21 42  1  0  0  0  0
 21 43  1  0  0  0  0
 22 44  1  0  0  0  0
 22 45  1  0  0  0  0
 24 46  1  0  0  0  0
 25 47  1  0  0  0  0
M  END
> <clash_score>
0

> <docking_score>
-8.548067092895508

> <overlap_score>
0.9021970629692078

$$$$
BENZO_68_1
  -OEChem-08222022433D

 44 47  0     0  0  0  0  0  0999 V2000
    4.2460    1.7520   20.8250 C   0  0  0  0  0  0  0  0  0  0  0  0
    3.8860    2.1050   19.5250 C   0  0  0  0  0  0  0  0  0  0  0  0
    5.3890    1.0010   21.0690 C   0  0  0  0  0  0  0  0  0  0  0  0
    9.1890   -3.5540   24.0140 C   0  0  0  0  0  0  0  0  0  0  0  0
    7.8700   -2.0610   25.3550 C   0  0  0  0  0  0  0  0  0  0  0  0
    4.6610    1.7170   18.4380 C   0  0  0  0  0  0  0  0  0  0  0  0
    9.5890   -2.4950   23.2210 C   0  0  0  0  0  0  0  0  0  0  0  0
    8.2550   -1.0010   24.5520 C   0  0  0  0  0  0  0  0  0  0  0  0
   12.6785   -0.3937   24.5018 C   0  0  0  0  0  0  0  0  0  0  0  0
   13.7775   -1.2037   24.3186 C   0  0  0  0  0  0  0  0  0  0  0  0
   12.5401   -0.8378   22.2246 C   0  0  0  0  0  0  0  0  0  0  0  0
    6.1460    0.6070   19.9750 C   0  0  0  0  0  0  0  0  0  0  0  0
    8.3450   -3.3440   25.0980 C   0  0  0  0  0  0  0  0  0  0  0  0
   11.9616   -0.1817   23.2889 C   0  0  0  0  0  0  0  0  0  0  0  0
    5.7970    0.9500   18.6730 C   0  0  0  0  0  0  0  0  0  0  0  0
    9.1280   -1.2090   23.4870 C   0  0  0  0  0  0  0  0  0  0  0  0
    7.2710   -0.1460   19.8310 C   0  0  0  0  0  0  0  0  0  0  0  0
    9.0430    0.2380   21.4940 C   0  0  0  0  0  0  0  0  0  0  0  0
    7.9522   -4.4794   25.9764 C   0  0  0  0  0  0  0  0  0  0  0  0
   10.7220    0.6590   23.1850 C   0  0  0  0  0  0  0  0  0  0  0  0
    7.5840   -0.2700   18.5160 N   0  0  0  0  0  0  0  0  0  0  0  0
    6.7100    0.3850   17.8100 N   0  0  0  0  0  0  0  0  0  0  0  0
    8.0950   -0.7700   20.8440 N   0  0  0  0  0  0  0  0  0  0  0  0
    9.5820   -0.1080   22.7000 N   0  0  0  0  0  0  0  0  0  0  0  0
    9.2950    1.3000   20.9480 O   0  0  0  0  0  0  0  0  0  0  0  0
   13.9416   -1.7051   22.6894 S   0  0  0  0  0  0  0  0  0  0  0  0
    3.6223    2.0725   21.6574 H   0  0  0  0  0  0  0  0  0  0  0  0
    2.9864    2.6933   19.3609 H   0  0  0  0  0  0  0  0  0  0  0  0
    5.6689    0.7392   22.0836 H   0  0  0  0  0  0  0  0  0  0  0  0
    9.5403   -4.5627   23.7809 H   0  0  0  0  0  0  0  0  0  0  0  0
    7.1911   -1.8848   26.1904 H   0  0  0  0  0  0  0  0  0  0  0  0
    4.3807    2.0116   17.4186 H   0  0  0  0  0  0  0  0  0  0  0  0
   10.2682   -2.6746   22.3865 H   0  0  0  0  0  0  0  0  0  0  0  0
    7.8684   -0.0022   24.7594 H   0  0  0  0  0  0  0  0  0  0  0  0
   12.4058    0.0253   25.4623 H   0  0  0  0  0  0  0  0  0  0  0  0
   14.4923   -1.5246   25.0631 H   0  0  0  0  0  0  0  0  0  0  0  0
   12.2108   -0.8511   21.1948 H   0  0  0  0  0  0  0  0  0  0  0  0
    8.6668   -4.5891   26.8013 H   0  0  0  0  0  0  0  0  0  0  0  0
    6.9513   -4.3276   26.4010 H   0  0  0  0  0  0  0  0  0  0  0  0
    7.9196   -5.4231   25.4163 H   0  0  0  0  0  0  0  0  0  0  0  0
   10.4561    1.0772   24.1620 H   0  0  0  0  0  0  0  0  0  0  0  0
   10.8743    1.5008   22.5014 H   0  0  0  0  0  0  0  0  0  0  0  0
    6.7486    0.4313   16.8331 H   0  0  0  0  0  0  0  0  0  0  0  0
    8.0733   -1.6163   21.0749 H   0  0  0  0  0  0  0  0  0  0  0  0
  1  2  1  0  0  0  0
  1  3  2  0  0  0  0
  2  6  2  0  0  0  0
  3 12  1  0  0  0  0
  4  7  2  0  0  0  0
  4 13  1  0  0  0  0
  5  8  1  0  0  0  0
  5 13  2  0  0  0  0
  6 15  1  0  0  0  0
  7 16  1  0  0  0  0
  8 16  2  0  0  0  0
  9 10  2  0  0  0  0
  9 14  1  0  0  0  0
 10 26  1  0  0  0  0
 11 14  2  0  0  0  0
 11 26  1  0  0  0  0
 12 15  2  0  0  0  0
 12 17  1  0  0  0  0
 13 19  1  0  0  0  0
 14 20  1  0  0  0  0
 15 22  1  0  0  0  0
 16 24  1  0  0  0  0
 17 21  2  0  0  0  0
 17 23  1  0  0  0  0
 18 23  1  0  0  0  0
 18 24  1  0  0  0  0
 18 25  2  0  0  0  0
 20 24  1  0  0  0  0
 21 22  1  0  0  0  0
  1 27  1  0  0  0  0
  2 28  1  0  0  0  0
  3 29  1  0  0  0  0
  4 30  1  0  0  0  0
  5 31  1  0  0  0  0
  6 32  1  0  0  0  0
  7 33  1  0  0  0  0
  8 34  1  0  0  0  0
  9 35  1  0  0  0  0
 10 36  1  0  0  0  0
 11 37  1  0  0  0  0
 19 38  1  0  0  0  0
 19 39  1  0  0  0  0
 19 40  1  0  0  0  0
 20 41  1  0  0  0  0
 20 42  1  0  0  0  0
 22 43  1  0  0  0  0
 23 44  1  0  0  0  0
M  END
> <clash_score>
0

> <docking_score>
-7.988737106323242

> <overlap_score>
0.8884324431419373

$$$$
BENZO_67_1
  -OEChem-08222022433D

 59 63  0     0  0  0  0  0  0999 V2000
    4.2460    1.7520   20.8250 C   0  0  0  0  0  0  0  0  0  0  0  0
    3.8860    2.1050   19.5250 C   0  0  0  0  0  0  0  0  0  0  0  0
    5.3890    1.0010   21.0690 C   0  0  0  0  0  0  0  0  0  0  0  0
    4.6610    1.7170   18.4380 C   0  0  0  0  0  0  0  0  0  0  0  0
    9.1890   -3.5540   24.0140 C   0  0  0  0  0  0  0  0  0  0  0  0
    7.8700   -2.0610   25.3550 C   0  0  0  0  0  0  0  0  0  0  0  0
    9.5890   -2.4950   23.2210 C   0  0  0  0  0  0  0  0  0  0  0  0
    8.2550   -1.0010   24.5520 C   0  0  0  0  0  0  0  0  0  0  0  0
   13.3010    0.2819   23.3762 C   0  0  0  0  0  0  0  0  0  0  0  0
   12.2469   -1.0164   21.9485 C   0  0  0  0  0  0  0  0  0  0  0  0
    6.1460    0.6070   19.9750 C   0  0  0  0  0  0  0  0  0  0  0  0
   12.0277    0.0001   22.8458 C   0  0  0  0  0  0  0  0  0  0  0  0
    5.7970    0.9500   18.6730 C   0  0  0  0  0  0  0  0  0  0  0  0
    8.3450   -3.3440   25.0980 C   0  0  0  0  0  0  0  0  0  0  0  0
    9.1280   -1.2090   23.4870 C   0  0  0  0  0  0  0  0  0  0  0  0
    7.2710   -0.1460   19.8310 C   0  0  0  0  0  0  0  0  0  0  0  0
    9.0430    0.2380   21.4940 C   0  0  0  0  0  0  0  0  0  0  0  0
    7.5748   -4.8280   28.7278 C   0  0  0  0  0  0  0  0  0  0  0  0
    8.9776   -4.7555   28.1204 C   0  0  0  0  0  0  0  0  0  0  0  0
    6.5554   -4.0713   27.8732 C   0  0  0  0  0  0  0  0  0  0  0  0
    8.9620   -5.1961   26.6568 C   0  0  0  0  0  0  0  0  0  0  0  0
    6.6009   -4.5253   26.4110 C   0  0  0  0  0  0  0  0  0  0  0  0
   14.2950   -2.2646   21.2232 C   0  0  0  0  0  0  0  0  0  0  0  0
   10.7220    0.6590   23.1850 C   0  0  0  0  0  0  0  0  0  0  0  0
   14.2580   -0.4932   22.8591 N   0  0  0  0  0  0  0  0  0  0  0  0
    7.5840   -0.2700   18.5160 N   0  0  0  0  0  0  0  0  0  0  0  0
    6.7100    0.3850   17.8100 N   0  0  0  0  0  0  0  0  0  0  0  0
   13.5858   -1.2720   21.9944 N   0  0  0  0  0  0  0  0  0  0  0  0
    7.9770   -4.4029   25.9162 N   0  0  0  0  0  0  0  0  0  0  0  0
    8.0950   -0.7700   20.8440 N   0  0  0  0  0  0  0  0  0  0  0  0
    9.5820   -0.1080   22.7000 N   0  0  0  0  0  0  0  0  0  0  0  0
    9.2950    1.3000   20.9480 O   0  0  0  0  0  0  0  0  0  0  0  0
    3.6223    2.0725   21.6574 H   0  0  0  0  0  0  0  0  0  0  0  0
    2.9864    2.6933   19.3609 H   0  0  0  0  0  0  0  0  0  0  0  0
    5.6689    0.7392   22.0836 H   0  0  0  0  0  0  0  0  0  0  0  0
    4.3807    2.0116   17.4186 H   0  0  0  0  0  0  0  0  0  0  0  0
    9.5426   -4.5618   23.7797 H   0  0  0  0  0  0  0  0  0  0  0  0
    7.1914   -1.8824   26.1903 H   0  0  0  0  0  0  0  0  0  0  0  0
   10.2669   -2.6745   22.3854 H   0  0  0  0  0  0  0  0  0  0  0  0
    7.8690   -0.0020   24.7587 H   0  0  0  0  0  0  0  0  0  0  0  0
   13.5736    1.0185   24.1187 H   0  0  0  0  0  0  0  0  0  0  0  0
   11.5805   -1.5669   21.2983 H   0  0  0  0  0  0  0  0  0  0  0  0
    7.2681   -5.8807   28.8239 H   0  0  0  0  0  0  0  0  0  0  0  0
    7.5891   -4.4101   29.7448 H   0  0  0  0  0  0  0  0  0  0  0  0
    9.3554   -3.7320   28.1920 H   0  0  0  0  0  0  0  0  0  0  0  0
    9.6558   -5.3943   28.6900 H   0  0  0  0  0  0  0  0  0  0  0  0
    5.5496   -4.2322   28.2751 H   0  0  0  0  0  0  0  0  0  0  0  0
    6.7545   -2.9948   27.9293 H   0  0  0  0  0  0  0  0  0  0  0  0
    9.9612   -5.0560   26.2363 H   0  0  0  0  0  0  0  0  0  0  0  0
    8.7097   -6.2583   26.5922 H   0  0  0  0  0  0  0  0  0  0  0  0
    6.2649   -5.5600   26.3335 H   0  0  0  0  0  0  0  0  0  0  0  0
    5.9271   -3.8964   25.8283 H   0  0  0  0  0  0  0  0  0  0  0  0
   14.6200   -1.7975   20.2898 H   0  0  0  0  0  0  0  0  0  0  0  0
   15.1576   -2.6206   21.7932 H   0  0  0  0  0  0  0  0  0  0  0  0
   13.6285   -3.1071   21.0185 H   0  0  0  0  0  0  0  0  0  0  0  0
   10.6163    0.7710   24.2696 H   0  0  0  0  0  0  0  0  0  0  0  0
   10.6620    1.6610   22.7472 H   0  0  0  0  0  0  0  0  0  0  0  0
    6.7486    0.4313   16.8331 H   0  0  0  0  0  0  0  0  0  0  0  0
    8.0897   -1.6082   21.0890 H   0  0  0  0  0  0  0  0  0  0  0  0
  1  2  1  0  0  0  0
  1  3  2  0  0  0  0
  2  4  2  0  0  0  0
  3 11  1  0  0  0  0
  4 13  1  0  0  0  0
  5  7  2  0  0  0  0
  5 14  1  0  0  0  0
  6  8  1  0  0  0  0
  6 14  2  0  0  0  0
  7 15  1  0  0  0  0
  8 15  2  0  0  0  0
  9 12  1  0  0  0  0
  9 25  2  0  0  0  0
 10 12  2  0  0  0  0
 10 28  1  0  0  0  0
 11 13  2  0  0  0  0
 11 16  1  0  0  0  0
 12 24  1  0  0  0  0
 13 27  1  0  0  0  0
 14 29  1  0  0  0  0
 15 31  1  0  0  0  0
 16 26  2  0  0  0  0
 16 30  1  0  0  0  0
 17 30  1  0  0  0  0
 17 31  1  0  0  0  0
 17 32  2  0  0  0  0
 18 19  1  0  0  0  0
 18 20  1  0  0  0  0
 19 21  1  0  0  0  0
 20 22  1  0  0  0  0
 21 29  1  0  0  0  0
 22 29  1  0  0  0  0
 23 28  1  0  0  0  0
 24 31  1  0  0  0  0
 25 28  1  0  0  0  0
 26 27  1  0  0  0  0
  1 33  1  0  0  0  0
  2 34  1  0  0  0  0
  3 35  1  0  0  0  0
  4 36  1  0  0  0  0
  5 37  1  0  0  0  0
  6 38  1  0  0  0  0
  7 39  1  0  0  0  0
  8 40  1  0  0  0  0
  9 41  1  0  0  0  0
 10 42  1  0  0  0  0
 18 43  1  0  0  0  0
 18 44  1  0  0  0  0
 19 45  1  0  0  0  0
 19 46  1  0  0  0  0
 20 47  1  0  0  0  0
 20 48  1  0  0  0  0
 21 49  1  0  0  0  0
 21 50  1  0  0  0  0
 22 51  1  0  0  0  0
 22 52  1  0  0  0  0
 23 53  1  0  0  0  0
 23 54  1  0  0  0  0
 23 55  1  0  0  0  0
 24 56  1  0  0  0  0
 24 57  1  0  0  0  0
 27 58  1  0  0  0  0
 30 59  1  0  0  0  0
M  END
> <clash_score>
0

> <docking_score>
-8.893123626708984

> <overlap_score>
0.9690294861793518

$$$$
BENZO_66_1
  -OEChem-08222022433D

 59 63  0     0  0  0  0  0  0999 V2000
    4.2460    1.7520   20.8250 C   0  0  0  0  0  0  0  0  0  0  0  0
    3.8860    2.1050   19.5250 C   0  0  0  0  0  0  0  0  0  0  0  0
   13.7501   -1.1157   24.6176 C   0  0  0  0  0  0  0  0  0  0  0  0
    5.3890    1.0010   21.0690 C   0  0  0  0  0  0  0  0  0  0  0  0
   12.5991   -0.3339   24.5202 C   0  0  0  0  0  0  0  0  0  0  0  0
    4.6610    1.7170   18.4380 C   0  0  0  0  0  0  0  0  0  0  0  0
    9.1890   -3.5540   24.0140 C   0  0  0  0  0  0  0  0  0  0  0  0
    7.8700   -2.0610   25.3550 C   0  0  0  0  0  0  0  0  0  0  0  0
    9.5890   -2.4950   23.2210 C   0  0  0  0  0  0  0  0  0  0  0  0
    8.2550   -1.0010   24.5520 C   0  0  0  0  0  0  0  0  0  0  0  0
   14.2636   -1.7454   23.4838 C   0  0  0  0  0  0  0  0  0  0  0  0
   12.4750   -0.8115   22.1551 C   0  0  0  0  0  0  0  0  0  0  0  0
    6.1460    0.6070   19.9750 C   0  0  0  0  0  0  0  0  0  0  0  0
   11.9616   -0.1817   23.2889 C   0  0  0  0  0  0  0  0  0  0  0  0
    5.7970    0.9500   18.6730 C   0  0  0  0  0  0  0  0  0  0  0  0
    8.3450   -3.3440   25.0980 C   0  0  0  0  0  0  0  0  0  0  0  0
    9.1280   -1.2090   23.4870 C   0  0  0  0  0  0  0  0  0  0  0  0
   13.6260   -1.5933   22.2526 C   0  0  0  0  0  0  0  0  0  0  0  0
    7.2710   -0.1460   19.8310 C   0  0  0  0  0  0  0  0  0  0  0  0
    9.0430    0.2380   21.4940 C   0  0  0  0  0  0  0  0  0  0  0  0
    7.5748   -4.8280   28.7278 C   0  0  0  0  0  0  0  0  0  0  0  0
    8.9776   -4.7555   28.1204 C   0  0  0  0  0  0  0  0  0  0  0  0
    6.5554   -4.0713   27.8732 C   0  0  0  0  0  0  0  0  0  0  0  0
    8.9620   -5.1961   26.6568 C   0  0  0  0  0  0  0  0  0  0  0  0
    6.6009   -4.5253   26.4110 C   0  0  0  0  0  0  0  0  0  0  0  0
   10.7220    0.6590   23.1850 C   0  0  0  0  0  0  0  0  0  0  0  0
    7.5840   -0.2700   18.5160 N   0  0  0  0  0  0  0  0  0  0  0  0
    6.7100    0.3850   17.8100 N   0  0  0  0  0  0  0  0  0  0  0  0
    7.9770   -4.4029   25.9162 N   0  0  0  0  0  0  0  0  0  0  0  0
    8.0950   -0.7700   20.8440 N   0  0  0  0  0  0  0  0  0  0  0  0
    9.5820   -0.1080   22.7000 N   0  0  0  0  0  0  0  0  0  0  0  0
    9.2950    1.3000   20.9480 O   0  0  0  0  0  0  0  0  0  0  0  0
   14.2594   -2.3714   20.8543 Cl  0  0  0  0  0  0  0  0  0  0  0  0
    3.6223    2.0725   21.6574 H   0  0  0  0  0  0  0  0  0  0  0  0
    2.9864    2.6933   19.3609 H   0  0  0  0  0  0  0  0  0  0  0  0
   14.2462   -1.2340   25.5766 H   0  0  0  0  0  0  0  0  0  0  0  0
    5.6689    0.7392   22.0836 H   0  0  0  0  0  0  0  0  0  0  0  0
   12.2060    0.1530   25.4088 H   0  0  0  0  0  0  0  0  0  0  0  0
    4.3807    2.0116   17.4186 H   0  0  0  0  0  0  0  0  0  0  0  0
    9.5426   -4.5618   23.7797 H   0  0  0  0  0  0  0  0  0  0  0  0
    7.1914   -1.8824   26.1903 H   0  0  0  0  0  0  0  0  0  0  0  0
   10.2669   -2.6745   22.3854 H   0  0  0  0  0  0  0  0  0  0  0  0
    7.8690   -0.0020   24.7587 H   0  0  0  0  0  0  0  0  0  0  0  0
   15.1613   -2.3520   23.5747 H   0  0  0  0  0  0  0  0  0  0  0  0
   11.9745   -0.6893   21.1973 H   0  0  0  0  0  0  0  0  0  0  0  0
    7.2681   -5.8807   28.8239 H   0  0  0  0  0  0  0  0  0  0  0  0
    7.5891   -4.4101   29.7448 H   0  0  0  0  0  0  0  0  0  0  0  0
    9.3554   -3.7320   28.1920 H   0  0  0  0  0  0  0  0  0  0  0  0
    9.6558   -5.3943   28.6900 H   0  0  0  0  0  0  0  0  0  0  0  0
    5.5496   -4.2322   28.2751 H   0  0  0  0  0  0  0  0  0  0  0  0
    6.7545   -2.9948   27.9293 H   0  0  0  0  0  0  0  0  0  0  0  0
    9.9612   -5.0560   26.2363 H   0  0  0  0  0  0  0  0  0  0  0  0
    8.7097   -6.2583   26.5922 H   0  0  0  0  0  0  0  0  0  0  0  0
    6.2649   -5.5600   26.3335 H   0  0  0  0  0  0  0  0  0  0  0  0
    5.9271   -3.8964   25.8283 H   0  0  0  0  0  0  0  0  0  0  0  0
   10.4561    1.0772   24.1620 H   0  0  0  0  0  0  0  0  0  0  0  0
   10.8743    1.5008   22.5014 H   0  0  0  0  0  0  0  0  0  0  0  0
    6.7486    0.4313   16.8331 H   0  0  0  0  0  0  0  0  0  0  0  0
    8.0897   -1.6082   21.0890 H   0  0  0  0  0  0  0  0  0  0  0  0
  1  2  1  0  0  0  0
  1  4  2  0  0  0  0
  2  6  2  0  0  0  0
  3  5  2  0  0  0  0
  3 11  1  0  0  0  0
  4 13  1  0  0  0  0
  5 14  1  0  0  0  0
  6 15  1  0  0  0  0
  7  9  2  0  0  0  0
  7 16  1  0  0  0  0
  8 10  1  0  0  0  0
  8 16  2  0  0  0  0
  9 17  1  0  0  0  0
 10 17  2  0  0  0  0
 11 18  2  0  0  0  0
 12 14  2  0  0  0  0
 12 18  1  0  0  0  0
 13 15  2  0  0  0  0
 13 19  1  0  0  0  0
 14 26  1  0  0  0  0
 15 28  1  0  0  0  0
 16 29  1  0  0  0  0
 17 31  1  0  0  0  0
 18 33  1  0  0  0  0
 19 27  2  0  0  0  0
 19 30  1  0  0  0  0
 20 30  1  0  0  0  0
 20 31  1  0  0  0  0
 20 32  2  0  0  0  0
 21 22  1  0  0  0  0
 21 23  1  0  0  0  0
 22 24  1  0  0  0  0
 23 25  1  0  0  0  0
 24 29  1  0  0  0  0
 25 29  1  0  0  0  0
 26 31  1  0  0  0  0
 27 28  1  0  0  0  0
  1 34  1  0  0  0  0
  2 35  1  0  0  0  0
  3 36  1  0  0  0  0
  4 37  1  0  0  0  0
  5 38  1  0  0  0  0
  6 39  1  0  0  0  0
  7 40  1  0  0  0  0
  8 41  1  0  0  0  0
  9 42  1  0  0  0  0
 10 43  1  0  0  0  0
 11 44  1  0  0  0  0
 12 45  1  0  0  0  0
 21 46  1  0  0  0  0
 21 47  1  0  0  0  0
 22 48  1  0  0  0  0
 22 49  1  0  0  0  0
 23 50  1  0  0  0  0
 23 51  1  0  0  0  0
 24 52  1  0  0  0  0
 24 53  1  0  0  0  0
 25 54  1  0  0  0  0
 25 55  1  0  0  0  0
 26 56  1  0  0  0  0
 26 57  1  0  0  0  0
 28 58  1  0  0  0  0
 30 59  1  0  0  0  0
M  END
> <clash_score>
0

> <docking_score>
-8.403053283691406

> <overlap_score>
0.9978207945823669

$$$$
BENZO_71_1
  -OEChem-08222022433D

 47 50  0     0  0  0  0  0  0999 V2000
    4.2460    1.7520   20.8250 C   0  0  0  0  0  0  0  0  0  0  0  0
    3.8860    2.1050   19.5250 C   0  0  0  0  0  0  0  0  0  0  0  0
    5.3890    1.0010   21.0690 C   0  0  0  0  0  0  0  0  0  0  0  0
    9.1890   -3.5540   24.0140 C   0  0  0  0  0  0  0  0  0  0  0  0
    7.8700   -2.0610   25.3550 C   0  0  0  0  0  0  0  0  0  0  0  0
    4.6610    1.7170   18.4380 C   0  0  0  0  0  0  0  0  0  0  0  0
    9.5890   -2.4950   23.2210 C   0  0  0  0  0  0  0  0  0  0  0  0
    8.2550   -1.0010   24.5520 C   0  0  0  0  0  0  0  0  0  0  0  0
   12.7320   -0.4464   24.4370 C   0  0  0  0  0  0  0  0  0  0  0  0
   12.5970   -0.8682   22.2832 C   0  0  0  0  0  0  0  0  0  0  0  0
    6.1460    0.6070   19.9750 C   0  0  0  0  0  0  0  0  0  0  0  0
    8.3450   -3.3440   25.0980 C   0  0  0  0  0  0  0  0  0  0  0  0
   11.9616   -0.1817   23.2889 C   0  0  0  0  0  0  0  0  0  0  0  0
    5.7970    0.9500   18.6730 C   0  0  0  0  0  0  0  0  0  0  0  0
    9.1280   -1.2090   23.4870 C   0  0  0  0  0  0  0  0  0  0  0  0
    7.2710   -0.1460   19.8310 C   0  0  0  0  0  0  0  0  0  0  0  0
    9.0430    0.2380   21.4940 C   0  0  0  0  0  0  0  0  0  0  0  0
    7.9522   -4.4794   25.9764 C   0  0  0  0  0  0  0  0  0  0  0  0
   14.6393   -2.3180   22.2082 C   0  0  0  0  0  0  0  0  0  0  0  0
   10.7220    0.6590   23.1850 C   0  0  0  0  0  0  0  0  0  0  0  0
   13.7770   -1.2393   24.1852 N   0  0  0  0  0  0  0  0  0  0  0  0
    7.5840   -0.2700   18.5160 N   0  0  0  0  0  0  0  0  0  0  0  0
    6.7100    0.3850   17.8100 N   0  0  0  0  0  0  0  0  0  0  0  0
   13.6676   -1.4788   22.8673 N   0  0  0  0  0  0  0  0  0  0  0  0
    8.0950   -0.7700   20.8440 N   0  0  0  0  0  0  0  0  0  0  0  0
    9.5820   -0.1080   22.7000 N   0  0  0  0  0  0  0  0  0  0  0  0
    9.2950    1.3000   20.9480 O   0  0  0  0  0  0  0  0  0  0  0  0
    3.6223    2.0725   21.6574 H   0  0  0  0  0  0  0  0  0  0  0  0
    2.9864    2.6933   19.3609 H   0  0  0  0  0  0  0  0  0  0  0  0
    5.6689    0.7392   22.0836 H   0  0  0  0  0  0  0  0  0  0  0  0
    9.5403   -4.5627   23.7809 H   0  0  0  0  0  0  0  0  0  0  0  0
    7.1911   -1.8848   26.1904 H   0  0  0  0  0  0  0  0  0  0  0  0
    4.3807    2.0116   17.4186 H   0  0  0  0  0  0  0  0  0  0  0  0
   10.2682   -2.6746   22.3865 H   0  0  0  0  0  0  0  0  0  0  0  0
    7.8684   -0.0022   24.7594 H   0  0  0  0  0  0  0  0  0  0  0  0
   12.5771   -0.0965   25.4478 H   0  0  0  0  0  0  0  0  0  0  0  0
   12.3832   -0.9726   21.2281 H   0  0  0  0  0  0  0  0  0  0  0  0
    8.6668   -4.5891   26.8013 H   0  0  0  0  0  0  0  0  0  0  0  0
    6.9513   -4.3276   26.4010 H   0  0  0  0  0  0  0  0  0  0  0  0
    7.9196   -5.4231   25.4163 H   0  0  0  0  0  0  0  0  0  0  0  0
   15.4522   -1.6787   21.8540 H   0  0  0  0  0  0  0  0  0  0  0  0
   15.0179   -3.0613   22.9154 H   0  0  0  0  0  0  0  0  0  0  0  0
   14.1626   -2.8324   21.3691 H   0  0  0  0  0  0  0  0  0  0  0  0
   10.4561    1.0772   24.1620 H   0  0  0  0  0  0  0  0  0  0  0  0
   10.8743    1.5008   22.5014 H   0  0  0  0  0  0  0  0  0  0  0  0
    6.7486    0.4313   16.8331 H   0  0  0  0  0  0  0  0  0  0  0  0
    8.0733   -1.6163   21.0749 H   0  0  0  0  0  0  0  0  0  0  0  0
  1  2  1  0  0  0  0
  1  3  2  0  0  0  0
  2  6  2  0  0  0  0
  3 11  1  0  0  0  0
  4  7  2  0  0  0  0
  4 12  1  0  0  0  0
  5  8  1  0  0  0  0
  5 12  2  0  0  0  0
  6 14  1  0  0  0  0
  7 15  1  0  0  0  0
  8 15  2  0  0  0  0
  9 13  1  0  0  0  0
  9 21  2  0  0  0  0
 10 13  2  0  0  0  0
 10 24  1  0  0  0  0
 11 14  2  0  0  0  0
 11 16  1  0  0  0  0
 12 18  1  0  0  0  0
 13 20  1  0  0  0  0
 14 23  1  0  0  0  0
 15 26  1  0  0  0  0
 16 22  2  0  0  0  0
 16 25  1  0  0  0  0
 17 25  1  0  0  0  0
 17 26  1  0  0  0  0
 17 27  2  0  0  0  0
 19 24  1  0  0  0  0
 20 26  1  0  0  0  0
 21 24  1  0  0  0  0
 22 23  1  0  0  0  0
  1 28  1  0  0  0  0
  2 29  1  0  0  0  0
  3 30  1  0  0  0  0
  4 31  1  0  0  0  0
  5 32  1  0  0  0  0
  6 33  1  0  0  0  0
  7 34  1  0  0  0  0
  8 35  1  0  0  0  0
  9 36  1  0  0  0  0
 10 37  1  0  0  0  0
 18 38  1  0  0  0  0
 18 39  1  0  0  0  0
 18 40  1  0  0  0  0
 19 41  1  0  0  0  0
 19 42  1  0  0  0  0
 19 43  1  0  0  0  0
 20 44  1  0  0  0  0
 20 45  1  0  0  0  0
 23 46  1  0  0  0  0
 25 47  1  0  0  0  0
M  END
> <clash_score>
0

> <docking_score>
-6.737955093383789

> <overlap_score>
0.9054273366928101

$$$$
BENZO_70_1
  -OEChem-08222022433D

 47 50  0     0  0  0  0  0  0999 V2000
    4.2460    1.7520   20.8250 C   0  0  0  0  0  0  0  0  0  0  0  0
    3.8860    2.1050   19.5250 C   0  0  0  0  0  0  0  0  0  0  0  0
   13.7501   -1.1157   24.6177 C   0  0  0  0  0  0  0  0  0  0  0  0
    5.3890    1.0010   21.0690 C   0  0  0  0  0  0  0  0  0  0  0  0
   12.5991   -0.3339   24.5202 C   0  0  0  0  0  0  0  0  0  0  0  0
    9.1890   -3.5540   24.0140 C   0  0  0  0  0  0  0  0  0  0  0  0
    7.8700   -2.0610   25.3550 C   0  0  0  0  0  0  0  0  0  0  0  0
    4.6610    1.7170   18.4380 C   0  0  0  0  0  0  0  0  0  0  0  0
    9.5890   -2.4950   23.2210 C   0  0  0  0  0  0  0  0  0  0  0  0
    8.2550   -1.0010   24.5520 C   0  0  0  0  0  0  0  0  0  0  0  0
   14.2636   -1.7454   23.4838 C   0  0  0  0  0  0  0  0  0  0  0  0
   12.4750   -0.8115   22.1551 C   0  0  0  0  0  0  0  0  0  0  0  0
    6.1460    0.6070   19.9750 C   0  0  0  0  0  0  0  0  0  0  0  0
    8.3450   -3.3440   25.0980 C   0  0  0  0  0  0  0  0  0  0  0  0
   11.9616   -0.1817   23.2889 C   0  0  0  0  0  0  0  0  0  0  0  0
    5.7970    0.9500   18.6730 C   0  0  0  0  0  0  0  0  0  0  0  0
    9.1280   -1.2090   23.4870 C   0  0  0  0  0  0  0  0  0  0  0  0
   13.6260   -1.5933   22.2526 C   0  0  0  0  0  0  0  0  0  0  0  0
    7.2710   -0.1460   19.8310 C   0  0  0  0  0  0  0  0  0  0  0  0
    9.0430    0.2380   21.4940 C   0  0  0  0  0  0  0  0  0  0  0  0
    7.9522   -4.4794   25.9764 C   0  0  0  0  0  0  0  0  0  0  0  0
   10.7220    0.6590   23.1850 C   0  0  0  0  0  0  0  0  0  0  0  0
    7.5840   -0.2700   18.5160 N   0  0  0  0  0  0  0  0  0  0  0  0
    6.7100    0.3850   17.8100 N   0  0  0  0  0  0  0  0  0  0  0  0
    8.0950   -0.7700   20.8440 N   0  0  0  0  0  0  0  0  0  0  0  0
    9.5820   -0.1080   22.7000 N   0  0  0  0  0  0  0  0  0  0  0  0
    9.2950    1.3000   20.9480 O   0  0  0  0  0  0  0  0  0  0  0  0
   14.2594   -2.3714   20.8543 Cl  0  0  0  0  0  0  0  0  0  0  0  0
    3.6223    2.0725   21.6574 H   0  0  0  0  0  0  0  0  0  0  0  0
    2.9864    2.6933   19.3609 H   0  0  0  0  0  0  0  0  0  0  0  0
   14.2462   -1.2340   25.5766 H   0  0  0  0  0  0  0  0  0  0  0  0
    5.6689    0.7392   22.0836 H   0  0  0  0  0  0  0  0  0  0  0  0
   12.2060    0.1530   25.4088 H   0  0  0  0  0  0  0  0  0  0  0  0
    9.5403   -4.5627   23.7809 H   0  0  0  0  0  0  0  0  0  0  0  0
    7.1911   -1.8848   26.1904 H   0  0  0  0  0  0  0  0  0  0  0  0
    4.3807    2.0116   17.4186 H   0  0  0  0  0  0  0  0  0  0  0  0
   10.2682   -2.6746   22.3865 H   0  0  0  0  0  0  0  0  0  0  0  0
    7.8684   -0.0022   24.7594 H   0  0  0  0  0  0  0  0  0  0  0  0
   15.1613   -2.3520   23.5747 H   0  0  0  0  0  0  0  0  0  0  0  0
   11.9745   -0.6893   21.1973 H   0  0  0  0  0  0  0  0  0  0  0  0
    8.6668   -4.5891   26.8013 H   0  0  0  0  0  0  0  0  0  0  0  0
    6.9513   -4.3276   26.4010 H   0  0  0  0  0  0  0  0  0  0  0  0
    7.9196   -5.4231   25.4163 H   0  0  0  0  0  0  0  0  0  0  0  0
   10.4561    1.0772   24.1620 H   0  0  0  0  0  0  0  0  0  0  0  0
   10.8743    1.5008   22.5014 H   0  0  0  0  0  0  0  0  0  0  0  0
    6.7486    0.4313   16.8331 H   0  0  0  0  0  0  0  0  0  0  0  0
    8.0733   -1.6163   21.0749 H   0  0  0  0  0  0  0  0  0  0  0  0
  1  2  1  0  0  0  0
  1  4  2  0  0  0  0
  2  8  2  0  0  0  0
  3  5  2  0  0  0  0
  3 11  1  0  0  0  0
  4 13  1  0  0  0  0
  5 15  1  0  0  0  0
  6  9  2  0  0  0  0
  6 14  1  0  0  0  0
  7 10  1  0  0  0  0
  7 14  2  0  0  0  0
  8 16  1  0  0  0  0
  9 17  1  0  0  0  0
 10 17  2  0  0  0  0
 11 18  2  0  0  0  0
 12 15  2  0  0  0  0
 12 18  1  0  0  0  0
 13 16  2  0  0  0  0
 13 19  1  0  0  0  0
 14 21  1  0  0  0  0
 15 22  1  0  0  0  0
 16 24  1  0  0  0  0
 17 26  1  0  0  0  0
 18 28  1  0  0  0  0
 19 23  2  0  0  0  0
 19 25  1  0  0  0  0
 20 25  1  0  0  0  0
 20 26  1  0  0  0  0
 20 27  2  0  0  0  0
 22 26  1  0  0  0  0
 23 24  1  0  0  0  0
  1 29  1  0  0  0  0
  2 30  1  0  0  0  0
  3 31  1  0  0  0  0
  4 32  1  0  0  0  0
  5 33  1  0  0  0  0
  6 34  1  0  0  0  0
  7 35  1  0  0  0  0
  8 36  1  0  0  0  0
  9 37  1  0  0  0  0
 10 38  1  0  0  0  0
 11 39  1  0  0  0  0
 12 40  1  0  0  0  0
 21 41  1  0  0  0  0
 21 42  1  0  0  0  0
 21 43  1  0  0  0  0
 22 44  1  0  0  0  0
 22 45  1  0  0  0  0
 24 46  1  0  0  0  0
 25 47  1  0  0  0  0
M  END
> <clash_score>
0

> <docking_score>
-7.501935005187988

> <overlap_score>
0.9100707173347473

$$$$
BENZO_73_1
  -OEChem-08222022433D

 48 51  0     0  0  0  0  0  0999 V2000
   14.2641   -1.7450   23.4813 C   0  0  0  0  0  0  0  0  0  0  0  0
    4.2460    1.7520   20.8250 C   0  0  0  0  0  0  0  0  0  0  0  0
   14.0779   -0.6681   24.3480 C   0  0  0  0  0  0  0  0  0  0  0  0
   13.2991   -2.0403   22.5184 C   0  0  0  0  0  0  0  0  0  0  0  0
    3.8860    2.1050   19.5250 C   0  0  0  0  0  0  0  0  0  0  0  0
    5.3890    1.0010   21.0690 C   0  0  0  0  0  0  0  0  0  0  0  0
   12.9266    0.1135   24.2518 C   0  0  0  0  0  0  0  0  0  0  0  0
   12.1478   -1.2587   22.4222 C   0  0  0  0  0  0  0  0  0  0  0  0
    4.6610    1.7170   18.4380 C   0  0  0  0  0  0  0  0  0  0  0  0
    9.5890   -2.4950   23.2210 C   0  0  0  0  0  0  0  0  0  0  0  0
    8.2550   -1.0010   24.5520 C   0  0  0  0  0  0  0  0  0  0  0  0
    9.1890   -3.5540   24.0140 C   0  0  0  0  0  0  0  0  0  0  0  0
    7.8700   -2.0610   25.3550 C   0  0  0  0  0  0  0  0  0  0  0  0
    6.1460    0.6070   19.9750 C   0  0  0  0  0  0  0  0  0  0  0  0
   11.9616   -0.1817   23.2889 C   0  0  0  0  0  0  0  0  0  0  0  0
    5.7970    0.9500   18.6730 C   0  0  0  0  0  0  0  0  0  0  0  0
    9.1280   -1.2090   23.4870 C   0  0  0  0  0  0  0  0  0  0  0  0
    8.3450   -3.3440   25.0980 C   0  0  0  0  0  0  0  0  0  0  0  0
    7.2710   -0.1460   19.8310 C   0  0  0  0  0  0  0  0  0  0  0  0
    9.0430    0.2380   21.4940 C   0  0  0  0  0  0  0  0  0  0  0  0
    8.5123   -5.6657   25.5745 C   0  0  0  0  0  0  0  0  0  0  0  0
   10.7220    0.6590   23.1850 C   0  0  0  0  0  0  0  0  0  0  0  0
    7.5840   -0.2700   18.5160 N   0  0  0  0  0  0  0  0  0  0  0  0
    6.7100    0.3850   17.8100 N   0  0  0  0  0  0  0  0  0  0  0  0
    8.0950   -0.7700   20.8440 N   0  0  0  0  0  0  0  0  0  0  0  0
    9.5820   -0.1080   22.7000 N   0  0  0  0  0  0  0  0  0  0  0  0
    9.2950    1.3000   20.9480 O   0  0  0  0  0  0  0  0  0  0  0  0
    7.9864   -4.3799   25.8996 O   0  0  0  0  0  0  0  0  0  0  0  0
   15.1613   -2.3527   23.5555 H   0  0  0  0  0  0  0  0  0  0  0  0
    3.6223    2.0725   21.6574 H   0  0  0  0  0  0  0  0  0  0  0  0
   14.8297   -0.4373   25.0971 H   0  0  0  0  0  0  0  0  0  0  0  0
   13.4443   -2.8780   21.8427 H   0  0  0  0  0  0  0  0  0  0  0  0
    2.9864    2.6933   19.3609 H   0  0  0  0  0  0  0  0  0  0  0  0
    5.6689    0.7392   22.0836 H   0  0  0  0  0  0  0  0  0  0  0  0
   12.7899    0.9506   24.9315 H   0  0  0  0  0  0  0  0  0  0  0  0
   11.4013   -1.4963   21.6690 H   0  0  0  0  0  0  0  0  0  0  0  0
    4.3807    2.0116   17.4186 H   0  0  0  0  0  0  0  0  0  0  0  0
   10.2678   -2.6746   22.3862 H   0  0  0  0  0  0  0  0  0  0  0  0
    7.8691   -0.0023   24.7606 H   0  0  0  0  0  0  0  0  0  0  0  0
    9.5404   -4.5633   23.7846 H   0  0  0  0  0  0  0  0  0  0  0  0
    7.1920   -1.8875   26.1914 H   0  0  0  0  0  0  0  0  0  0  0  0
    8.1470   -6.4023   26.2943 H   0  0  0  0  0  0  0  0  0  0  0  0
    9.6044   -5.6298   25.5961 H   0  0  0  0  0  0  0  0  0  0  0  0
    8.1786   -5.9430   24.5718 H   0  0  0  0  0  0  0  0  0  0  0  0
   10.4561    1.0772   24.1620 H   0  0  0  0  0  0  0  0  0  0  0  0
   10.8743    1.5008   22.5014 H   0  0  0  0  0  0  0  0  0  0  0  0
    6.7486    0.4313   16.8331 H   0  0  0  0  0  0  0  0  0  0  0  0
    8.0733   -1.6163   21.0749 H   0  0  0  0  0  0  0  0  0  0  0  0
  1  3  1  0  0  0  0
  1  4  2  0  0  0  0
  2  5  1  0  0  0  0
  2  6  2  0  0  0  0
  3  7  2  0  0  0  0
  4  8  1  0  0  0  0
  5  9  2  0  0  0  0
  6 14  1  0  0  0  0
  7 15  1  0  0  0  0
  8 15  2  0  0  0  0
  9 16  1  0  0  0  0
 10 12  2  0  0  0  0
 10 17  1  0  0  0  0
 11 13  1  0  0  0  0
 11 17  2  0  0  0  0
 12 18  1  0  0  0  0
 13 18  2  0  0  0  0
 14 16  2  0  0  0  0
 14 19  1  0  0  0  0
 15 22  1  0  0  0  0
 16 24  1  0  0  0  0
 17 26  1  0  0  0  0
 18 28  1  0  0  0  0
 19 23  2  0  0  0  0
 19 25  1  0  0  0  0
 20 25  1  0  0  0  0
 20 26  1  0  0  0  0
 20 27  2  0  0  0  0
 21 28  1  0  0  0  0
 22 26  1  0  0  0  0
 23 24  1  0  0  0  0
  1 29  1  0  0  0  0
  2 30  1  0  0  0  0
  3 31  1  0  0  0  0
  4 32  1  0  0  0  0
  5 33  1  0  0  0  0
  6 34  1  0  0  0  0
  7 35  1  0  0  0  0
  8 36  1  0  0  0  0
  9 37  1  0  0  0  0
 10 38  1  0  0  0  0
 11 39  1  0  0  0  0
 12 40  1  0  0  0  0
 13 41  1  0  0  0  0
 21 42  1  0  0  0  0
 21 43  1  0  0  0  0
 21 44  1  0  0  0  0
 22 45  1  0  0  0  0
 22 46  1  0  0  0  0
 24 47  1  0  0  0  0
 25 48  1  0  0  0  0
M  END
> <clash_score>
0

> <docking_score>
-8.668227195739746

> <overlap_score>
0.9154638051986694

$$$$
BENZO_72_1
  -OEChem-08222022433D

 45 48  0     0  0  0  0  0  0999 V2000
    4.2460    1.7520   20.8250 C   0  0  0  0  0  0  0  0  0  0  0  0
    3.8860    2.1050   19.5250 C   0  0  0  0  0  0  0  0  0  0  0  0
    5.3890    1.0010   21.0690 C   0  0  0  0  0  0  0  0  0  0  0  0
    4.6610    1.7170   18.4380 C   0  0  0  0  0  0  0  0  0  0  0  0
    9.5890   -2.4950   23.2210 C   0  0  0  0  0  0  0  0  0  0  0  0
    8.2550   -1.0010   24.5520 C   0  0  0  0  0  0  0  0  0  0  0  0
    9.1890   -3.5540   24.0140 C   0  0  0  0  0  0  0  0  0  0  0  0
    7.8700   -2.0610   25.3550 C   0  0  0  0  0  0  0  0  0  0  0  0
   12.5566   -0.8597   22.1860 C   0  0  0  0  0  0  0  0  0  0  0  0
   13.6839   -1.5596   22.5559 C   0  0  0  0  0  0  0  0  0  0  0  0
   12.6568   -0.3896   24.4600 C   0  0  0  0  0  0  0  0  0  0  0  0
    6.1460    0.6070   19.9750 C   0  0  0  0  0  0  0  0  0  0  0  0
   11.9616   -0.1817   23.2889 C   0  0  0  0  0  0  0  0  0  0  0  0
    5.7970    0.9500   18.6730 C   0  0  0  0  0  0  0  0  0  0  0  0
    9.1280   -1.2090   23.4870 C   0  0  0  0  0  0  0  0  0  0  0  0
    8.3450   -3.3440   25.0980 C   0  0  0  0  0  0  0  0  0  0  0  0
    7.2710   -0.1460   19.8310 C   0  0  0  0  0  0  0  0  0  0  0  0
    9.0430    0.2380   21.4940 C   0  0  0  0  0  0  0  0  0  0  0  0
    8.5123   -5.6657   25.5745 C   0  0  0  0  0  0  0  0  0  0  0  0
   10.7220    0.6590   23.1850 C   0  0  0  0  0  0  0  0  0  0  0  0
    7.5840   -0.2700   18.5160 N   0  0  0  0  0  0  0  0  0  0  0  0
    6.7100    0.3850   17.8100 N   0  0  0  0  0  0  0  0  0  0  0  0
    8.0950   -0.7700   20.8440 N   0  0  0  0  0  0  0  0  0  0  0  0
    9.5820   -0.1080   22.7000 N   0  0  0  0  0  0  0  0  0  0  0  0
    9.2950    1.3000   20.9480 O   0  0  0  0  0  0  0  0  0  0  0  0
    7.9864   -4.3799   25.8996 O   0  0  0  0  0  0  0  0  0  0  0  0
   14.0209   -1.3981   24.2270 S   0  0  0  0  0  0  0  0  0  0  0  0
    3.6223    2.0725   21.6574 H   0  0  0  0  0  0  0  0  0  0  0  0
    2.9864    2.6933   19.3609 H   0  0  0  0  0  0  0  0  0  0  0  0
    5.6689    0.7392   22.0836 H   0  0  0  0  0  0  0  0  0  0  0  0
    4.3807    2.0116   17.4186 H   0  0  0  0  0  0  0  0  0  0  0  0
   10.2678   -2.6746   22.3862 H   0  0  0  0  0  0  0  0  0  0  0  0
    7.8691   -0.0023   24.7606 H   0  0  0  0  0  0  0  0  0  0  0  0
    9.5404   -4.5633   23.7846 H   0  0  0  0  0  0  0  0  0  0  0  0
    7.1920   -1.8875   26.1914 H   0  0  0  0  0  0  0  0  0  0  0  0
   12.1799   -0.8381   21.1711 H   0  0  0  0  0  0  0  0  0  0  0  0
   14.3253   -2.1586   21.9250 H   0  0  0  0  0  0  0  0  0  0  0  0
   12.4317   -0.0004   25.4433 H   0  0  0  0  0  0  0  0  0  0  0  0
    8.1470   -6.4023   26.2943 H   0  0  0  0  0  0  0  0  0  0  0  0
    9.6044   -5.6298   25.5961 H   0  0  0  0  0  0  0  0  0  0  0  0
    8.1786   -5.9430   24.5718 H   0  0  0  0  0  0  0  0  0  0  0  0
   10.4561    1.0772   24.1620 H   0  0  0  0  0  0  0  0  0  0  0  0
   10.8743    1.5008   22.5014 H   0  0  0  0  0  0  0  0  0  0  0  0
    6.7486    0.4313   16.8331 H   0  0  0  0  0  0  0  0  0  0  0  0
    8.0733   -1.6163   21.0749 H   0  0  0  0  0  0  0  0  0  0  0  0
  1  2  1  0  0  0  0
  1  3  2  0  0  0  0
  2  4  2  0  0  0  0
  3 12  1  0  0  0  0
  4 14  1  0  0  0  0
  5  7  2  0  0  0  0
  5 15  1  0  0  0  0
  6  8  1  0  0  0  0
  6 15  2  0  0  0  0
  7 16  1  0  0  0  0
  8 16  2  0  0  0  0
  9 10  2  0  0  0  0
  9 13  1  0  0  0  0
 10 27  1  0  0  0  0
 11 13  2  0  0  0  0
 11 27  1  0  0  0  0
 12 14  2  0  0  0  0
 12 17  1  0  0  0  0
 13 20  1  0  0  0  0
 14 22  1  0  0  0  0
 15 24  1  0  0  0  0
 16 26  1  0  0  0  0
 17 21  2  0  0  0  0
 17 23  1  0  0  0  0
 18 23  1  0  0  0  0
 18 24  1  0  0  0  0
 18 25  2  0  0  0  0
 19 26  1  0  0  0  0
 20 24  1  0  0  0  0
 21 22  1  0  0  0  0
  1 28  1  0  0  0  0
  2 29  1  0  0  0  0
  3 30  1  0  0  0  0
  4 31  1  0  0  0  0
  5 32  1  0  0  0  0
  6 33  1  0  0  0  0
  7 34  1  0  0  0  0
  8 35  1  0  0  0  0
  9 36  1  0  0  0  0
 10 37  1  0  0  0  0
 11 38  1  0  0  0  0
 19 39  1  0  0  0  0
 19 40  1  0  0  0  0
 19 41  1  0  0  0  0
 20 42  1  0  0  0  0
 20 43  1  0  0  0  0
 22 44  1  0  0  0  0
 23 45  1  0  0  0  0
M  END
> <clash_score>
0

> <docking_score>
-8.056925773620605

> <overlap_score>
0.9034131765365601

$$$$
BENZO_75_1
  -OEChem-08222022433D

 48 51  0     0  0  0  0  0  0999 V2000
    4.2460    1.7520   20.8250 C   0  0  0  0  0  0  0  0  0  0  0  0
    3.8860    2.1050   19.5250 C   0  0  0  0  0  0  0  0  0  0  0  0
    5.3890    1.0010   21.0690 C   0  0  0  0  0  0  0  0  0  0  0  0
    4.6610    1.7170   18.4380 C   0  0  0  0  0  0  0  0  0  0  0  0
    9.5890   -2.4950   23.2210 C   0  0  0  0  0  0  0  0  0  0  0  0
    8.2550   -1.0010   24.5520 C   0  0  0  0  0  0  0  0  0  0  0  0
    9.1890   -3.5540   24.0140 C   0  0  0  0  0  0  0  0  0  0  0  0
    7.8700   -2.0610   25.3550 C   0  0  0  0  0  0  0  0  0  0  0  0
   12.7320   -0.4464   24.4370 C   0  0  0  0  0  0  0  0  0  0  0  0
   12.5970   -0.8682   22.2832 C   0  0  0  0  0  0  0  0  0  0  0  0
    6.1460    0.6070   19.9750 C   0  0  0  0  0  0  0  0  0  0  0  0
   11.9616   -0.1817   23.2889 C   0  0  0  0  0  0  0  0  0  0  0  0
    5.7970    0.9500   18.6730 C   0  0  0  0  0  0  0  0  0  0  0  0
    9.1280   -1.2090   23.4870 C   0  0  0  0  0  0  0  0  0  0  0  0
    8.3450   -3.3440   25.0980 C   0  0  0  0  0  0  0  0  0  0  0  0
    7.2710   -0.1460   19.8310 C   0  0  0  0  0  0  0  0  0  0  0  0
    9.0430    0.2380   21.4940 C   0  0  0  0  0  0  0  0  0  0  0  0
   14.6393   -2.3180   22.2082 C   0  0  0  0  0  0  0  0  0  0  0  0
    8.5123   -5.6657   25.5745 C   0  0  0  0  0  0  0  0  0  0  0  0
   10.7220    0.6590   23.1850 C   0  0  0  0  0  0  0  0  0  0  0  0
   13.7770   -1.2393   24.1852 N   0  0  0  0  0  0  0  0  0  0  0  0
    7.5840   -0.2700   18.5160 N   0  0  0  0  0  0  0  0  0  0  0  0
    6.7100    0.3850   17.8100 N   0  0  0  0  0  0  0  0  0  0  0  0
   13.6676   -1.4788   22.8673 N   0  0  0  0  0  0  0  0  0  0  0  0
    8.0950   -0.7700   20.8440 N   0  0  0  0  0  0  0  0  0  0  0  0
    9.5820   -0.1080   22.7000 N   0  0  0  0  0  0  0  0  0  0  0  0
    9.2950    1.3000   20.9480 O   0  0  0  0  0  0  0  0  0  0  0  0
    7.9864   -4.3799   25.8996 O   0  0  0  0  0  0  0  0  0  0  0  0
    3.6223    2.0725   21.6574 H   0  0  0  0  0  0  0  0  0  0  0  0
    2.9864    2.6933   19.3609 H   0  0  0  0  0  0  0  0  0  0  0  0
    5.6689    0.7392   22.0836 H   0  0  0  0  0  0  0  0  0  0  0  0
    4.3807    2.0116   17.4186 H   0  0  0  0  0  0  0  0  0  0  0  0
   10.2678   -2.6746   22.3862 H   0  0  0  0  0  0  0  0  0  0  0  0
    7.8691   -0.0023   24.7606 H   0  0  0  0  0  0  0  0  0  0  0  0
    9.5404   -4.5633   23.7846 H   0  0  0  0  0  0  0  0  0  0  0  0
    7.1920   -1.8875   26.1914 H   0  0  0  0  0  0  0  0  0  0  0  0
   12.5771   -0.0965   25.4478 H   0  0  0  0  0  0  0  0  0  0  0  0
   12.3832   -0.9726   21.2281 H   0  0  0  0  0  0  0  0  0  0  0  0
   15.4522   -1.6787   21.8540 H   0  0  0  0  0  0  0  0  0  0  0  0
   15.0179   -3.0613   22.9154 H   0  0  0  0  0  0  0  0  0  0  0  0
   14.1626   -2.8324   21.3691 H   0  0  0  0  0  0  0  0  0  0  0  0
    8.1470   -6.4023   26.2943 H   0  0  0  0  0  0  0  0  0  0  0  0
    9.6044   -5.6298   25.5961 H   0  0  0  0  0  0  0  0  0  0  0  0
    8.1786   -5.9430   24.5718 H   0  0  0  0  0  0  0  0  0  0  0  0
   10.4561    1.0772   24.1620 H   0  0  0  0  0  0  0  0  0  0  0  0
   10.8743    1.5008   22.5014 H   0  0  0  0  0  0  0  0  0  0  0  0
    6.7486    0.4313   16.8331 H   0  0  0  0  0  0  0  0  0  0  0  0
    8.0733   -1.6163   21.0749 H   0  0  0  0  0  0  0  0  0  0  0  0
  1  2  1  0  0  0  0
  1  3  2  0  0  0  0
  2  4  2  0  0  0  0
  3 11  1  0  0  0  0
  4 13  1  0  0  0  0
  5  7  2  0  0  0  0
  5 14  1  0  0  0  0
  6  8  1  0  0  0  0
  6 14  2  0  0  0  0
  7 15  1  0  0  0  0
  8 15  2  0  0  0  0
  9 12  1  0  0  0  0
  9 21  2  0  0  0  0
 10 12  2  0  0  0  0
 10 24  1  0  0  0  0
 11 13  2  0  0  0  0
 11 16  1  0  0  0  0
 12 20  1  0  0  0  0
 13 23  1  0  0  0  0
 14 26  1  0  0  0  0
 15 28  1  0  0  0  0
 16 22  2  0  0  0  0
 16 25  1  0  0  0  0
 17 25  1  0  0  0  0
 17 26  1  0  0  0  0
 17 27  2  0  0  0  0
 18 24  1  0  0  0  0
 19 28  1  0  0  0  0
 20 26  1  0  0  0  0
 21 24  1  0  0  0  0
 22 23  1  0  0  0  0
  1 29  1  0  0  0  0
  2 30  1  0  0  0  0
  3 31  1  0  0  0  0
  4 32  1  0  0  0  0
  5 33  1  0  0  0  0
  6 34  1  0  0  0  0
  7 35  1  0  0  0  0
  8 36  1  0  0  0  0
  9 37  1  0  0  0  0
 10 38  1  0  0  0  0
 18 39  1  0  0  0  0
 18 40  1  0  0  0  0
 18 41  1  0  0  0  0
 19 42  1  0  0  0  0
 19 43  1  0  0  0  0
 19 44  1  0  0  0  0
 20 45  1  0  0  0  0
 20 46  1  0  0  0  0
 23 47  1  0  0  0  0
 25 48  1  0  0  0  0
M  END
> <clash_score>
0

> <docking_score>
-6.858116149902344

> <overlap_score>
0.9186853170394897

$$$$
BENZO_74_1
  -OEChem-08222022433D

 48 51  0     0  0  0  0  0  0999 V2000
    4.2460    1.7520   20.8250 C   0  0  0  0  0  0  0  0  0  0  0  0
    3.8860    2.1050   19.5250 C   0  0  0  0  0  0  0  0  0  0  0  0
   13.7501   -1.1157   24.6177 C   0  0  0  0  0  0  0  0  0  0  0  0
    5.3890    1.0010   21.0690 C   0  0  0  0  0  0  0  0  0  0  0  0
   12.5991   -0.3339   24.5202 C   0  0  0  0  0  0  0  0  0  0  0  0
    4.6610    1.7170   18.4380 C   0  0  0  0  0  0  0  0  0  0  0  0
    9.5890   -2.4950   23.2210 C   0  0  0  0  0  0  0  0  0  0  0  0
    8.2550   -1.0010   24.5520 C   0  0  0  0  0  0  0  0  0  0  0  0
    9.1890   -3.5540   24.0140 C   0  0  0  0  0  0  0  0  0  0  0  0
    7.8700   -2.0610   25.3550 C   0  0  0  0  0  0  0  0  0  0  0  0
   14.2636   -1.7454   23.4838 C   0  0  0  0  0  0  0  0  0  0  0  0
   12.4750   -0.8115   22.1551 C   0  0  0  0  0  0  0  0  0  0  0  0
    6.1460    0.6070   19.9750 C   0  0  0  0  0  0  0  0  0  0  0  0
   11.9616   -0.1817   23.2889 C   0  0  0  0  0  0  0  0  0  0  0  0
    5.7970    0.9500   18.6730 C   0  0  0  0  0  0  0  0  0  0  0  0
    9.1280   -1.2090   23.4870 C   0  0  0  0  0  0  0  0  0  0  0  0
    8.3450   -3.3440   25.0980 C   0  0  0  0  0  0  0  0  0  0  0  0
   13.6260   -1.5933   22.2526 C   0  0  0  0  0  0  0  0  0  0  0  0
    7.2710   -0.1460   19.8310 C   0  0  0  0  0  0  0  0  0  0  0  0
    9.0430    0.2380   21.4940 C   0  0  0  0  0  0  0  0  0  0  0  0
    8.5123   -5.6657   25.5745 C   0  0  0  0  0  0  0  0  0  0  0  0
   10.7220    0.6590   23.1850 C   0  0  0  0  0  0  0  0  0  0  0  0
    7.5840   -0.2700   18.5160 N   0  0  0  0  0  0  0  0  0  0  0  0
    6.7100    0.3850   17.8100 N   0  0  0  0  0  0  0  0  0  0  0  0
    8.0950   -0.7700   20.8440 N   0  0  0  0  0  0  0  0  0  0  0  0
    9.5820   -0.1080   22.7000 N   0  0  0  0  0  0  0  0  0  0  0  0
    9.2950    1.3000   20.9480 O   0  0  0  0  0  0  0  0  0  0  0  0
    7.9864   -4.3799   25.8996 O   0  0  0  0  0  0  0  0  0  0  0  0
   14.2594   -2.3714   20.8543 Cl  0  0  0  0  0  0  0  0  0  0  0  0
    3.6223    2.0725   21.6574 H   0  0  0  0  0  0  0  0  0  0  0  0
    2.9864    2.6933   19.3609 H   0  0  0  0  0  0  0  0  0  0  0  0
   14.2462   -1.2340   25.5766 H   0  0  0  0  0  0  0  0  0  0  0  0
    5.6689    0.7392   22.0836 H   0  0  0  0  0  0  0  0  0  0  0  0
   12.2060    0.1530   25.4088 H   0  0  0  0  0  0  0  0  0  0  0  0
    4.3807    2.0116   17.4186 H   0  0  0  0  0  0  0  0  0  0  0  0
   10.2678   -2.6746   22.3862 H   0  0  0  0  0  0  0  0  0  0  0  0
    7.8691   -0.0023   24.7606 H   0  0  0  0  0  0  0  0  0  0  0  0
    9.5404   -4.5633   23.7846 H   0  0  0  0  0  0  0  0  0  0  0  0
    7.1920   -1.8875   26.1914 H   0  0  0  0  0  0  0  0  0  0  0  0
   15.1613   -2.3520   23.5747 H   0  0  0  0  0  0  0  0  0  0  0  0
   11.9745   -0.6893   21.1973 H   0  0  0  0  0  0  0  0  0  0  0  0
    8.1470   -6.4023   26.2943 H   0  0  0  0  0  0  0  0  0  0  0  0
    9.6044   -5.6298   25.5961 H   0  0  0  0  0  0  0  0  0  0  0  0
    8.1786   -5.9430   24.5718 H   0  0  0  0  0  0  0  0  0  0  0  0
   10.4561    1.0772   24.1620 H   0  0  0  0  0  0  0  0  0  0  0  0
   10.8743    1.5008   22.5014 H   0  0  0  0  0  0  0  0  0  0  0  0
    6.7486    0.4313   16.8331 H   0  0  0  0  0  0  0  0  0  0  0  0
    8.0733   -1.6163   21.0749 H   0  0  0  0  0  0  0  0  0  0  0  0
  1  2  1  0  0  0  0
  1  4  2  0  0  0  0
  2  6  2  0  0  0  0
  3  5  2  0  0  0  0
  3 11  1  0  0  0  0
  4 13  1  0  0  0  0
  5 14  1  0  0  0  0
  6 15  1  0  0  0  0
  7  9  2  0  0  0  0
  7 16  1  0  0  0  0
  8 10  1  0  0  0  0
  8 16  2  0  0  0  0
  9 17  1  0  0  0  0
 10 17  2  0  0  0  0
 11 18  2  0  0  0  0
 12 14  2  0  0  0  0
 12 18  1  0  0  0  0
 13 15  2  0  0  0  0
 13 19  1  0  0  0  0
 14 22  1  0  0  0  0
 15 24  1  0  0  0  0
 16 26  1  0  0  0  0
 17 28  1  0  0  0  0
 18 29  1  0  0  0  0
 19 23  2  0  0  0  0
 19 25  1  0  0  0  0
 20 25  1  0  0  0  0
 20 26  1  0  0  0  0
 20 27  2  0  0  0  0
 21 28  1  0  0  0  0
 22 26  1  0  0  0  0
 23 24  1  0  0  0  0
  1 30  1  0  0  0  0
  2 31  1  0  0  0  0
  3 32  1  0  0  0  0
  4 33  1  0  0  0  0
  5 34  1  0  0  0  0
  6 35  1  0  0  0  0
  7 36  1  0  0  0  0
  8 37  1  0  0  0  0
  9 38  1  0  0  0  0
 10 39  1  0  0  0  0
 11 40  1  0  0  0  0
 12 41  1  0  0  0  0
 21 42  1  0  0  0  0
 21 43  1  0  0  0  0
 21 44  1  0  0  0  0
 22 45  1  0  0  0  0
 22 46  1  0  0  0  0
 24 47  1  0  0  0  0
 25 48  1  0  0  0  0
M  END
> <clash_score>
0

> <docking_score>
-7.622096061706543

> <overlap_score>
0.9233073592185974

$$$$
BENZO_77_1
  -OEChem-08222022433D

 58 62  0     0  0  0  0  0  0999 V2000
   14.2641   -1.7450   23.4813 C   0  0  0  0  0  0  0  0  0  0  0  0
    4.2460    1.7520   20.8250 C   0  0  0  0  0  0  0  0  0  0  0  0
   14.0779   -0.6681   24.3480 C   0  0  0  0  0  0  0  0  0  0  0  0
   13.2991   -2.0403   22.5184 C   0  0  0  0  0  0  0  0  0  0  0  0
    3.8860    2.1050   19.5250 C   0  0  0  0  0  0  0  0  0  0  0  0
    5.3890    1.0010   21.0690 C   0  0  0  0  0  0  0  0  0  0  0  0
   12.9266    0.1135   24.2518 C   0  0  0  0  0  0  0  0  0  0  0  0
   12.1478   -1.2587   22.4222 C   0  0  0  0  0  0  0  0  0  0  0  0
    4.6610    1.7170   18.4380 C   0  0  0  0  0  0  0  0  0  0  0  0
    9.1890   -3.5540   24.0140 C   0  0  0  0  0  0  0  0  0  0  0  0
    7.8700   -2.0610   25.3550 C   0  0  0  0  0  0  0  0  0  0  0  0
    9.5890   -2.4950   23.2210 C   0  0  0  0  0  0  0  0  0  0  0  0
    8.2550   -1.0010   24.5520 C   0  0  0  0  0  0  0  0  0  0  0  0
    6.1460    0.6070   19.9750 C   0  0  0  0  0  0  0  0  0  0  0  0
   11.9616   -0.1817   23.2889 C   0  0  0  0  0  0  0  0  0  0  0  0
    5.7970    0.9500   18.6730 C   0  0  0  0  0  0  0  0  0  0  0  0
    8.3450   -3.3440   25.0980 C   0  0  0  0  0  0  0  0  0  0  0  0
    9.1280   -1.2090   23.4870 C   0  0  0  0  0  0  0  0  0  0  0  0
    7.2710   -0.1460   19.8310 C   0  0  0  0  0  0  0  0  0  0  0  0
    7.8687   -5.7518   25.4384 C   0  0  0  0  0  0  0  0  0  0  0  0
    9.0430    0.2380   21.4940 C   0  0  0  0  0  0  0  0  0  0  0  0
    7.7614   -6.8724   26.4584 C   0  0  0  0  0  0  0  0  0  0  0  0
    7.0004   -6.5095   27.7148 C   0  0  0  0  0  0  0  0  0  0  0  0
    7.6035   -5.2531   28.3027 C   0  0  0  0  0  0  0  0  0  0  0  0
    7.4713   -4.1195   27.2996 C   0  0  0  0  0  0  0  0  0  0  0  0
   10.7220    0.6590   23.1850 C   0  0  0  0  0  0  0  0  0  0  0  0
    7.5840   -0.2700   18.5160 N   0  0  0  0  0  0  0  0  0  0  0  0
    6.7100    0.3850   17.8100 N   0  0  0  0  0  0  0  0  0  0  0  0
    7.9635   -4.4452   25.9501 N   0  0  0  0  0  0  0  0  0  0  0  0
    8.0950   -0.7700   20.8440 N   0  0  0  0  0  0  0  0  0  0  0  0
    9.5820   -0.1080   22.7000 N   0  0  0  0  0  0  0  0  0  0  0  0
    7.9246   -6.0590   24.2445 O   0  0  0  0  0  0  0  0  0  0  0  0
    9.2950    1.3000   20.9480 O   0  0  0  0  0  0  0  0  0  0  0  0
   15.1613   -2.3527   23.5555 H   0  0  0  0  0  0  0  0  0  0  0  0
    3.6223    2.0725   21.6574 H   0  0  0  0  0  0  0  0  0  0  0  0
   14.8297   -0.4373   25.0971 H   0  0  0  0  0  0  0  0  0  0  0  0
   13.4443   -2.8780   21.8427 H   0  0  0  0  0  0  0  0  0  0  0  0
    2.9864    2.6933   19.3609 H   0  0  0  0  0  0  0  0  0  0  0  0
    5.6689    0.7392   22.0836 H   0  0  0  0  0  0  0  0  0  0  0  0
   12.7899    0.9506   24.9315 H   0  0  0  0  0  0  0  0  0  0  0  0
   11.4013   -1.4963   21.6690 H   0  0  0  0  0  0  0  0  0  0  0  0
    4.3807    2.0116   17.4186 H   0  0  0  0  0  0  0  0  0  0  0  0
    9.5436   -4.5614   23.7799 H   0  0  0  0  0  0  0  0  0  0  0  0
    7.1918   -1.8823   26.1906 H   0  0  0  0  0  0  0  0  0  0  0  0
   10.2676   -2.6754   22.3861 H   0  0  0  0  0  0  0  0  0  0  0  0
    7.8686   -0.0026   24.7598 H   0  0  0  0  0  0  0  0  0  0  0  0
    7.2713   -7.7257   25.9758 H   0  0  0  0  0  0  0  0  0  0  0  0
    8.7837   -7.1790   26.7111 H   0  0  0  0  0  0  0  0  0  0  0  0
    5.9406   -6.3476   27.4837 H   0  0  0  0  0  0  0  0  0  0  0  0
    7.0566   -7.3314   28.4368 H   0  0  0  0  0  0  0  0  0  0  0  0
    7.0858   -4.9863   29.2307 H   0  0  0  0  0  0  0  0  0  0  0  0
    8.6585   -5.4140   28.5554 H   0  0  0  0  0  0  0  0  0  0  0  0
    6.4149   -3.8417   27.1934 H   0  0  0  0  0  0  0  0  0  0  0  0
    8.0152   -3.2408   27.6666 H   0  0  0  0  0  0  0  0  0  0  0  0
   10.4561    1.0772   24.1620 H   0  0  0  0  0  0  0  0  0  0  0  0
   10.8743    1.5008   22.5014 H   0  0  0  0  0  0  0  0  0  0  0  0
    6.7486    0.4313   16.8331 H   0  0  0  0  0  0  0  0  0  0  0  0
    8.0897   -1.6082   21.0890 H   0  0  0  0  0  0  0  0  0  0  0  0
  1  3  1  0  0  0  0
  1  4  2  0  0  0  0
  2  5  1  0  0  0  0
  2  6  2  0  0  0  0
  3  7  2  0  0  0  0
  4  8  1  0  0  0  0
  5  9  2  0  0  0  0
  6 14  1  0  0  0  0
  7 15  1  0  0  0  0
  8 15  2  0  0  0  0
  9 16  1  0  0  0  0
 10 12  2  0  0  0  0
 10 17  1  0  0  0  0
 11 13  1  0  0  0  0
 11 17  2  0  0  0  0
 12 18  1  0  0  0  0
 13 18  2  0  0  0  0
 14 16  2  0  0  0  0
 14 19  1  0  0  0  0
 15 26  1  0  0  0  0
 16 28  1  0  0  0  0
 17 29  1  0  0  0  0
 18 31  1  0  0  0  0
 19 27  2  0  0  0  0
 19 30  1  0  0  0  0
 20 22  1  0  0  0  0
 20 29  1  0  0  0  0
 20 32  2  0  0  0  0
 21 30  1  0  0  0  0
 21 31  1  0  0  0  0
 21 33  2  0  0  0  0
 22 23  1  0  0  0  0
 23 24  1  0  0  0  0
 24 25  1  0  0  0  0
 25 29  1  0  0  0  0
 26 31  1  0  0  0  0
 27 28  1  0  0  0  0
  1 34  1  0  0  0  0
  2 35  1  0  0  0  0
  3 36  1  0  0  0  0
  4 37  1  0  0  0  0
  5 38  1  0  0  0  0
  6 39  1  0  0  0  0
  7 40  1  0  0  0  0
  8 41  1  0  0  0  0
  9 42  1  0  0  0  0
 10 43  1  0  0  0  0
 11 44  1  0  0  0  0
 12 45  1  0  0  0  0
 13 46  1  0  0  0  0
 22 47  1  0  0  0  0
 22 48  1  0  0  0  0
 23 49  1  0  0  0  0
 23 50  1  0  0  0  0
 24 51  1  0  0  0  0
 24 52  1  0  0  0  0
 25 53  1  0  0  0  0
 25 54  1  0  0  0  0
 26 55  1  0  0  0  0
 26 56  1  0  0  0  0
 28 57  1  0  0  0  0
 30 58  1  0  0  0  0
M  END
> <clash_score>
0

> <docking_score>
-7.504693984985352

> <overlap_score>
0.9891777038574219

$$$$
BENZO_76_1
  -OEChem-08222022433D

 55 59  0     0  0  0  0  0  0999 V2000
    4.2460    1.7520   20.8250 C   0  0  0  0  0  0  0  0  0  0  0  0
    3.8860    2.1050   19.5250 C   0  0  0  0  0  0  0  0  0  0  0  0
    5.3890    1.0010   21.0690 C   0  0  0  0  0  0  0  0  0  0  0  0
    4.6610    1.7170   18.4380 C   0  0  0  0  0  0  0  0  0  0  0  0
    9.1890   -3.5540   24.0140 C   0  0  0  0  0  0  0  0  0  0  0  0
    7.8700   -2.0610   25.3550 C   0  0  0  0  0  0  0  0  0  0  0  0
    9.5890   -2.4950   23.2210 C   0  0  0  0  0  0  0  0  0  0  0  0
    8.2550   -1.0010   24.5520 C   0  0  0  0  0  0  0  0  0  0  0  0
   12.6785   -0.3937   24.5018 C   0  0  0  0  0  0  0  0  0  0  0  0
   13.7775   -1.2037   24.3186 C   0  0  0  0  0  0  0  0  0  0  0  0
   12.5401   -0.8378   22.2246 C   0  0  0  0  0  0  0  0  0  0  0  0
    6.1460    0.6070   19.9750 C   0  0  0  0  0  0  0  0  0  0  0  0
   11.9616   -0.1817   23.2889 C   0  0  0  0  0  0  0  0  0  0  0  0
    5.7970    0.9500   18.6730 C   0  0  0  0  0  0  0  0  0  0  0  0
    8.3450   -3.3440   25.0980 C   0  0  0  0  0  0  0  0  0  0  0  0
    9.1280   -1.2090   23.4870 C   0  0  0  0  0  0  0  0  0  0  0  0
    7.2710   -0.1460   19.8310 C   0  0  0  0  0  0  0  0  0  0  0  0
    7.2752   -5.5548   25.4273 C   0  0  0  0  0  0  0  0  0  0  0  0
    9.0430    0.2380   21.4940 C   0  0  0  0  0  0  0  0  0  0  0  0
    7.1880   -6.7800   26.3209 C   0  0  0  0  0  0  0  0  0  0  0  0
    7.0916   -6.4753   27.7999 C   0  0  0  0  0  0  0  0  0  0  0  0
    8.2362   -5.5641   28.1841 C   0  0  0  0  0  0  0  0  0  0  0  0
    8.1241   -4.2655   27.4032 C   0  0  0  0  0  0  0  0  0  0  0  0
   10.7220    0.6590   23.1850 C   0  0  0  0  0  0  0  0  0  0  0  0
    7.5840   -0.2700   18.5160 N   0  0  0  0  0  0  0  0  0  0  0  0
    6.7100    0.3850   17.8100 N   0  0  0  0  0  0  0  0  0  0  0  0
    7.9635   -4.4452   25.9501 N   0  0  0  0  0  0  0  0  0  0  0  0
    8.0950   -0.7700   20.8440 N   0  0  0  0  0  0  0  0  0  0  0  0
    9.5820   -0.1080   22.7000 N   0  0  0  0  0  0  0  0  0  0  0  0
    6.7947   -5.6299   24.2931 O   0  0  0  0  0  0  0  0  0  0  0  0
    9.2950    1.3000   20.9480 O   0  0  0  0  0  0  0  0  0  0  0  0
   13.9416   -1.7051   22.6894 S   0  0  0  0  0  0  0  0  0  0  0  0
    3.6223    2.0725   21.6574 H   0  0  0  0  0  0  0  0  0  0  0  0
    2.9864    2.6933   19.3609 H   0  0  0  0  0  0  0  0  0  0  0  0
    5.6689    0.7392   22.0836 H   0  0  0  0  0  0  0  0  0  0  0  0
    4.3807    2.0116   17.4186 H   0  0  0  0  0  0  0  0  0  0  0  0
    9.5436   -4.5614   23.7799 H   0  0  0  0  0  0  0  0  0  0  0  0
    7.1918   -1.8823   26.1906 H   0  0  0  0  0  0  0  0  0  0  0  0
   10.2676   -2.6754   22.3861 H   0  0  0  0  0  0  0  0  0  0  0  0
    7.8686   -0.0026   24.7598 H   0  0  0  0  0  0  0  0  0  0  0  0
   12.4058    0.0253   25.4623 H   0  0  0  0  0  0  0  0  0  0  0  0
   14.4923   -1.5246   25.0631 H   0  0  0  0  0  0  0  0  0  0  0  0
   12.2108   -0.8511   21.1948 H   0  0  0  0  0  0  0  0  0  0  0  0
    6.3101   -7.3613   26.0164 H   0  0  0  0  0  0  0  0  0  0  0  0
    8.0752   -7.3922   26.1183 H   0  0  0  0  0  0  0  0  0  0  0  0
    6.1328   -5.9938   28.0269 H   0  0  0  0  0  0  0  0  0  0  0  0
    7.1363   -7.4051   28.3772 H   0  0  0  0  0  0  0  0  0  0  0  0
    8.2035   -5.3520   29.2586 H   0  0  0  0  0  0  0  0  0  0  0  0
    9.1990   -6.0474   27.9788 H   0  0  0  0  0  0  0  0  0  0  0  0
    7.2505   -3.6996   27.7511 H   0  0  0  0  0  0  0  0  0  0  0  0
    9.0155   -3.6525   27.5824 H   0  0  0  0  0  0  0  0  0  0  0  0
   10.4561    1.0772   24.1620 H   0  0  0  0  0  0  0  0  0  0  0  0
   10.8743    1.5008   22.5014 H   0  0  0  0  0  0  0  0  0  0  0  0
    6.7486    0.4313   16.8331 H   0  0  0  0  0  0  0  0  0  0  0  0
    8.0897   -1.6082   21.0890 H   0  0  0  0  0  0  0  0  0  0  0  0
  1  2  1  0  0  0  0
  1  3  2  0  0  0  0
  2  4  2  0  0  0  0
  3 12  1  0  0  0  0
  4 14  1  0  0  0  0
  5  7  2  0  0  0  0
  5 15  1  0  0  0  0
  6  8  1  0  0  0  0
  6 15  2  0  0  0  0
  7 16  1  0  0  0  0
  8 16  2  0  0  0  0
  9 10  2  0  0  0  0
  9 13  1  0  0  0  0
 10 32  1  0  0  0  0
 11 13  2  0  0  0  0
 11 32  1  0  0  0  0
 12 14  2  0  0  0  0
 12 17  1  0  0  0  0
 13 24  1  0  0  0  0
 14 26  1  0  0  0  0
 15 27  1  0  0  0  0
 16 29  1  0  0  0  0
 17 25  2  0  0  0  0
 17 28  1  0  0  0  0
 18 20  1  0  0  0  0
 18 27  1  0  0  0  0
 18 30  2  0  0  0  0
 19 28  1  0  0  0  0
 19 29  1  0  0  0  0
 19 31  2  0  0  0  0
 20 21  1  0  0  0  0
 21 22  1  0  0  0  0
 22 23  1  0  0  0  0
 23 27  1  0  0  0  0
 24 29  1  0  0  0  0
 25 26  1  0  0  0  0
  1 33  1  0  0  0  0
  2 34  1  0  0  0  0
  3 35  1  0  0  0  0
  4 36  1  0  0  0  0
  5 37  1  0  0  0  0
  6 38  1  0  0  0  0
  7 39  1  0  0  0  0
  8 40  1  0  0  0  0
  9 41  1  0  0  0  0
 10 42  1  0  0  0  0
 11 43  1  0  0  0  0
 20 44  1  0  0  0  0
 20 45  1  0  0  0  0
 21 46  1  0  0  0  0
 21 47  1  0  0  0  0
 22 48  1  0  0  0  0
 22 49  1  0  0  0  0
 23 50  1  0  0  0  0
 23 51  1  0  0  0  0
 24 52  1  0  0  0  0
 24 53  1  0  0  0  0
 26 54  1  0  0  0  0
 28 55  1  0  0  0  0
M  END
> <clash_score>
0

> <docking_score>
-7.901817798614502

> <overlap_score>
0.9828841090202332

$$$$
BENZO_81_1
  -OEChem-08222022433D

 57 61  0     0  0  0  0  0  0999 V2000
   14.2641   -1.7450   23.4813 C   0  0  0  0  0  0  0  0  0  0  0  0
    4.2460    1.7520   20.8250 C   0  0  0  0  0  0  0  0  0  0  0  0
   14.0779   -0.6681   24.3480 C   0  0  0  0  0  0  0  0  0  0  0  0
   13.2991   -2.0403   22.5184 C   0  0  0  0  0  0  0  0  0  0  0  0
    3.8860    2.1050   19.5250 C   0  0  0  0  0  0  0  0  0  0  0  0
    5.3890    1.0010   21.0690 C   0  0  0  0  0  0  0  0  0  0  0  0
   12.9266    0.1135   24.2518 C   0  0  0  0  0  0  0  0  0  0  0  0
   12.1478   -1.2587   22.4222 C   0  0  0  0  0  0  0  0  0  0  0  0
    4.6610    1.7170   18.4380 C   0  0  0  0  0  0  0  0  0  0  0  0
    9.1890   -3.5540   24.0140 C   0  0  0  0  0  0  0  0  0  0  0  0
    7.8700   -2.0610   25.3550 C   0  0  0  0  0  0  0  0  0  0  0  0
    9.5890   -2.4950   23.2210 C   0  0  0  0  0  0  0  0  0  0  0  0
    8.2550   -1.0010   24.5520 C   0  0  0  0  0  0  0  0  0  0  0  0
    6.1460    0.6070   19.9750 C   0  0  0  0  0  0  0  0  0  0  0  0
   11.9616   -0.1817   23.2889 C   0  0  0  0  0  0  0  0  0  0  0  0
    5.7970    0.9500   18.6730 C   0  0  0  0  0  0  0  0  0  0  0  0
    8.3450   -3.3440   25.0980 C   0  0  0  0  0  0  0  0  0  0  0  0
    9.1280   -1.2090   23.4870 C   0  0  0  0  0  0  0  0  0  0  0  0
    7.2710   -0.1460   19.8310 C   0  0  0  0  0  0  0  0  0  0  0  0
    9.0430    0.2380   21.4940 C   0  0  0  0  0  0  0  0  0  0  0  0
    7.2567   -5.5373   25.3128 C   0  0  0  0  0  0  0  0  0  0  0  0
    7.6783   -4.1701   27.3375 C   0  0  0  0  0  0  0  0  0  0  0  0
    7.3927   -6.7710   26.1978 C   0  0  0  0  0  0  0  0  0  0  0  0
    7.7912   -5.4770   28.1147 C   0  0  0  0  0  0  0  0  0  0  0  0
   10.7220    0.6590   23.1850 C   0  0  0  0  0  0  0  0  0  0  0  0
    7.5840   -0.2700   18.5160 N   0  0  0  0  0  0  0  0  0  0  0  0
    6.7100    0.3850   17.8100 N   0  0  0  0  0  0  0  0  0  0  0  0
    7.9750   -4.4088   25.9208 N   0  0  0  0  0  0  0  0  0  0  0  0
    8.0950   -0.7700   20.8440 N   0  0  0  0  0  0  0  0  0  0  0  0
    9.5820   -0.1080   22.7000 N   0  0  0  0  0  0  0  0  0  0  0  0
    9.2950    1.3000   20.9480 O   0  0  0  0  0  0  0  0  0  0  0  0
    6.9636   -6.4808   27.5280 O   0  0  0  0  0  0  0  0  0  0  0  0
   15.1613   -2.3527   23.5555 H   0  0  0  0  0  0  0  0  0  0  0  0
    3.6223    2.0725   21.6574 H   0  0  0  0  0  0  0  0  0  0  0  0
   14.8297   -0.4373   25.0971 H   0  0  0  0  0  0  0  0  0  0  0  0
   13.4443   -2.8780   21.8427 H   0  0  0  0  0  0  0  0  0  0  0  0
    2.9864    2.6933   19.3609 H   0  0  0  0  0  0  0  0  0  0  0  0
    5.6689    0.7392   22.0836 H   0  0  0  0  0  0  0  0  0  0  0  0
   12.7899    0.9506   24.9315 H   0  0  0  0  0  0  0  0  0  0  0  0
   11.4013   -1.4963   21.6690 H   0  0  0  0  0  0  0  0  0  0  0  0
    4.3807    2.0116   17.4186 H   0  0  0  0  0  0  0  0  0  0  0  0
    9.5426   -4.5618   23.7797 H   0  0  0  0  0  0  0  0  0  0  0  0
    7.1914   -1.8824   26.1903 H   0  0  0  0  0  0  0  0  0  0  0  0
   10.2669   -2.6745   22.3854 H   0  0  0  0  0  0  0  0  0  0  0  0
    7.8690   -0.0020   24.7587 H   0  0  0  0  0  0  0  0  0  0  0  0
    7.6535   -5.7575   24.3148 H   0  0  0  0  0  0  0  0  0  0  0  0
    6.1962   -5.2737   25.2113 H   0  0  0  0  0  0  0  0  0  0  0  0
    6.6579   -3.7759   27.4290 H   0  0  0  0  0  0  0  0  0  0  0  0
    8.3696   -3.4320   27.7610 H   0  0  0  0  0  0  0  0  0  0  0  0
    6.7582   -7.5752   25.8116 H   0  0  0  0  0  0  0  0  0  0  0  0
    8.4238   -7.1441   26.2130 H   0  0  0  0  0  0  0  0  0  0  0  0
    8.8287   -5.8300   28.1600 H   0  0  0  0  0  0  0  0  0  0  0  0
    7.4508   -5.3251   29.1440 H   0  0  0  0  0  0  0  0  0  0  0  0
   10.4561    1.0772   24.1620 H   0  0  0  0  0  0  0  0  0  0  0  0
   10.8743    1.5008   22.5014 H   0  0  0  0  0  0  0  0  0  0  0  0
    6.7486    0.4313   16.8331 H   0  0  0  0  0  0  0  0  0  0  0  0
    8.0897   -1.6082   21.0890 H   0  0  0  0  0  0  0  0  0  0  0  0
  1  3  1  0  0  0  0
  1  4  2  0  0  0  0
  2  5  1  0  0  0  0
  2  6  2  0  0  0  0
  3  7  2  0  0  0  0
  4  8  1  0  0  0  0
  5  9  2  0  0  0  0
  6 14  1  0  0  0  0
  7 15  1  0  0  0  0
  8 15  2  0  0  0  0
  9 16  1  0  0  0  0
 10 12  2  0  0  0  0
 10 17  1  0  0  0  0
 11 13  1  0  0  0  0
 11 17  2  0  0  0  0
 12 18  1  0  0  0  0
 13 18  2  0  0  0  0
 14 16  2  0  0  0  0
 14 19  1  0  0  0  0
 15 25  1  0  0  0  0
 16 27  1  0  0  0  0
 17 28  1  0  0  0  0
 18 30  1  0  0  0  0
 19 26  2  0  0  0  0
 19 29  1  0  0  0  0
 20 29  1  0  0  0  0
 20 30  1  0  0  0  0
 20 31  2  0  0  0  0
 21 23  1  0  0  0  0
 21 28  1  0  0  0  0
 22 24  1  0  0  0  0
 22 28  1  0  0  0  0
 23 32  1  0  0  0  0
 24 32  1  0  0  0  0
 25 30  1  0  0  0  0
 26 27  1  0  0  0  0
  1 33  1  0  0  0  0
  2 34  1  0  0  0  0
  3 35  1  0  0  0  0
  4 36  1  0  0  0  0
  5 37  1  0  0  0  0
  6 38  1  0  0  0  0
  7 39  1  0  0  0  0
  8 40  1  0  0  0  0
  9 41  1  0  0  0  0
 10 42  1  0  0  0  0
 11 43  1  0  0  0  0
 12 44  1  0  0  0  0
 13 45  1  0  0  0  0
 21 46  1  0  0  0  0
 21 47  1  0  0  0  0
 22 48  1  0  0  0  0
 22 49  1  0  0  0  0
 23 50  1  0  0  0  0
 23 51  1  0  0  0  0
 24 52  1  0  0  0  0
 24 53  1  0  0  0  0
 25 54  1  0  0  0  0
 25 55  1  0  0  0  0
 27 56  1  0  0  0  0
 29 57  1  0  0  0  0
M  END
> <clash_score>
0

> <docking_score>
-8.764902114868164

> <overlap_score>
0.9890320897102356

$$$$
BENZO_79_1
  -OEChem-08222022433D

 58 62  0     0  0  0  0  0  0999 V2000
    4.2460    1.7520   20.8250 C   0  0  0  0  0  0  0  0  0  0  0  0
    3.8860    2.1050   19.5250 C   0  0  0  0  0  0  0  0  0  0  0  0
    5.3890    1.0010   21.0690 C   0  0  0  0  0  0  0  0  0  0  0  0
    4.6610    1.7170   18.4380 C   0  0  0  0  0  0  0  0  0  0  0  0
    9.1890   -3.5540   24.0140 C   0  0  0  0  0  0  0  0  0  0  0  0
    7.8700   -2.0610   25.3550 C   0  0  0  0  0  0  0  0  0  0  0  0
    9.5890   -2.4950   23.2210 C   0  0  0  0  0  0  0  0  0  0  0  0
    8.2550   -1.0010   24.5520 C   0  0  0  0  0  0  0  0  0  0  0  0
   12.7320   -0.4464   24.4370 C   0  0  0  0  0  0  0  0  0  0  0  0
   12.5970   -0.8682   22.2832 C   0  0  0  0  0  0  0  0  0  0  0  0
    6.1460    0.6070   19.9750 C   0  0  0  0  0  0  0  0  0  0  0  0
   11.9616   -0.1817   23.2889 C   0  0  0  0  0  0  0  0  0  0  0  0
    5.7970    0.9500   18.6730 C   0  0  0  0  0  0  0  0  0  0  0  0
    8.3450   -3.3440   25.0980 C   0  0  0  0  0  0  0  0  0  0  0  0
    9.1280   -1.2090   23.4870 C   0  0  0  0  0  0  0  0  0  0  0  0
    7.2710   -0.1460   19.8310 C   0  0  0  0  0  0  0  0  0  0  0  0
    7.2752   -5.5548   25.4273 C   0  0  0  0  0  0  0  0  0  0  0  0
    9.0430    0.2380   21.4940 C   0  0  0  0  0  0  0  0  0  0  0  0
    7.1880   -6.7800   26.3209 C   0  0  0  0  0  0  0  0  0  0  0  0
    7.0916   -6.4753   27.7999 C   0  0  0  0  0  0  0  0  0  0  0  0
    8.2362   -5.5641   28.1841 C   0  0  0  0  0  0  0  0  0  0  0  0
    8.1241   -4.2655   27.4032 C   0  0  0  0  0  0  0  0  0  0  0  0
   14.6393   -2.3180   22.2082 C   0  0  0  0  0  0  0  0  0  0  0  0
   10.7220    0.6590   23.1850 C   0  0  0  0  0  0  0  0  0  0  0  0
   13.7770   -1.2393   24.1852 N   0  0  0  0  0  0  0  0  0  0  0  0
    7.5840   -0.2700   18.5160 N   0  0  0  0  0  0  0  0  0  0  0  0
    6.7100    0.3850   17.8100 N   0  0  0  0  0  0  0  0  0  0  0  0
   13.6676   -1.4788   22.8673 N   0  0  0  0  0  0  0  0  0  0  0  0
    7.9635   -4.4452   25.9501 N   0  0  0  0  0  0  0  0  0  0  0  0
    8.0950   -0.7700   20.8440 N   0  0  0  0  0  0  0  0  0  0  0  0
    9.5820   -0.1080   22.7000 N   0  0  0  0  0  0  0  0  0  0  0  0
    6.7947   -5.6299   24.2931 O   0  0  0  0  0  0  0  0  0  0  0  0
    9.2950    1.3000   20.9480 O   0  0  0  0  0  0  0  0  0  0  0  0
    3.6223    2.0725   21.6574 H   0  0  0  0  0  0  0  0  0  0  0  0
    2.9864    2.6933   19.3609 H   0  0  0  0  0  0  0  0  0  0  0  0
    5.6689    0.7392   22.0836 H   0  0  0  0  0  0  0  0  0  0  0  0
    4.3807    2.0116   17.4186 H   0  0  0  0  0  0  0  0  0  0  0  0
    9.5436   -4.5614   23.7799 H   0  0  0  0  0  0  0  0  0  0  0  0
    7.1918   -1.8823   26.1906 H   0  0  0  0  0  0  0  0  0  0  0  0
   10.2676   -2.6754   22.3861 H   0  0  0  0  0  0  0  0  0  0  0  0
    7.8686   -0.0026   24.7598 H   0  0  0  0  0  0  0  0  0  0  0  0
   12.5771   -0.0965   25.4478 H   0  0  0  0  0  0  0  0  0  0  0  0
   12.3832   -0.9726   21.2281 H   0  0  0  0  0  0  0  0  0  0  0  0
    6.3101   -7.3613   26.0164 H   0  0  0  0  0  0  0  0  0  0  0  0
    8.0752   -7.3922   26.1183 H   0  0  0  0  0  0  0  0  0  0  0  0
    6.1328   -5.9938   28.0269 H   0  0  0  0  0  0  0  0  0  0  0  0
    7.1363   -7.4051   28.3772 H   0  0  0  0  0  0  0  0  0  0  0  0
    8.2035   -5.3520   29.2586 H   0  0  0  0  0  0  0  0  0  0  0  0
    9.1990   -6.0474   27.9788 H   0  0  0  0  0  0  0  0  0  0  0  0
    7.2505   -3.6996   27.7511 H   0  0  0  0  0  0  0  0  0  0  0  0
    9.0155   -3.6525   27.5824 H   0  0  0  0  0  0  0  0  0  0  0  0
   15.4522   -1.6787   21.8540 H   0  0  0  0  0  0  0  0  0  0  0  0
   15.0179   -3.0613   22.9154 H   0  0  0  0  0  0  0  0  0  0  0  0
   14.1626   -2.8324   21.3691 H   0  0  0  0  0  0  0  0  0  0  0  0
   10.4561    1.0772   24.1620 H   0  0  0  0  0  0  0  0  0  0  0  0
   10.8743    1.5008   22.5014 H   0  0  0  0  0  0  0  0  0  0  0  0
    6.7486    0.4313   16.8331 H   0  0  0  0  0  0  0  0  0  0  0  0
    8.0897   -1.6082   21.0890 H   0  0  0  0  0  0  0  0  0  0  0  0
  1  2  1  0  0  0  0
  1  3  2  0  0  0  0
  2  4  2  0  0  0  0
  3 11  1  0  0  0  0
  4 13  1  0  0  0  0
  5  7  2  0  0  0  0
  5 14  1  0  0  0  0
  6  8  1  0  0  0  0
  6 14  2  0  0  0  0
  7 15  1  0  0  0  0
  8 15  2  0  0  0  0
  9 12  1  0  0  0  0
  9 25  2  0  0  0  0
 10 12  2  0  0  0  0
 10 28  1  0  0  0  0
 11 13  2  0  0  0  0
 11 16  1  0  0  0  0
 12 24  1  0  0  0  0
 13 27  1  0  0  0  0
 14 29  1  0  0  0  0
 15 31  1  0  0  0  0
 16 26  2  0  0  0  0
 16 30  1  0  0  0  0
 17 19  1  0  0  0  0
 17 29  1  0  0  0  0
 17 32  2  0  0  0  0
 18 30  1  0  0  0  0
 18 31  1  0  0  0  0
 18 33  2  0  0  0  0
 19 20  1  0  0  0  0
 20 21  1  0  0  0  0
 21 22  1  0  0  0  0
 22 29  1  0  0  0  0
 23 28  1  0  0  0  0
 24 31  1  0  0  0  0
 25 28  1  0  0  0  0
 26 27  1  0  0  0  0
  1 34  1  0  0  0  0
  2 35  1  0  0  0  0
  3 36  1  0  0  0  0
  4 37  1  0  0  0  0
  5 38  1  0  0  0  0
  6 39  1  0  0  0  0
  7 40  1  0  0  0  0
  8 41  1  0  0  0  0
  9 42  1  0  0  0  0
 10 43  1  0  0  0  0
 19 44  1  0  0  0  0
 19 45  1  0  0  0  0
 20 46  1  0  0  0  0
 20 47  1  0  0  0  0
 21 48  1  0  0  0  0
 21 49  1  0  0  0  0
 22 50  1  0  0  0  0
 22 51  1  0  0  0  0
 23 52  1  0  0  0  0
 23 53  1  0  0  0  0
 23 54  1  0  0  0  0
 24 55  1  0  0  0  0
 24 56  1  0  0  0  0
 27 57  1  0  0  0  0
 30 58  1  0  0  0  0
M  END
> <clash_score>
0

> <docking_score>
-6.651039123535156

> <overlap_score>
0.9994744658470154

$$$$
BENZO_78_1
  -OEChem-08222022433D

 58 62  0     0  0  0  0  0  0999 V2000
    4.2460    1.7520   20.8250 C   0  0  0  0  0  0  0  0  0  0  0  0
    3.8860    2.1050   19.5250 C   0  0  0  0  0  0  0  0  0  0  0  0
   13.7501   -1.1157   24.6177 C   0  0  0  0  0  0  0  0  0  0  0  0
    5.3890    1.0010   21.0690 C   0  0  0  0  0  0  0  0  0  0  0  0
   12.5991   -0.3339   24.5202 C   0  0  0  0  0  0  0  0  0  0  0  0
    4.6610    1.7170   18.4380 C   0  0  0  0  0  0  0  0  0  0  0  0
    9.1890   -3.5540   24.0140 C   0  0  0  0  0  0  0  0  0  0  0  0
    7.8700   -2.0610   25.3550 C   0  0  0  0  0  0  0  0  0  0  0  0
    9.5890   -2.4950   23.2210 C   0  0  0  0  0  0  0  0  0  0  0  0
    8.2550   -1.0010   24.5520 C   0  0  0  0  0  0  0  0  0  0  0  0
   14.2636   -1.7454   23.4838 C   0  0  0  0  0  0  0  0  0  0  0  0
   12.4750   -0.8115   22.1551 C   0  0  0  0  0  0  0  0  0  0  0  0
    6.1460    0.6070   19.9750 C   0  0  0  0  0  0  0  0  0  0  0  0
   11.9616   -0.1817   23.2889 C   0  0  0  0  0  0  0  0  0  0  0  0
    5.7970    0.9500   18.6730 C   0  0  0  0  0  0  0  0  0  0  0  0
    8.3450   -3.3440   25.0980 C   0  0  0  0  0  0  0  0  0  0  0  0
    9.1280   -1.2090   23.4870 C   0  0  0  0  0  0  0  0  0  0  0  0
   13.6261   -1.5933   22.2526 C   0  0  0  0  0  0  0  0  0  0  0  0
    7.2710   -0.1460   19.8310 C   0  0  0  0  0  0  0  0  0  0  0  0
    7.2757   -5.5631   25.4492 C   0  0  0  0  0  0  0  0  0  0  0  0
    9.0430    0.2380   21.4940 C   0  0  0  0  0  0  0  0  0  0  0  0
    6.9626   -6.6001   26.5133 C   0  0  0  0  0  0  0  0  0  0  0  0
    6.3764   -5.9422   27.7501 C   0  0  0  0  0  0  0  0  0  0  0  0
    7.2660   -4.8258   28.2881 C   0  0  0  0  0  0  0  0  0  0  0  0
    8.4098   -4.4623   27.3426 C   0  0  0  0  0  0  0  0  0  0  0  0
   10.7220    0.6590   23.1850 C   0  0  0  0  0  0  0  0  0  0  0  0
    7.5840   -0.2700   18.5160 N   0  0  0  0  0  0  0  0  0  0  0  0
    6.7100    0.3850   17.8100 N   0  0  0  0  0  0  0  0  0  0  0  0
    7.9658   -4.4384   25.9449 N   0  0  0  0  0  0  0  0  0  0  0  0
    8.0950   -0.7700   20.8440 N   0  0  0  0  0  0  0  0  0  0  0  0
    9.5820   -0.1080   22.7000 N   0  0  0  0  0  0  0  0  0  0  0  0
    6.9858   -5.7908   24.2753 O   0  0  0  0  0  0  0  0  0  0  0  0
    9.2950    1.3000   20.9480 O   0  0  0  0  0  0  0  0  0  0  0  0
   14.2594   -2.3714   20.8543 Cl  0  0  0  0  0  0  0  0  0  0  0  0
    3.6223    2.0725   21.6574 H   0  0  0  0  0  0  0  0  0  0  0  0
    2.9864    2.6933   19.3609 H   0  0  0  0  0  0  0  0  0  0  0  0
   14.2462   -1.2340   25.5766 H   0  0  0  0  0  0  0  0  0  0  0  0
    5.6689    0.7392   22.0836 H   0  0  0  0  0  0  0  0  0  0  0  0
   12.2060    0.1530   25.4088 H   0  0  0  0  0  0  0  0  0  0  0  0
    4.3807    2.0116   17.4186 H   0  0  0  0  0  0  0  0  0  0  0  0
    9.5436   -4.5614   23.7799 H   0  0  0  0  0  0  0  0  0  0  0  0
    7.1918   -1.8823   26.1906 H   0  0  0  0  0  0  0  0  0  0  0  0
   10.2676   -2.6754   22.3861 H   0  0  0  0  0  0  0  0  0  0  0  0
    7.8686   -0.0026   24.7598 H   0  0  0  0  0  0  0  0  0  0  0  0
   15.1613   -2.3520   23.5747 H   0  0  0  0  0  0  0  0  0  0  0  0
   11.9745   -0.6893   21.1973 H   0  0  0  0  0  0  0  0  0  0  0  0
    6.2500   -7.3027   26.1097 H   0  0  0  0  0  0  0  0  0  0  0  0
    7.8838   -7.1078   26.7574 H   0  0  0  0  0  0  0  0  0  0  0  0
    5.3690   -5.5363   27.5214 H   0  0  0  0  0  0  0  0  0  0  0  0
    6.2178   -6.7054   28.5384 H   0  0  0  0  0  0  0  0  0  0  0  0
    6.6498   -3.9225   28.4807 H   0  0  0  0  0  0  0  0  0  0  0  0
    7.6764   -5.1138   29.2803 H   0  0  0  0  0  0  0  0  0  0  0  0
    8.7796   -3.4700   27.5826 H   0  0  0  0  0  0  0  0  0  0  0  0
    9.2112   -5.1853   27.4497 H   0  0  0  0  0  0  0  0  0  0  0  0
   10.4561    1.0772   24.1620 H   0  0  0  0  0  0  0  0  0  0  0  0
   10.8743    1.5008   22.5014 H   0  0  0  0  0  0  0  0  0  0  0  0
    6.7486    0.4313   16.8331 H   0  0  0  0  0  0  0  0  0  0  0  0
    8.0897   -1.6082   21.0890 H   0  0  0  0  0  0  0  0  0  0  0  0
  1  2  1  0  0  0  0
  1  4  2  0  0  0  0
  2  6  2  0  0  0  0
  3  5  2  0  0  0  0
  3 11  1  0  0  0  0
  4 13  1  0  0  0  0
  5 14  1  0  0  0  0
  6 15  1  0  0  0  0
  7  9  2  0  0  0  0
  7 16  1  0  0  0  0
  8 10  1  0  0  0  0
  8 16  2  0  0  0  0
  9 17  1  0  0  0  0
 10 17  2  0  0  0  0
 11 18  2  0  0  0  0
 12 14  2  0  0  0  0
 12 18  1  0  0  0  0
 13 15  2  0  0  0  0
 13 19  1  0  0  0  0
 14 26  1  0  0  0  0
 15 28  1  0  0  0  0
 16 29  1  0  0  0  0
 17 31  1  0  0  0  0
 18 34  1  0  0  0  0
 19 27  2  0  0  0  0
 19 30  1  0  0  0  0
 20 22  1  0  0  0  0
 20 29  1  0  0  0  0
 20 32  2  0  0  0  0
 21 30  1  0  0  0  0
 21 31  1  0  0  0  0
 21 33  2  0  0  0  0
 22 23  1  0  0  0  0
 23 24  1  0  0  0  0
 24 25  1  0  0  0  0
 25 29  1  0  0  0  0
 26 31  1  0  0  0  0
 27 28  1  0  0  0  0
  1 35  1  0  0  0  0
  2 36  1  0  0  0  0
  3 37  1  0  0  0  0
  4 38  1  0  0  0  0
  5 39  1  0  0  0  0
  6 40  1  0  0  0  0
  7 41  1  0  0  0  0
  8 42  1  0  0  0  0
  9 43  1  0  0  0  0
 10 44  1  0  0  0  0
 11 45  1  0  0  0  0
 12 46  1  0  0  0  0
 22 47  1  0  0  0  0
 22 48  1  0  0  0  0
 23 49  1  0  0  0  0
 23 50  1  0  0  0  0
 24 51  1  0  0  0  0
 24 52  1  0  0  0  0
 25 53  1  0  0  0  0
 25 54  1  0  0  0  0
 26 55  1  0  0  0  0
 26 56  1  0  0  0  0
 28 57  1  0  0  0  0
 30 58  1  0  0  0  0
M  END
> <clash_score>
0

> <docking_score>
-7.494457244873047

> <overlap_score>
0.9984303712844849

$$$$
BENZO_80_1
  -OEChem-08222022433D

 54 58  0     0  0  0  0  0  0999 V2000
    4.2460    1.7520   20.8250 C   0  0  0  0  0  0  0  0  0  0  0  0
    3.8860    2.1050   19.5250 C   0  0  0  0  0  0  0  0  0  0  0  0
    5.3890    1.0010   21.0690 C   0  0  0  0  0  0  0  0  0  0  0  0
    4.6610    1.7170   18.4380 C   0  0  0  0  0  0  0  0  0  0  0  0
    9.1890   -3.5540   24.0140 C   0  0  0  0  0  0  0  0  0  0  0  0
    7.8700   -2.0610   25.3550 C   0  0  0  0  0  0  0  0  0  0  0  0
    9.5890   -2.4950   23.2210 C   0  0  0  0  0  0  0  0  0  0  0  0
    8.2550   -1.0010   24.5520 C   0  0  0  0  0  0  0  0  0  0  0  0
   12.6785   -0.3937   24.5018 C   0  0  0  0  0  0  0  0  0  0  0  0
   13.7775   -1.2037   24.3186 C   0  0  0  0  0  0  0  0  0  0  0  0
   12.5401   -0.8378   22.2246 C   0  0  0  0  0  0  0  0  0  0  0  0
    6.1460    0.6070   19.9750 C   0  0  0  0  0  0  0  0  0  0  0  0
   11.9616   -0.1817   23.2889 C   0  0  0  0  0  0  0  0  0  0  0  0
    5.7970    0.9500   18.6730 C   0  0  0  0  0  0  0  0  0  0  0  0
    8.3450   -3.3440   25.0980 C   0  0  0  0  0  0  0  0  0  0  0  0
    9.1280   -1.2090   23.4870 C   0  0  0  0  0  0  0  0  0  0  0  0
    7.2710   -0.1460   19.8310 C   0  0  0  0  0  0  0  0  0  0  0  0
    9.0430    0.2380   21.4940 C   0  0  0  0  0  0  0  0  0  0  0  0
    8.9524   -5.2012   26.6600 C   0  0  0  0  0  0  0  0  0  0  0  0
    6.6112   -4.5068   26.4379 C   0  0  0  0  0  0  0  0  0  0  0  0
    8.9037   -4.7845   28.1261 C   0  0  0  0  0  0  0  0  0  0  0  0
    6.6374   -4.1243   27.9184 C   0  0  0  0  0  0  0  0  0  0  0  0
   10.7220    0.6590   23.1850 C   0  0  0  0  0  0  0  0  0  0  0  0
    7.5840   -0.2700   18.5160 N   0  0  0  0  0  0  0  0  0  0  0  0
    6.7100    0.3850   17.8100 N   0  0  0  0  0  0  0  0  0  0  0  0
    7.9775   -4.4014   25.9151 N   0  0  0  0  0  0  0  0  0  0  0  0
    8.0950   -0.7700   20.8440 N   0  0  0  0  0  0  0  0  0  0  0  0
    9.5820   -0.1080   22.7000 N   0  0  0  0  0  0  0  0  0  0  0  0
    9.2950    1.3000   20.9480 O   0  0  0  0  0  0  0  0  0  0  0  0
    7.5729   -4.9391   28.6338 O   0  0  0  0  0  0  0  0  0  0  0  0
   13.9416   -1.7051   22.6894 S   0  0  0  0  0  0  0  0  0  0  0  0
    3.6223    2.0725   21.6574 H   0  0  0  0  0  0  0  0  0  0  0  0
    2.9864    2.6933   19.3609 H   0  0  0  0  0  0  0  0  0  0  0  0
    5.6689    0.7392   22.0836 H   0  0  0  0  0  0  0  0  0  0  0  0
    4.3807    2.0116   17.4186 H   0  0  0  0  0  0  0  0  0  0  0  0
    9.5426   -4.5618   23.7797 H   0  0  0  0  0  0  0  0  0  0  0  0
    7.1914   -1.8824   26.1903 H   0  0  0  0  0  0  0  0  0  0  0  0
   10.2669   -2.6745   22.3854 H   0  0  0  0  0  0  0  0  0  0  0  0
    7.8690   -0.0020   24.7587 H   0  0  0  0  0  0  0  0  0  0  0  0
   12.4058    0.0253   25.4623 H   0  0  0  0  0  0  0  0  0  0  0  0
   14.4923   -1.5246   25.0631 H   0  0  0  0  0  0  0  0  0  0  0  0
   12.2108   -0.8511   21.1948 H   0  0  0  0  0  0  0  0  0  0  0  0
    9.9615   -5.0500   26.2711 H   0  0  0  0  0  0  0  0  0  0  0  0
    8.6935   -6.2597   26.5720 H   0  0  0  0  0  0  0  0  0  0  0  0
    6.2628   -5.5350   26.3330 H   0  0  0  0  0  0  0  0  0  0  0  0
    5.9347   -3.8423   25.9023 H   0  0  0  0  0  0  0  0  0  0  0  0
    9.5597   -5.4275   28.7166 H   0  0  0  0  0  0  0  0  0  0  0  0
    9.2344   -3.7511   28.2636 H   0  0  0  0  0  0  0  0  0  0  0  0
    6.8874   -3.0657   28.0553 H   0  0  0  0  0  0  0  0  0  0  0  0
    5.6495   -4.2893   28.3591 H   0  0  0  0  0  0  0  0  0  0  0  0
   10.4561    1.0772   24.1620 H   0  0  0  0  0  0  0  0  0  0  0  0
   10.8743    1.5008   22.5014 H   0  0  0  0  0  0  0  0  0  0  0  0
    6.7486    0.4313   16.8331 H   0  0  0  0  0  0  0  0  0  0  0  0
    8.0897   -1.6082   21.0890 H   0  0  0  0  0  0  0  0  0  0  0  0
  1  2  1  0  0  0  0
  1  3  2  0  0  0  0
  2  4  2  0  0  0  0
  3 12  1  0  0  0  0
  4 14  1  0  0  0  0
  5  7  2  0  0  0  0
  5 15  1  0  0  0  0
  6  8  1  0  0  0  0
  6 15  2  0  0  0  0
  7 16  1  0  0  0  0
  8 16  2  0  0  0  0
  9 10  2  0  0  0  0
  9 13  1  0  0  0  0
 10 31  1  0  0  0  0
 11 13  2  0  0  0  0
 11 31  1  0  0  0  0
 12 14  2  0  0  0  0
 12 17  1  0  0  0  0
 13 23  1  0  0  0  0
 14 25  1  0  0  0  0
 15 26  1  0  0  0  0
 16 28  1  0  0  0  0
 17 24  2  0  0  0  0
 17 27  1  0  0  0  0
 18 27  1  0  0  0  0
 18 28  1  0  0  0  0
 18 29  2  0  0  0  0
 19 21  1  0  0  0  0
 19 26  1  0  0  0  0
 20 22  1  0  0  0  0
 20 26  1  0  0  0  0
 21 30  1  0  0  0  0
 22 30  1  0  0  0  0
 23 28  1  0  0  0  0
 24 25  1  0  0  0  0
  1 32  1  0  0  0  0
  2 33  1  0  0  0  0
  3 34  1  0  0  0  0
  4 35  1  0  0  0  0
  5 36  1  0  0  0  0
  6 37  1  0  0  0  0
  7 38  1  0  0  0  0
  8 39  1  0  0  0  0
  9 40  1  0  0  0  0
 10 41  1  0  0  0  0
 11 42  1  0  0  0  0
 19 43  1  0  0  0  0
 19 44  1  0  0  0  0
 20 45  1  0  0  0  0
 20 46  1  0  0  0  0
 21 47  1  0  0  0  0
 21 48  1  0  0  0  0
 22 49  1  0  0  0  0
 22 50  1  0  0  0  0
 23 51  1  0  0  0  0
 23 52  1  0  0  0  0
 25 53  1  0  0  0  0
 27 54  1  0  0  0  0
M  END
> <clash_score>
0

> <docking_score>
-9.039407730102539

> <overlap_score>
0.9805793762207031

$$$$
BENZO_83_1
  -OEChem-08222022433D

 57 61  0     0  0  0  0  0  0999 V2000
    4.2460    1.7520   20.8250 C   0  0  0  0  0  0  0  0  0  0  0  0
    3.8860    2.1050   19.5250 C   0  0  0  0  0  0  0  0  0  0  0  0
    5.3890    1.0010   21.0690 C   0  0  0  0  0  0  0  0  0  0  0  0
    4.6610    1.7170   18.4380 C   0  0  0  0  0  0  0  0  0  0  0  0
    9.1890   -3.5540   24.0140 C   0  0  0  0  0  0  0  0  0  0  0  0
    7.8700   -2.0610   25.3550 C   0  0  0  0  0  0  0  0  0  0  0  0
    9.5890   -2.4950   23.2210 C   0  0  0  0  0  0  0  0  0  0  0  0
    8.2550   -1.0010   24.5520 C   0  0  0  0  0  0  0  0  0  0  0  0
   12.7320   -0.4464   24.4370 C   0  0  0  0  0  0  0  0  0  0  0  0
   12.5970   -0.8682   22.2832 C   0  0  0  0  0  0  0  0  0  0  0  0
    6.1460    0.6070   19.9750 C   0  0  0  0  0  0  0  0  0  0  0  0
   11.9616   -0.1817   23.2889 C   0  0  0  0  0  0  0  0  0  0  0  0
    5.7970    0.9500   18.6730 C   0  0  0  0  0  0  0  0  0  0  0  0
    8.3450   -3.3440   25.0980 C   0  0  0  0  0  0  0  0  0  0  0  0
    9.1280   -1.2090   23.4870 C   0  0  0  0  0  0  0  0  0  0  0  0
    7.2710   -0.1460   19.8310 C   0  0  0  0  0  0  0  0  0  0  0  0
    9.0430    0.2380   21.4940 C   0  0  0  0  0  0  0  0  0  0  0  0
    8.9524   -5.2012   26.6600 C   0  0  0  0  0  0  0  0  0  0  0  0
    6.6112   -4.5068   26.4379 C   0  0  0  0  0  0  0  0  0  0  0  0
    8.9037   -4.7845   28.1261 C   0  0  0  0  0  0  0  0  0  0  0  0
    6.6374   -4.1243   27.9184 C   0  0  0  0  0  0  0  0  0  0  0  0
   14.6393   -2.3180   22.2082 C   0  0  0  0  0  0  0  0  0  0  0  0
   10.7220    0.6590   23.1850 C   0  0  0  0  0  0  0  0  0  0  0  0
   13.7770   -1.2393   24.1852 N   0  0  0  0  0  0  0  0  0  0  0  0
    7.5840   -0.2700   18.5160 N   0  0  0  0  0  0  0  0  0  0  0  0
    6.7100    0.3850   17.8100 N   0  0  0  0  0  0  0  0  0  0  0  0
   13.6676   -1.4788   22.8673 N   0  0  0  0  0  0  0  0  0  0  0  0
    7.9775   -4.4014   25.9151 N   0  0  0  0  0  0  0  0  0  0  0  0
    8.0950   -0.7700   20.8440 N   0  0  0  0  0  0  0  0  0  0  0  0
    9.5820   -0.1080   22.7000 N   0  0  0  0  0  0  0  0  0  0  0  0
    9.2950    1.3000   20.9480 O   0  0  0  0  0  0  0  0  0  0  0  0
    7.5729   -4.9391   28.6338 O   0  0  0  0  0  0  0  0  0  0  0  0
    3.6223    2.0725   21.6574 H   0  0  0  0  0  0  0  0  0  0  0  0
    2.9864    2.6933   19.3609 H   0  0  0  0  0  0  0  0  0  0  0  0
    5.6689    0.7392   22.0836 H   0  0  0  0  0  0  0  0  0  0  0  0
    4.3807    2.0116   17.4186 H   0  0  0  0  0  0  0  0  0  0  0  0
    9.5426   -4.5618   23.7797 H   0  0  0  0  0  0  0  0  0  0  0  0
    7.1914   -1.8824   26.1903 H   0  0  0  0  0  0  0  0  0  0  0  0
   10.2669   -2.6745   22.3854 H   0  0  0  0  0  0  0  0  0  0  0  0
    7.8690   -0.0020   24.7587 H   0  0  0  0  0  0  0  0  0  0  0  0
   12.5771   -0.0965   25.4478 H   0  0  0  0  0  0  0  0  0  0  0  0
   12.3832   -0.9726   21.2281 H   0  0  0  0  0  0  0  0  0  0  0  0
    9.9615   -5.0500   26.2711 H   0  0  0  0  0  0  0  0  0  0  0  0
    8.6935   -6.2597   26.5720 H   0  0  0  0  0  0  0  0  0  0  0  0
    6.2628   -5.5350   26.3330 H   0  0  0  0  0  0  0  0  0  0  0  0
    5.9347   -3.8423   25.9023 H   0  0  0  0  0  0  0  0  0  0  0  0
    9.5597   -5.4275   28.7166 H   0  0  0  0  0  0  0  0  0  0  0  0
    9.2344   -3.7511   28.2636 H   0  0  0  0  0  0  0  0  0  0  0  0
    6.8874   -3.0657   28.0553 H   0  0  0  0  0  0  0  0  0  0  0  0
    5.6495   -4.2893   28.3591 H   0  0  0  0  0  0  0  0  0  0  0  0
   15.4522   -1.6787   21.8540 H   0  0  0  0  0  0  0  0  0  0  0  0
   15.0179   -3.0613   22.9154 H   0  0  0  0  0  0  0  0  0  0  0  0
   14.1626   -2.8324   21.3691 H   0  0  0  0  0  0  0  0  0  0  0  0
   10.4561    1.0772   24.1620 H   0  0  0  0  0  0  0  0  0  0  0  0
   10.8743    1.5008   22.5014 H   0  0  0  0  0  0  0  0  0  0  0  0
    6.7486    0.4313   16.8331 H   0  0  0  0  0  0  0  0  0  0  0  0
    8.0897   -1.6082   21.0890 H   0  0  0  0  0  0  0  0  0  0  0  0
  1  2  1  0  0  0  0
  1  3  2  0  0  0  0
  2  4  2  0  0  0  0
  3 11  1  0  0  0  0
  4 13  1  0  0  0  0
  5  7  2  0  0  0  0
  5 14  1  0  0  0  0
  6  8  1  0  0  0  0
  6 14  2  0  0  0  0
  7 15  1  0  0  0  0
  8 15  2  0  0  0  0
  9 12  1  0  0  0  0
  9 24  2  0  0  0  0
 10 12  2  0  0  0  0
 10 27  1  0  0  0  0
 11 13  2  0  0  0  0
 11 16  1  0  0  0  0
 12 23  1  0  0  0  0
 13 26  1  0  0  0  0
 14 28  1  0  0  0  0
 15 30  1  0  0  0  0
 16 25  2  0  0  0  0
 16 29  1  0  0  0  0
 17 29  1  0  0  0  0
 17 30  1  0  0  0  0
 17 31  2  0  0  0  0
 18 20  1  0  0  0  0
 18 28  1  0  0  0  0
 19 21  1  0  0  0  0
 19 28  1  0  0  0  0
 20 32  1  0  0  0  0
 21 32  1  0  0  0  0
 22 27  1  0  0  0  0
 23 30  1  0  0  0  0
 24 27  1  0  0  0  0
 25 26  1  0  0  0  0
  1 33  1  0  0  0  0
  2 34  1  0  0  0  0
  3 35  1  0  0  0  0
  4 36  1  0  0  0  0
  5 37  1  0  0  0  0
  6 38  1  0  0  0  0
  7 39  1  0  0  0  0
  8 40  1  0  0  0  0
  9 41  1  0  0  0  0
 10 42  1  0  0  0  0
 18 43  1  0  0  0  0
 18 44  1  0  0  0  0
 19 45  1  0  0  0  0
 19 46  1  0  0  0  0
 20 47  1  0  0  0  0
 20 48  1  0  0  0  0
 21 49  1  0  0  0  0
 21 50  1  0  0  0  0
 22 51  1  0  0  0  0
 22 52  1  0  0  0  0
 22 53  1  0  0  0  0
 23 54  1  0  0  0  0
 23 55  1  0  0  0  0
 26 56  1  0  0  0  0
 29 57  1  0  0  0  0
M  END
> <clash_score>
0

> <docking_score>
-7.788634300231934

> <overlap_score>
0.9972013235092163

$$$$
BENZO_85_1
  -OEChem-08222022433D

 51 54  0     0  0  0  0  0  0999 V2000
   14.2641   -1.7450   23.4813 C   0  0  0  0  0  0  0  0  0  0  0  0
   14.0779   -0.6681   24.3480 C   0  0  0  0  0  0  0  0  0  0  0  0
   13.2991   -2.0403   22.5184 C   0  0  0  0  0  0  0  0  0  0  0  0
   12.9266    0.1135   24.2518 C   0  0  0  0  0  0  0  0  0  0  0  0
   12.1478   -1.2587   22.4222 C   0  0  0  0  0  0  0  0  0  0  0  0
    9.5890   -2.4950   23.2210 C   0  0  0  0  0  0  0  0  0  0  0  0
    8.2550   -1.0010   24.5520 C   0  0  0  0  0  0  0  0  0  0  0  0
    9.1890   -3.5540   24.0140 C   0  0  0  0  0  0  0  0  0  0  0  0
    7.8700   -2.0610   25.3550 C   0  0  0  0  0  0  0  0  0  0  0  0
   11.9616   -0.1817   23.2889 C   0  0  0  0  0  0  0  0  0  0  0  0
    9.1280   -1.2090   23.4870 C   0  0  0  0  0  0  0  0  0  0  0  0
    8.3450   -3.3440   25.0980 C   0  0  0  0  0  0  0  0  0  0  0  0
    6.1460    0.6070   19.9750 C   0  0  0  0  0  0  0  0  0  0  0  0
    7.2710   -0.1460   19.8310 C   0  0  0  0  0  0  0  0  0  0  0  0
    5.3890    1.0010   21.0690 C   0  0  0  0  0  0  0  0  0  0  0  0
    4.2460    1.7520   20.8250 C   0  0  0  0  0  0  0  0  0  0  0  0
    3.8860    2.1050   19.5250 C   0  0  0  0  0  0  0  0  0  0  0  0
    4.6610    1.7170   18.4380 C   0  0  0  0  0  0  0  0  0  0  0  0
    9.0430    0.2380   21.4940 C   0  0  0  0  0  0  0  0  0  0  0  0
    8.4648   -5.7554   25.6631 C   0  0  0  0  0  0  0  0  0  0  0  0
    7.1038   -4.1979   27.0667 C   0  0  0  0  0  0  0  0  0  0  0  0
   10.7220    0.6590   23.1850 C   0  0  0  0  0  0  0  0  0  0  0  0
    7.5840   -0.2700   18.5160 N   0  0  0  0  0  0  0  0  0  0  0  0
    6.7100    0.3850   17.8100 N   0  0  0  0  0  0  0  0  0  0  0  0
    5.7970    0.9500   18.6730 N   0  0  0  0  0  0  0  0  0  0  0  0
    8.0950   -0.7700   20.8440 N   0  0  0  0  0  0  0  0  0  0  0  0
    9.5820   -0.1080   22.7000 N   0  0  0  0  0  0  0  0  0  0  0  0
    7.9731   -4.4180   25.9279 N   0  0  0  0  0  0  0  0  0  0  0  0
    9.2950    1.3000   20.9480 O   0  0  0  0  0  0  0  0  0  0  0  0
   15.1613   -2.3527   23.5555 H   0  0  0  0  0  0  0  0  0  0  0  0
   14.8297   -0.4373   25.0971 H   0  0  0  0  0  0  0  0  0  0  0  0
   13.4443   -2.8780   21.8427 H   0  0  0  0  0  0  0  0  0  0  0  0
   12.7899    0.9506   24.9315 H   0  0  0  0  0  0  0  0  0  0  0  0
   11.4013   -1.4963   21.6690 H   0  0  0  0  0  0  0  0  0  0  0  0
   10.2682   -2.6746   22.3864 H   0  0  0  0  0  0  0  0  0  0  0  0
    7.8692   -0.0022   24.7600 H   0  0  0  0  0  0  0  0  0  0  0  0
    9.5433   -4.5619   23.7809 H   0  0  0  0  0  0  0  0  0  0  0  0
    7.1923   -1.8829   26.1908 H   0  0  0  0  0  0  0  0  0  0  0  0
    5.6529    0.7487   22.0767 H   0  0  0  0  0  0  0  0  0  0  0  0
    3.6388    2.0586   21.6675 H   0  0  0  0  0  0  0  0  0  0  0  0
    2.9822    2.6968   19.3330 H   0  0  0  0  0  0  0  0  0  0  0  0
    4.4111    1.9893   17.4360 H   0  0  0  0  0  0  0  0  0  0  0  0
    8.0644   -6.4498   26.4165 H   0  0  0  0  0  0  0  0  0  0  0  0
    8.1398   -6.0739   24.6616 H   0  0  0  0  0  0  0  0  0  0  0  0
    9.5639   -5.7578   25.7098 H   0  0  0  0  0  0  0  0  0  0  0  0
    6.9303   -5.1519   27.5860 H   0  0  0  0  0  0  0  0  0  0  0  0
    7.5781   -3.4854   27.7576 H   0  0  0  0  0  0  0  0  0  0  0  0
    6.1430   -3.7889   26.7207 H   0  0  0  0  0  0  0  0  0  0  0  0
   10.4561    1.0772   24.1620 H   0  0  0  0  0  0  0  0  0  0  0  0
   10.8743    1.5008   22.5014 H   0  0  0  0  0  0  0  0  0  0  0  0
    8.0689   -1.6186   21.0712 H   0  0  0  0  0  0  0  0  0  0  0  0
  1  2  1  0  0  0  0
  1  3  2  0  0  0  0
  2  4  2  0  0  0  0
  3  5  1  0  0  0  0
  4 10  1  0  0  0  0
  5 10  2  0  0  0  0
  6  8  2  0  0  0  0
  6 11  1  0  0  0  0
  7  9  1  0  0  0  0
  7 11  2  0  0  0  0
  8 12  1  0  0  0  0
  9 12  2  0  0  0  0
 10 22  1  0  0  0  0
 11 27  1  0  0  0  0
 12 28  1  0  0  0  0
 13 14  2  0  0  0  0
 13 15  1  0  0  0  0
 13 25  1  0  0  0  0
 14 23  1  0  0  0  0
 14 26  1  0  0  0  0
 15 16  2  0  0  0  0
 16 17  1  0  0  0  0
 17 18  2  0  0  0  0
 18 25  1  0  0  0  0
 19 26  1  0  0  0  0
 19 27  1  0  0  0  0
 19 29  2  0  0  0  0
 20 28  1  0  0  0  0
 21 28  1  0  0  0  0
 22 27  1  0  0  0  0
 23 24  2  0  0  0  0
 24 25  1  0  0  0  0
  1 30  1  0  0  0  0
  2 31  1  0  0  0  0
  3 32  1  0  0  0  0
  4 33  1  0  0  0  0
  5 34  1  0  0  0  0
  6 35  1  0  0  0  0
  7 36  1  0  0  0  0
  8 37  1  0  0  0  0
  9 38  1  0  0  0  0
 15 39  1  0  0  0  0
 16 40  1  0  0  0  0
 17 41  1  0  0  0  0
 18 42  1  0  0  0  0
 20 43  1  0  0  0  0
 20 44  1  0  0  0  0
 20 45  1  0  0  0  0
 21 46  1  0  0  0  0
 21 47  1  0  0  0  0
 21 48  1  0  0  0  0
 22 49  1  0  0  0  0
 22 50  1  0  0  0  0
 26 51  1  0  0  0  0
M  END
> <clash_score>
0

> <docking_score>
-9.369141578674316

> <overlap_score>
0.9344897270202637

$$$$
BENZO_84_1
  -OEChem-08222022433D

 48 51  0     0  0  0  0  0  0999 V2000
    9.5890   -2.4950   23.2210 C   0  0  0  0  0  0  0  0  0  0  0  0
    8.2550   -1.0010   24.5520 C   0  0  0  0  0  0  0  0  0  0  0  0
    9.1890   -3.5540   24.0140 C   0  0  0  0  0  0  0  0  0  0  0  0
    7.8700   -2.0610   25.3550 C   0  0  0  0  0  0  0  0  0  0  0  0
   12.6785   -0.3936   24.5018 C   0  0  0  0  0  0  0  0  0  0  0  0
   13.7775   -1.2037   24.3186 C   0  0  0  0  0  0  0  0  0  0  0  0
   12.5401   -0.8378   22.2246 C   0  0  0  0  0  0  0  0  0  0  0  0
   11.9616   -0.1817   23.2889 C   0  0  0  0  0  0  0  0  0  0  0  0
    9.1280   -1.2090   23.4870 C   0  0  0  0  0  0  0  0  0  0  0  0
    8.3450   -3.3440   25.0980 C   0  0  0  0  0  0  0  0  0  0  0  0
    6.1460    0.6070   19.9750 C   0  0  0  0  0  0  0  0  0  0  0  0
    7.2710   -0.1460   19.8310 C   0  0  0  0  0  0  0  0  0  0  0  0
    5.3890    1.0010   21.0690 C   0  0  0  0  0  0  0  0  0  0  0  0
    4.2460    1.7520   20.8250 C   0  0  0  0  0  0  0  0  0  0  0  0
    3.8860    2.1050   19.5250 C   0  0  0  0  0  0  0  0  0  0  0  0
    4.6610    1.7170   18.4380 C   0  0  0  0  0  0  0  0  0  0  0  0
    9.0430    0.2380   21.4940 C   0  0  0  0  0  0  0  0  0  0  0  0
    7.2639   -5.5575   25.3809 C   0  0  0  0  0  0  0  0  0  0  0  0
    8.3065   -4.4045   27.3384 C   0  0  0  0  0  0  0  0  0  0  0  0
   10.7220    0.6590   23.1850 C   0  0  0  0  0  0  0  0  0  0  0  0
    7.5840   -0.2700   18.5160 N   0  0  0  0  0  0  0  0  0  0  0  0
    6.7100    0.3850   17.8100 N   0  0  0  0  0  0  0  0  0  0  0  0
    5.7970    0.9500   18.6730 N   0  0  0  0  0  0  0  0  0  0  0  0
    8.0950   -0.7700   20.8440 N   0  0  0  0  0  0  0  0  0  0  0  0
    9.5820   -0.1080   22.7000 N   0  0  0  0  0  0  0  0  0  0  0  0
    7.9731   -4.4180   25.9279 N   0  0  0  0  0  0  0  0  0  0  0  0
    9.2950    1.3000   20.9480 O   0  0  0  0  0  0  0  0  0  0  0  0
   13.9416   -1.7050   22.6894 S   0  0  0  0  0  0  0  0  0  0  0  0
   10.2682   -2.6746   22.3864 H   0  0  0  0  0  0  0  0  0  0  0  0
    7.8692   -0.0022   24.7600 H   0  0  0  0  0  0  0  0  0  0  0  0
    9.5433   -4.5619   23.7809 H   0  0  0  0  0  0  0  0  0  0  0  0
    7.1923   -1.8829   26.1908 H   0  0  0  0  0  0  0  0  0  0  0  0
   12.4058    0.0253   25.4623 H   0  0  0  0  0  0  0  0  0  0  0  0
   14.4923   -1.5246   25.0631 H   0  0  0  0  0  0  0  0  0  0  0  0
   12.2108   -0.8511   21.1948 H   0  0  0  0  0  0  0  0  0  0  0  0
    5.6529    0.7487   22.0767 H   0  0  0  0  0  0  0  0  0  0  0  0
    3.6388    2.0586   21.6675 H   0  0  0  0  0  0  0  0  0  0  0  0
    2.9822    2.6968   19.3330 H   0  0  0  0  0  0  0  0  0  0  0  0
    4.4111    1.9893   17.4360 H   0  0  0  0  0  0  0  0  0  0  0  0
    7.0643   -6.2848   26.1817 H   0  0  0  0  0  0  0  0  0  0  0  0
    6.3114   -5.2217   24.9450 H   0  0  0  0  0  0  0  0  0  0  0  0
    7.8776   -6.0310   24.6004 H   0  0  0  0  0  0  0  0  0  0  0  0
    7.9331   -5.3240   27.8129 H   0  0  0  0  0  0  0  0  0  0  0  0
    9.3988   -4.3488   27.4563 H   0  0  0  0  0  0  0  0  0  0  0  0
    7.8411   -3.5301   27.8167 H   0  0  0  0  0  0  0  0  0  0  0  0
   10.4561    1.0772   24.1620 H   0  0  0  0  0  0  0  0  0  0  0  0
   10.8743    1.5008   22.5014 H   0  0  0  0  0  0  0  0  0  0  0  0
    8.0689   -1.6186   21.0712 H   0  0  0  0  0  0  0  0  0  0  0  0
  1  3  2  0  0  0  0
  1  9  1  0  0  0  0
  2  4  1  0  0  0  0
  2  9  2  0  0  0  0
  3 10  1  0  0  0  0
  4 10  2  0  0  0  0
  5  6  2  0  0  0  0
  5  8  1  0  0  0  0
  6 28  1  0  0  0  0
  7  8  2  0  0  0  0
  7 28  1  0  0  0  0
  8 20  1  0  0  0  0
  9 25  1  0  0  0  0
 10 26  1  0  0  0  0
 11 12  2  0  0  0  0
 11 13  1  0  0  0  0
 11 23  1  0  0  0  0
 12 21  1  0  0  0  0
 12 24  1  0  0  0  0
 13 14  2  0  0  0  0
 14 15  1  0  0  0  0
 15 16  2  0  0  0  0
 16 23  1  0  0  0  0
 17 24  1  0  0  0  0
 17 25  1  0  0  0  0
 17 27  2  0  0  0  0
 18 26  1  0  0  0  0
 19 26  1  0  0  0  0
 20 25  1  0  0  0  0
 21 22  2  0  0  0  0
 22 23  1  0  0  0  0
  1 29  1  0  0  0  0
  2 30  1  0  0  0  0
  3 31  1  0  0  0  0
  4 32  1  0  0  0  0
  5 33  1  0  0  0  0
  6 34  1  0  0  0  0
  7 35  1  0  0  0  0
 13 36  1  0  0  0  0
 14 37  1  0  0  0  0
 15 38  1  0  0  0  0
 16 39  1  0  0  0  0
 18 40  1  0  0  0  0
 18 41  1  0  0  0  0
 18 42  1  0  0  0  0
 19 43  1  0  0  0  0
 19 44  1  0  0  0  0
 19 45  1  0  0  0  0
 20 46  1  0  0  0  0
 20 47  1  0  0  0  0
 24 48  1  0  0  0  0
M  END
> <clash_score>
0

> <docking_score>
-8.942152976989746

> <overlap_score>
0.9331527948379517

$$$$
BENZO_82_1
  -OEChem-08222022433D

 57 61  0     0  0  0  0  0  0999 V2000
    4.2460    1.7520   20.8250 C   0  0  0  0  0  0  0  0  0  0  0  0
    3.8860    2.1050   19.5250 C   0  0  0  0  0  0  0  0  0  0  0  0
   13.7501   -1.1157   24.6177 C   0  0  0  0  0  0  0  0  0  0  0  0
    5.3890    1.0010   21.0690 C   0  0  0  0  0  0  0  0  0  0  0  0
   12.5991   -0.3339   24.5202 C   0  0  0  0  0  0  0  0  0  0  0  0
    4.6610    1.7170   18.4380 C   0  0  0  0  0  0  0  0  0  0  0  0
    9.1890   -3.5540   24.0140 C   0  0  0  0  0  0  0  0  0  0  0  0
    7.8700   -2.0610   25.3550 C   0  0  0  0  0  0  0  0  0  0  0  0
    9.5890   -2.4950   23.2210 C   0  0  0  0  0  0  0  0  0  0  0  0
    8.2550   -1.0010   24.5520 C   0  0  0  0  0  0  0  0  0  0  0  0
   14.2636   -1.7454   23.4838 C   0  0  0  0  0  0  0  0  0  0  0  0
   12.4750   -0.8115   22.1551 C   0  0  0  0  0  0  0  0  0  0  0  0
    6.1460    0.6070   19.9750 C   0  0  0  0  0  0  0  0  0  0  0  0
   11.9616   -0.1817   23.2889 C   0  0  0  0  0  0  0  0  0  0  0  0
    5.7970    0.9500   18.6730 C   0  0  0  0  0  0  0  0  0  0  0  0
    8.3450   -3.3440   25.0980 C   0  0  0  0  0  0  0  0  0  0  0  0
    9.1280   -1.2090   23.4870 C   0  0  0  0  0  0  0  0  0  0  0  0
   13.6260   -1.5933   22.2526 C   0  0  0  0  0  0  0  0  0  0  0  0
    7.2710   -0.1460   19.8310 C   0  0  0  0  0  0  0  0  0  0  0  0
    9.0430    0.2380   21.4940 C   0  0  0  0  0  0  0  0  0  0  0  0
    8.9524   -5.2012   26.6600 C   0  0  0  0  0  0  0  0  0  0  0  0
    6.6112   -4.5068   26.4379 C   0  0  0  0  0  0  0  0  0  0  0  0
    8.9037   -4.7845   28.1261 C   0  0  0  0  0  0  0  0  0  0  0  0
    6.6374   -4.1243   27.9184 C   0  0  0  0  0  0  0  0  0  0  0  0
   10.7220    0.6590   23.1850 C   0  0  0  0  0  0  0  0  0  0  0  0
    7.5840   -0.2700   18.5160 N   0  0  0  0  0  0  0  0  0  0  0  0
    6.7100    0.3850   17.8100 N   0  0  0  0  0  0  0  0  0  0  0  0
    7.9775   -4.4014   25.9151 N   0  0  0  0  0  0  0  0  0  0  0  0
    8.0950   -0.7700   20.8440 N   0  0  0  0  0  0  0  0  0  0  0  0
    9.5820   -0.1080   22.7000 N   0  0  0  0  0  0  0  0  0  0  0  0
    9.2950    1.3000   20.9480 O   0  0  0  0  0  0  0  0  0  0  0  0
    7.5729   -4.9391   28.6338 O   0  0  0  0  0  0  0  0  0  0  0  0
   14.2594   -2.3714   20.8543 Cl  0  0  0  0  0  0  0  0  0  0  0  0
    3.6223    2.0725   21.6574 H   0  0  0  0  0  0  0  0  0  0  0  0
    2.9864    2.6933   19.3609 H   0  0  0  0  0  0  0  0  0  0  0  0
   14.2462   -1.2340   25.5766 H   0  0  0  0  0  0  0  0  0  0  0  0
    5.6689    0.7392   22.0836 H   0  0  0  0  0  0  0  0  0  0  0  0
   12.2060    0.1530   25.4088 H   0  0  0  0  0  0  0  0  0  0  0  0
    4.3807    2.0116   17.4186 H   0  0  0  0  0  0  0  0  0  0  0  0
    9.5426   -4.5618   23.7797 H   0  0  0  0  0  0  0  0  0  0  0  0
    7.1914   -1.8824   26.1903 H   0  0  0  0  0  0  0  0  0  0  0  0
   10.2669   -2.6745   22.3854 H   0  0  0  0  0  0  0  0  0  0  0  0
    7.8690   -0.0020   24.7587 H   0  0  0  0  0  0  0  0  0  0  0  0
   15.1613   -2.3520   23.5748 H   0  0  0  0  0  0  0  0  0  0  0  0
   11.9745   -0.6893   21.1973 H   0  0  0  0  0  0  0  0  0  0  0  0
    9.9615   -5.0500   26.2711 H   0  0  0  0  0  0  0  0  0  0  0  0
    8.6935   -6.2597   26.5720 H   0  0  0  0  0  0  0  0  0  0  0  0
    6.2628   -5.5350   26.3330 H   0  0  0  0  0  0  0  0  0  0  0  0
    5.9347   -3.8423   25.9023 H   0  0  0  0  0  0  0  0  0  0  0  0
    9.5597   -5.4275   28.7166 H   0  0  0  0  0  0  0  0  0  0  0  0
    9.2344   -3.7511   28.2636 H   0  0  0  0  0  0  0  0  0  0  0  0
    6.8874   -3.0657   28.0553 H   0  0  0  0  0  0  0  0  0  0  0  0
    5.6495   -4.2893   28.3591 H   0  0  0  0  0  0  0  0  0  0  0  0
   10.4561    1.0772   24.1620 H   0  0  0  0  0  0  0  0  0  0  0  0
   10.8743    1.5008   22.5014 H   0  0  0  0  0  0  0  0  0  0  0  0
    6.7486    0.4313   16.8331 H   0  0  0  0  0  0  0  0  0  0  0  0
    8.0897   -1.6082   21.0890 H   0  0  0  0  0  0  0  0  0  0  0  0
  1  2  1  0  0  0  0
  1  4  2  0  0  0  0
  2  6  2  0  0  0  0
  3  5  2  0  0  0  0
  3 11  1  0  0  0  0
  4 13  1  0  0  0  0
  5 14  1  0  0  0  0
  6 15  1  0  0  0  0
  7  9  2  0  0  0  0
  7 16  1  0  0  0  0
  8 10  1  0  0  0  0
  8 16  2  0  0  0  0
  9 17  1  0  0  0  0
 10 17  2  0  0  0  0
 11 18  2  0  0  0  0
 12 14  2  0  0  0  0
 12 18  1  0  0  0  0
 13 15  2  0  0  0  0
 13 19  1  0  0  0  0
 14 25  1  0  0  0  0
 15 27  1  0  0  0  0
 16 28  1  0  0  0  0
 17 30  1  0  0  0  0
 18 33  1  0  0  0  0
 19 26  2  0  0  0  0
 19 29  1  0  0  0  0
 20 29  1  0  0  0  0
 20 30  1  0  0  0  0
 20 31  2  0  0  0  0
 21 23  1  0  0  0  0
 21 28  1  0  0  0  0
 22 24  1  0  0  0  0
 22 28  1  0  0  0  0
 23 32  1  0  0  0  0
 24 32  1  0  0  0  0
 25 30  1  0  0  0  0
 26 27  1  0  0  0  0
  1 34  1  0  0  0  0
  2 35  1  0  0  0  0
  3 36  1  0  0  0  0
  4 37  1  0  0  0  0
  5 38  1  0  0  0  0
  6 39  1  0  0  0  0
  7 40  1  0  0  0  0
  8 41  1  0  0  0  0
  9 42  1  0  0  0  0
 10 43  1  0  0  0  0
 11 44  1  0  0  0  0
 12 45  1  0  0  0  0
 21 46  1  0  0  0  0
 21 47  1  0  0  0  0
 22 48  1  0  0  0  0
 22 49  1  0  0  0  0
 23 50  1  0  0  0  0
 23 51  1  0  0  0  0
 24 52  1  0  0  0  0
 24 53  1  0  0  0  0
 25 54  1  0  0  0  0
 25 55  1  0  0  0  0
 27 56  1  0  0  0  0
 29 57  1  0  0  0  0
M  END
> <clash_score>
0

> <docking_score>
-8.552607536315918

> <overlap_score>
1.001713752746582

$$$$
BENZO_87_1
  -OEChem-08222022433D

 51 54  0     0  0  0  0  0  0999 V2000
    9.5890   -2.4950   23.2210 C   0  0  0  0  0  0  0  0  0  0  0  0
    8.2550   -1.0010   24.5520 C   0  0  0  0  0  0  0  0  0  0  0  0
    9.1890   -3.5540   24.0140 C   0  0  0  0  0  0  0  0  0  0  0  0
    7.8700   -2.0610   25.3550 C   0  0  0  0  0  0  0  0  0  0  0  0
   12.7320   -0.4464   24.4370 C   0  0  0  0  0  0  0  0  0  0  0  0
   12.5970   -0.8682   22.2832 C   0  0  0  0  0  0  0  0  0  0  0  0
   11.9616   -0.1817   23.2889 C   0  0  0  0  0  0  0  0  0  0  0  0
    9.1280   -1.2090   23.4870 C   0  0  0  0  0  0  0  0  0  0  0  0
    8.3450   -3.3440   25.0980 C   0  0  0  0  0  0  0  0  0  0  0  0
    6.1460    0.6070   19.9750 C   0  0  0  0  0  0  0  0  0  0  0  0
    7.2710   -0.1460   19.8310 C   0  0  0  0  0  0  0  0  0  0  0  0
    5.3890    1.0010   21.0690 C   0  0  0  0  0  0  0  0  0  0  0  0
    4.2460    1.7520   20.8250 C   0  0  0  0  0  0  0  0  0  0  0  0
    3.8860    2.1050   19.5250 C   0  0  0  0  0  0  0  0  0  0  0  0
    4.6610    1.7170   18.4380 C   0  0  0  0  0  0  0  0  0  0  0  0
    9.0430    0.2380   21.4940 C   0  0  0  0  0  0  0  0  0  0  0  0
   14.6393   -2.3180   22.2082 C   0  0  0  0  0  0  0  0  0  0  0  0
    7.2639   -5.5575   25.3809 C   0  0  0  0  0  0  0  0  0  0  0  0
    8.3065   -4.4045   27.3384 C   0  0  0  0  0  0  0  0  0  0  0  0
   10.7220    0.6590   23.1850 C   0  0  0  0  0  0  0  0  0  0  0  0
   13.7770   -1.2393   24.1852 N   0  0  0  0  0  0  0  0  0  0  0  0
    7.5840   -0.2700   18.5160 N   0  0  0  0  0  0  0  0  0  0  0  0
    6.7100    0.3850   17.8100 N   0  0  0  0  0  0  0  0  0  0  0  0
   13.6676   -1.4788   22.8673 N   0  0  0  0  0  0  0  0  0  0  0  0
    5.7970    0.9500   18.6730 N   0  0  0  0  0  0  0  0  0  0  0  0
    8.0950   -0.7700   20.8440 N   0  0  0  0  0  0  0  0  0  0  0  0
    9.5820   -0.1080   22.7000 N   0  0  0  0  0  0  0  0  0  0  0  0
    7.9731   -4.4180   25.9279 N   0  0  0  0  0  0  0  0  0  0  0  0
    9.2950    1.3000   20.9480 O   0  0  0  0  0  0  0  0  0  0  0  0
   10.2682   -2.6746   22.3864 H   0  0  0  0  0  0  0  0  0  0  0  0
    7.8692   -0.0022   24.7600 H   0  0  0  0  0  0  0  0  0  0  0  0
    9.5433   -4.5619   23.7809 H   0  0  0  0  0  0  0  0  0  0  0  0
    7.1923   -1.8829   26.1908 H   0  0  0  0  0  0  0  0  0  0  0  0
   12.5771   -0.0965   25.4478 H   0  0  0  0  0  0  0  0  0  0  0  0
   12.3832   -0.9726   21.2281 H   0  0  0  0  0  0  0  0  0  0  0  0
    5.6529    0.7487   22.0767 H   0  0  0  0  0  0  0  0  0  0  0  0
    3.6388    2.0586   21.6675 H   0  0  0  0  0  0  0  0  0  0  0  0
    2.9822    2.6968   19.3330 H   0  0  0  0  0  0  0  0  0  0  0  0
    4.4111    1.9893   17.4360 H   0  0  0  0  0  0  0  0  0  0  0  0
   15.4522   -1.6787   21.8540 H   0  0  0  0  0  0  0  0  0  0  0  0
   15.0179   -3.0612   22.9154 H   0  0  0  0  0  0  0  0  0  0  0  0
   14.1626   -2.8324   21.3691 H   0  0  0  0  0  0  0  0  0  0  0  0
    7.0643   -6.2848   26.1817 H   0  0  0  0  0  0  0  0  0  0  0  0
    6.3114   -5.2217   24.9450 H   0  0  0  0  0  0  0  0  0  0  0  0
    7.8776   -6.0310   24.6004 H   0  0  0  0  0  0  0  0  0  0  0  0
    7.9331   -5.3240   27.8129 H   0  0  0  0  0  0  0  0  0  0  0  0
    9.3988   -4.3488   27.4563 H   0  0  0  0  0  0  0  0  0  0  0  0
    7.8411   -3.5301   27.8167 H   0  0  0  0  0  0  0  0  0  0  0  0
   10.4561    1.0772   24.1620 H   0  0  0  0  0  0  0  0  0  0  0  0
   10.8743    1.5008   22.5014 H   0  0  0  0  0  0  0  0  0  0  0  0
    8.0689   -1.6186   21.0712 H   0  0  0  0  0  0  0  0  0  0  0  0
  1  3  2  0  0  0  0
  1  8  1  0  0  0  0
  2  4  1  0  0  0  0
  2  8  2  0  0  0  0
  3  9  1  0  0  0  0
  4  9  2  0  0  0  0
  5  7  1  0  0  0  0
  5 21  2  0  0  0  0
  6  7  2  0  0  0  0
  6 24  1  0  0  0  0
  7 20  1  0  0  0  0
  8 27  1  0  0  0  0
  9 28  1  0  0  0  0
 10 11  2  0  0  0  0
 10 12  1  0  0  0  0
 10 25  1  0  0  0  0
 11 22  1  0  0  0  0
 11 26  1  0  0  0  0
 12 13  2  0  0  0  0
 13 14  1  0  0  0  0
 14 15  2  0  0  0  0
 15 25  1  0  0  0  0
 16 26  1  0  0  0  0
 16 27  1  0  0  0  0
 16 29  2  0  0  0  0
 17 24  1  0  0  0  0
 18 28  1  0  0  0  0
 19 28  1  0  0  0  0
 20 27  1  0  0  0  0
 21 24  1  0  0  0  0
 22 23  2  0  0  0  0
 23 25  1  0  0  0  0
  1 30  1  0  0  0  0
  2 31  1  0  0  0  0
  3 32  1  0  0  0  0
  4 33  1  0  0  0  0
  5 34  1  0  0  0  0
  6 35  1  0  0  0  0
 12 36  1  0  0  0  0
 13 37  1  0  0  0  0
 14 38  1  0  0  0  0
 15 39  1  0  0  0  0
 17 40  1  0  0  0  0
 17 41  1  0  0  0  0
 17 42  1  0  0  0  0
 18 43  1  0  0  0  0
 18 44  1  0  0  0  0
 18 45  1  0  0  0  0
 19 46  1  0  0  0  0
 19 47  1  0  0  0  0
 19 48  1  0  0  0  0
 20 49  1  0  0  0  0
 20 50  1  0  0  0  0
 26 51  1  0  0  0  0
M  END
> <clash_score>
0

> <docking_score>
-7.691372871398926

> <overlap_score>
0.9499825239181519

$$$$
BENZO_86_1
  -OEChem-08222022433D

 51 54  0     0  0  0  0  0  0999 V2000
   13.7501   -1.1157   24.6176 C   0  0  0  0  0  0  0  0  0  0  0  0
   12.5991   -0.3339   24.5202 C   0  0  0  0  0  0  0  0  0  0  0  0
    9.5890   -2.4950   23.2210 C   0  0  0  0  0  0  0  0  0  0  0  0
    8.2550   -1.0010   24.5520 C   0  0  0  0  0  0  0  0  0  0  0  0
    9.1890   -3.5540   24.0140 C   0  0  0  0  0  0  0  0  0  0  0  0
    7.8700   -2.0610   25.3550 C   0  0  0  0  0  0  0  0  0  0  0  0
   14.2636   -1.7454   23.4838 C   0  0  0  0  0  0  0  0  0  0  0  0
   12.4750   -0.8115   22.1551 C   0  0  0  0  0  0  0  0  0  0  0  0
   11.9616   -0.1817   23.2889 C   0  0  0  0  0  0  0  0  0  0  0  0
    9.1280   -1.2090   23.4870 C   0  0  0  0  0  0  0  0  0  0  0  0
    8.3450   -3.3440   25.0980 C   0  0  0  0  0  0  0  0  0  0  0  0
   13.6260   -1.5933   22.2526 C   0  0  0  0  0  0  0  0  0  0  0  0
    6.1460    0.6070   19.9750 C   0  0  0  0  0  0  0  0  0  0  0  0
    7.2710   -0.1460   19.8310 C   0  0  0  0  0  0  0  0  0  0  0  0
    5.3890    1.0010   21.0690 C   0  0  0  0  0  0  0  0  0  0  0  0
    4.2460    1.7520   20.8250 C   0  0  0  0  0  0  0  0  0  0  0  0
    3.8860    2.1050   19.5250 C   0  0  0  0  0  0  0  0  0  0  0  0
    4.6610    1.7170   18.4380 C   0  0  0  0  0  0  0  0  0  0  0  0
    9.0430    0.2380   21.4940 C   0  0  0  0  0  0  0  0  0  0  0  0
    7.2639   -5.5575   25.3809 C   0  0  0  0  0  0  0  0  0  0  0  0
    8.3065   -4.4045   27.3384 C   0  0  0  0  0  0  0  0  0  0  0  0
   10.7220    0.6590   23.1850 C   0  0  0  0  0  0  0  0  0  0  0  0
    7.5840   -0.2700   18.5160 N   0  0  0  0  0  0  0  0  0  0  0  0
    6.7100    0.3850   17.8100 N   0  0  0  0  0  0  0  0  0  0  0  0
    5.7970    0.9500   18.6730 N   0  0  0  0  0  0  0  0  0  0  0  0
    8.0950   -0.7700   20.8440 N   0  0  0  0  0  0  0  0  0  0  0  0
    9.5820   -0.1080   22.7000 N   0  0  0  0  0  0  0  0  0  0  0  0
    7.9731   -4.4180   25.9279 N   0  0  0  0  0  0  0  0  0  0  0  0
    9.2950    1.3000   20.9480 O   0  0  0  0  0  0  0  0  0  0  0  0
   14.2594   -2.3714   20.8543 Cl  0  0  0  0  0  0  0  0  0  0  0  0
   14.2462   -1.2340   25.5766 H   0  0  0  0  0  0  0  0  0  0  0  0
   12.2060    0.1530   25.4088 H   0  0  0  0  0  0  0  0  0  0  0  0
   10.2682   -2.6746   22.3864 H   0  0  0  0  0  0  0  0  0  0  0  0
    7.8692   -0.0022   24.7600 H   0  0  0  0  0  0  0  0  0  0  0  0
    9.5433   -4.5619   23.7809 H   0  0  0  0  0  0  0  0  0  0  0  0
    7.1923   -1.8829   26.1908 H   0  0  0  0  0  0  0  0  0  0  0  0
   15.1613   -2.3520   23.5747 H   0  0  0  0  0  0  0  0  0  0  0  0
   11.9745   -0.6893   21.1973 H   0  0  0  0  0  0  0  0  0  0  0  0
    5.6529    0.7487   22.0767 H   0  0  0  0  0  0  0  0  0  0  0  0
    3.6388    2.0586   21.6675 H   0  0  0  0  0  0  0  0  0  0  0  0
    2.9822    2.6968   19.3330 H   0  0  0  0  0  0  0  0  0  0  0  0
    4.4111    1.9893   17.4360 H   0  0  0  0  0  0  0  0  0  0  0  0
    7.0643   -6.2848   26.1817 H   0  0  0  0  0  0  0  0  0  0  0  0
    6.3114   -5.2217   24.9450 H   0  0  0  0  0  0  0  0  0  0  0  0
    7.8776   -6.0310   24.6004 H   0  0  0  0  0  0  0  0  0  0  0  0
    7.9331   -5.3240   27.8129 H   0  0  0  0  0  0  0  0  0  0  0  0
    9.3988   -4.3488   27.4563 H   0  0  0  0  0  0  0  0  0  0  0  0
    7.8411   -3.5301   27.8167 H   0  0  0  0  0  0  0  0  0  0  0  0
   10.4561    1.0772   24.1620 H   0  0  0  0  0  0  0  0  0  0  0  0
   10.8743    1.5008   22.5014 H   0  0  0  0  0  0  0  0  0  0  0  0
    8.0689   -1.6186   21.0712 H   0  0  0  0  0  0  0  0  0  0  0  0
  1  2  2  0  0  0  0
  1  7  1  0  0  0  0
  2  9  1  0  0  0  0
  3  5  2  0  0  0  0
  3 10  1  0  0  0  0
  4  6  1  0  0  0  0
  4 10  2  0  0  0  0
  5 11  1  0  0  0  0
  6 11  2  0  0  0  0
  7 12  2  0  0  0  0
  8  9  2  0  0  0  0
  8 12  1  0  0  0  0
  9 22  1  0  0  0  0
 10 27  1  0  0  0  0
 11 28  1  0  0  0  0
 12 30  1  0  0  0  0
 13 14  2  0  0  0  0
 13 15  1  0  0  0  0
 13 25  1  0  0  0  0
 14 23  1  0  0  0  0
 14 26  1  0  0  0  0
 15 16  2  0  0  0  0
 16 17  1  0  0  0  0
 17 18  2  0  0  0  0
 18 25  1  0  0  0  0
 19 26  1  0  0  0  0
 19 27  1  0  0  0  0
 19 29  2  0  0  0  0
 20 28  1  0  0  0  0
 21 28  1  0  0  0  0
 22 27  1  0  0  0  0
 23 24  2  0  0  0  0
 24 25  1  0  0  0  0
  1 31  1  0  0  0  0
  2 32  1  0  0  0  0
  3 33  1  0  0  0  0
  4 34  1  0  0  0  0
  5 35  1  0  0  0  0
  6 36  1  0  0  0  0
  7 37  1  0  0  0  0
  8 38  1  0  0  0  0
 15 39  1  0  0  0  0
 16 40  1  0  0  0  0
 17 41  1  0  0  0  0
 18 42  1  0  0  0  0
 20 43  1  0  0  0  0
 20 44  1  0  0  0  0
 20 45  1  0  0  0  0
 21 46  1  0  0  0  0
 21 47  1  0  0  0  0
 21 48  1  0  0  0  0
 22 49  1  0  0  0  0
 22 50  1  0  0  0  0
 26 51  1  0  0  0  0
M  END
> <clash_score>
0

> <docking_score>
-8.455349922180176

> <overlap_score>
0.9545665383338928

$$$$
BENZO_89_1
  -OEChem-08222022433D

 53 56  0     0  0  0  0  0  0999 V2000
   14.2641   -1.7450   23.4813 C   0  0  0  0  0  0  0  0  0  0  0  0
   14.0779   -0.6681   24.3480 C   0  0  0  0  0  0  0  0  0  0  0  0
   13.2991   -2.0403   22.5184 C   0  0  0  0  0  0  0  0  0  0  0  0
   12.9266    0.1135   24.2518 C   0  0  0  0  0  0  0  0  0  0  0  0
   12.1478   -1.2587   22.4222 C   0  0  0  0  0  0  0  0  0  0  0  0
    9.1890   -3.5540   24.0140 C   0  0  0  0  0  0  0  0  0  0  0  0
    7.8700   -2.0610   25.3550 C   0  0  0  0  0  0  0  0  0  0  0  0
    9.5890   -2.4950   23.2210 C   0  0  0  0  0  0  0  0  0  0  0  0
    8.2550   -1.0010   24.5520 C   0  0  0  0  0  0  0  0  0  0  0  0
   11.9616   -0.1817   23.2889 C   0  0  0  0  0  0  0  0  0  0  0  0
    8.3450   -3.3440   25.0980 C   0  0  0  0  0  0  0  0  0  0  0  0
    9.1280   -1.2090   23.4870 C   0  0  0  0  0  0  0  0  0  0  0  0
    6.1460    0.6070   19.9750 C   0  0  0  0  0  0  0  0  0  0  0  0
    7.2710   -0.1460   19.8310 C   0  0  0  0  0  0  0  0  0  0  0  0
    5.3890    1.0010   21.0690 C   0  0  0  0  0  0  0  0  0  0  0  0
    4.2460    1.7520   20.8250 C   0  0  0  0  0  0  0  0  0  0  0  0
    3.8860    2.1050   19.5250 C   0  0  0  0  0  0  0  0  0  0  0  0
    4.6610    1.7170   18.4380 C   0  0  0  0  0  0  0  0  0  0  0  0
    7.1411   -4.3812   27.0477 C   0  0  0  0  0  0  0  0  0  0  0  0
    9.0430    0.2380   21.4940 C   0  0  0  0  0  0  0  0  0  0  0  0
    8.0771   -6.0677   28.6864 C   0  0  0  0  0  0  0  0  0  0  0  0
   10.7220    0.6590   23.1850 C   0  0  0  0  0  0  0  0  0  0  0  0
    7.0009   -5.7676   27.6585 C   0  0  0  0  0  0  0  0  0  0  0  0
    7.5840   -0.2700   18.5160 N   0  0  0  0  0  0  0  0  0  0  0  0
    6.7100    0.3850   17.8100 N   0  0  0  0  0  0  0  0  0  0  0  0
    5.7970    0.9500   18.6730 N   0  0  0  0  0  0  0  0  0  0  0  0
    7.9771   -4.4058   25.9196 N   0  0  0  0  0  0  0  0  0  0  0  0
    8.0950   -0.7700   20.8440 N   0  0  0  0  0  0  0  0  0  0  0  0
    9.5820   -0.1080   22.7000 N   0  0  0  0  0  0  0  0  0  0  0  0
    6.5740   -3.4017   27.5205 O   0  0  0  0  0  0  0  0  0  0  0  0
    9.2950    1.3000   20.9480 O   0  0  0  0  0  0  0  0  0  0  0  0
   15.1613   -2.3527   23.5555 H   0  0  0  0  0  0  0  0  0  0  0  0
   14.8297   -0.4373   25.0971 H   0  0  0  0  0  0  0  0  0  0  0  0
   13.4443   -2.8780   21.8427 H   0  0  0  0  0  0  0  0  0  0  0  0
   12.7899    0.9506   24.9315 H   0  0  0  0  0  0  0  0  0  0  0  0
   11.4013   -1.4963   21.6690 H   0  0  0  0  0  0  0  0  0  0  0  0
    9.5436   -4.5614   23.7799 H   0  0  0  0  0  0  0  0  0  0  0  0
    7.1918   -1.8823   26.1906 H   0  0  0  0  0  0  0  0  0  0  0  0
   10.2676   -2.6754   22.3861 H   0  0  0  0  0  0  0  0  0  0  0  0
    7.8686   -0.0026   24.7598 H   0  0  0  0  0  0  0  0  0  0  0  0
    5.6529    0.7487   22.0767 H   0  0  0  0  0  0  0  0  0  0  0  0
    3.6388    2.0586   21.6675 H   0  0  0  0  0  0  0  0  0  0  0  0
    2.9822    2.6968   19.3330 H   0  0  0  0  0  0  0  0  0  0  0  0
    4.4111    1.9893   17.4360 H   0  0  0  0  0  0  0  0  0  0  0  0
    9.0754   -6.0011   28.2415 H   0  0  0  0  0  0  0  0  0  0  0  0
    7.9488   -7.0773   29.0889 H   0  0  0  0  0  0  0  0  0  0  0  0
    8.0332   -5.3590   29.5200 H   0  0  0  0  0  0  0  0  0  0  0  0
   10.4561    1.0772   24.1620 H   0  0  0  0  0  0  0  0  0  0  0  0
   10.8743    1.5008   22.5014 H   0  0  0  0  0  0  0  0  0  0  0  0
    6.0143   -5.8413   28.1303 H   0  0  0  0  0  0  0  0  0  0  0  0
    7.0482   -6.5089   26.8525 H   0  0  0  0  0  0  0  0  0  0  0  0
    8.3619   -5.3256   25.6749 H   0  0  0  0  0  0  0  0  0  0  0  0
    8.0689   -1.6186   21.0712 H   0  0  0  0  0  0  0  0  0  0  0  0
  1  2  1  0  0  0  0
  1  3  2  0  0  0  0
  2  4  2  0  0  0  0
  3  5  1  0  0  0  0
  4 10  1  0  0  0  0
  5 10  2  0  0  0  0
  6  8  2  0  0  0  0
  6 11  1  0  0  0  0
  7  9  1  0  0  0  0
  7 11  2  0  0  0  0
  8 12  1  0  0  0  0
  9 12  2  0  0  0  0
 10 22  1  0  0  0  0
 11 27  1  0  0  0  0
 12 29  1  0  0  0  0
 13 14  2  0  0  0  0
 13 15  1  0  0  0  0
 13 26  1  0  0  0  0
 14 24  1  0  0  0  0
 14 28  1  0  0  0  0
 15 16  2  0  0  0  0
 16 17  1  0  0  0  0
 17 18  2  0  0  0  0
 18 26  1  0  0  0  0
 19 23  1  0  0  0  0
 19 27  1  0  0  0  0
 19 30  2  0  0  0  0
 20 28  1  0  0  0  0
 20 29  1  0  0  0  0
 20 31  2  0  0  0  0
 21 23  1  0  0  0  0
 22 29  1  0  0  0  0
 24 25  2  0  0  0  0
 25 26  1  0  0  0  0
  1 32  1  0  0  0  0
  2 33  1  0  0  0  0
  3 34  1  0  0  0  0
  4 35  1  0  0  0  0
  5 36  1  0  0  0  0
  6 37  1  0  0  0  0
  7 38  1  0  0  0  0
  8 39  1  0  0  0  0
  9 40  1  0  0  0  0
 15 41  1  0  0  0  0
 16 42  1  0  0  0  0
 17 43  1  0  0  0  0
 18 44  1  0  0  0  0
 21 45  1  0  0  0  0
 21 46  1  0  0  0  0
 21 47  1  0  0  0  0
 22 48  1  0  0  0  0
 22 49  1  0  0  0  0
 23 50  1  0  0  0  0
 23 51  1  0  0  0  0
 27 52  1  0  0  0  0
 28 53  1  0  0  0  0
M  END
> <clash_score>
0

> <docking_score>
-8.93077564239502

> <overlap_score>
0.9713055491447449

$$$$
BENZO_88_1
  -OEChem-08222022433D

 50 53  0     0  0  0  0  0  0999 V2000
    9.1890   -3.5540   24.0140 C   0  0  0  0  0  0  0  0  0  0  0  0
    7.8700   -2.0610   25.3550 C   0  0  0  0  0  0  0  0  0  0  0  0
    9.5890   -2.4950   23.2210 C   0  0  0  0  0  0  0  0  0  0  0  0
    8.2550   -1.0010   24.5520 C   0  0  0  0  0  0  0  0  0  0  0  0
   12.6785   -0.3936   24.5018 C   0  0  0  0  0  0  0  0  0  0  0  0
   13.7775   -1.2037   24.3186 C   0  0  0  0  0  0  0  0  0  0  0  0
   12.5401   -0.8378   22.2246 C   0  0  0  0  0  0  0  0  0  0  0  0
   11.9616   -0.1817   23.2889 C   0  0  0  0  0  0  0  0  0  0  0  0
    8.3450   -3.3440   25.0980 C   0  0  0  0  0  0  0  0  0  0  0  0
    9.1280   -1.2090   23.4870 C   0  0  0  0  0  0  0  0  0  0  0  0
    6.1460    0.6070   19.9750 C   0  0  0  0  0  0  0  0  0  0  0  0
    7.2710   -0.1460   19.8310 C   0  0  0  0  0  0  0  0  0  0  0  0
    5.3890    1.0010   21.0690 C   0  0  0  0  0  0  0  0  0  0  0  0
    4.2460    1.7520   20.8250 C   0  0  0  0  0  0  0  0  0  0  0  0
    3.8860    2.1050   19.5250 C   0  0  0  0  0  0  0  0  0  0  0  0
    4.6610    1.7170   18.4380 C   0  0  0  0  0  0  0  0  0  0  0  0
    8.2022   -4.5554   27.2977 C   0  0  0  0  0  0  0  0  0  0  0  0
    9.0430    0.2380   21.4940 C   0  0  0  0  0  0  0  0  0  0  0  0
    7.8888   -6.0857   29.2891 C   0  0  0  0  0  0  0  0  0  0  0  0
   10.7220    0.6590   23.1850 C   0  0  0  0  0  0  0  0  0  0  0  0
    7.6346   -5.8716   27.8078 C   0  0  0  0  0  0  0  0  0  0  0  0
    7.5840   -0.2700   18.5160 N   0  0  0  0  0  0  0  0  0  0  0  0
    6.7100    0.3850   17.8100 N   0  0  0  0  0  0  0  0  0  0  0  0
    5.7970    0.9500   18.6730 N   0  0  0  0  0  0  0  0  0  0  0  0
    7.9771   -4.4058   25.9196 N   0  0  0  0  0  0  0  0  0  0  0  0
    8.0950   -0.7700   20.8440 N   0  0  0  0  0  0  0  0  0  0  0  0
    9.5820   -0.1080   22.7000 N   0  0  0  0  0  0  0  0  0  0  0  0
    8.7736   -3.7626   28.0389 O   0  0  0  0  0  0  0  0  0  0  0  0
    9.2950    1.3000   20.9480 O   0  0  0  0  0  0  0  0  0  0  0  0
   13.9416   -1.7050   22.6894 S   0  0  0  0  0  0  0  0  0  0  0  0
    9.5436   -4.5614   23.7799 H   0  0  0  0  0  0  0  0  0  0  0  0
    7.1918   -1.8823   26.1906 H   0  0  0  0  0  0  0  0  0  0  0  0
   10.2676   -2.6754   22.3861 H   0  0  0  0  0  0  0  0  0  0  0  0
    7.8686   -0.0026   24.7598 H   0  0  0  0  0  0  0  0  0  0  0  0
   12.4058    0.0253   25.4623 H   0  0  0  0  0  0  0  0  0  0  0  0
   14.4923   -1.5246   25.0631 H   0  0  0  0  0  0  0  0  0  0  0  0
   12.2108   -0.8511   21.1948 H   0  0  0  0  0  0  0  0  0  0  0  0
    5.6529    0.7487   22.0767 H   0  0  0  0  0  0  0  0  0  0  0  0
    3.6388    2.0586   21.6675 H   0  0  0  0  0  0  0  0  0  0  0  0
    2.9822    2.6968   19.3330 H   0  0  0  0  0  0  0  0  0  0  0  0
    4.4111    1.9893   17.4360 H   0  0  0  0  0  0  0  0  0  0  0  0
    8.9615   -6.0801   29.5089 H   0  0  0  0  0  0  0  0  0  0  0  0
    7.4787   -7.0478   29.6110 H   0  0  0  0  0  0  0  0  0  0  0  0
    7.4197   -5.2969   29.8865 H   0  0  0  0  0  0  0  0  0  0  0  0
   10.4561    1.0772   24.1620 H   0  0  0  0  0  0  0  0  0  0  0  0
   10.8743    1.5008   22.5014 H   0  0  0  0  0  0  0  0  0  0  0  0
    6.5553   -5.8818   27.6170 H   0  0  0  0  0  0  0  0  0  0  0  0
    8.0880   -6.6902   27.2370 H   0  0  0  0  0  0  0  0  0  0  0  0
    7.4775   -5.1801   25.4670 H   0  0  0  0  0  0  0  0  0  0  0  0
    8.0689   -1.6186   21.0712 H   0  0  0  0  0  0  0  0  0  0  0  0
  1  3  2  0  0  0  0
  1  9  1  0  0  0  0
  2  4  1  0  0  0  0
  2  9  2  0  0  0  0
  3 10  1  0  0  0  0
  4 10  2  0  0  0  0
  5  6  2  0  0  0  0
  5  8  1  0  0  0  0
  6 30  1  0  0  0  0
  7  8  2  0  0  0  0
  7 30  1  0  0  0  0
  8 20  1  0  0  0  0
  9 25  1  0  0  0  0
 10 27  1  0  0  0  0
 11 12  2  0  0  0  0
 11 13  1  0  0  0  0
 11 24  1  0  0  0  0
 12 22  1  0  0  0  0
 12 26  1  0  0  0  0
 13 14  2  0  0  0  0
 14 15  1  0  0  0  0
 15 16  2  0  0  0  0
 16 24  1  0  0  0  0
 17 21  1  0  0  0  0
 17 25  1  0  0  0  0
 17 28  2  0  0  0  0
 18 26  1  0  0  0  0
 18 27  1  0  0  0  0
 18 29  2  0  0  0  0
 19 21  1  0  0  0  0
 20 27  1  0  0  0  0
 22 23  2  0  0  0  0
 23 24  1  0  0  0  0
  1 31  1  0  0  0  0
  2 32  1  0  0  0  0
  3 33  1  0  0  0  0
  4 34  1  0  0  0  0
  5 35  1  0  0  0  0
  6 36  1  0  0  0  0
  7 37  1  0  0  0  0
 13 38  1  0  0  0  0
 14 39  1  0  0  0  0
 15 40  1  0  0  0  0
 16 41  1  0  0  0  0
 19 42  1  0  0  0  0
 19 43  1  0  0  0  0
 19 44  1  0  0  0  0
 20 45  1  0  0  0  0
 20 46  1  0  0  0  0
 21 47  1  0  0  0  0
 21 48  1  0  0  0  0
 25 49  1  0  0  0  0
 26 50  1  0  0  0  0
M  END
> <clash_score>
0

> <docking_score>
-9.217599868774414

> <overlap_score>
0.9895350337028503

$$$$
BENZO_93_1
  -OEChem-08222022433D

 58 62  0     0  0  0  0  0  0999 V2000
   14.2642   -1.7450   23.4813 C   0  0  0  0  0  0  0  0  0  0  0  0
   14.0779   -0.6681   24.3480 C   0  0  0  0  0  0  0  0  0  0  0  0
   13.2991   -2.0403   22.5184 C   0  0  0  0  0  0  0  0  0  0  0  0
   12.9266    0.1135   24.2518 C   0  0  0  0  0  0  0  0  0  0  0  0
   12.1478   -1.2587   22.4222 C   0  0  0  0  0  0  0  0  0  0  0  0
    9.1890   -3.5540   24.0140 C   0  0  0  0  0  0  0  0  0  0  0  0
    7.8700   -2.0610   25.3550 C   0  0  0  0  0  0  0  0  0  0  0  0
    9.5890   -2.4950   23.2210 C   0  0  0  0  0  0  0  0  0  0  0  0
    8.2550   -1.0010   24.5520 C   0  0  0  0  0  0  0  0  0  0  0  0
   11.9616   -0.1817   23.2889 C   0  0  0  0  0  0  0  0  0  0  0  0
    8.3450   -3.3440   25.0980 C   0  0  0  0  0  0  0  0  0  0  0  0
    9.1280   -1.2090   23.4870 C   0  0  0  0  0  0  0  0  0  0  0  0
    6.1460    0.6070   19.9750 C   0  0  0  0  0  0  0  0  0  0  0  0
    7.2710   -0.1460   19.8310 C   0  0  0  0  0  0  0  0  0  0  0  0
    5.3890    1.0010   21.0690 C   0  0  0  0  0  0  0  0  0  0  0  0
    4.2460    1.7520   20.8250 C   0  0  0  0  0  0  0  0  0  0  0  0
    3.8860    2.1050   19.5250 C   0  0  0  0  0  0  0  0  0  0  0  0
    4.6610    1.7170   18.4380 C   0  0  0  0  0  0  0  0  0  0  0  0
    9.0430    0.2380   21.4940 C   0  0  0  0  0  0  0  0  0  0  0  0
    7.3495   -6.6199   27.6701 C   0  0  0  0  0  0  0  0  0  0  0  0
    6.9542   -6.6348   26.1986 C   0  0  0  0  0  0  0  0  0  0  0  0
    7.3959   -5.1872   28.1871 C   0  0  0  0  0  0  0  0  0  0  0  0
    7.8834   -5.7613   25.3569 C   0  0  0  0  0  0  0  0  0  0  0  0
    8.3297   -4.3204   27.3453 C   0  0  0  0  0  0  0  0  0  0  0  0
   10.7220    0.6590   23.1850 C   0  0  0  0  0  0  0  0  0  0  0  0
    7.5840   -0.2700   18.5160 N   0  0  0  0  0  0  0  0  0  0  0  0
    6.7100    0.3850   17.8100 N   0  0  0  0  0  0  0  0  0  0  0  0
    5.7970    0.9500   18.6730 N   0  0  0  0  0  0  0  0  0  0  0  0
    7.9745   -4.4101   25.9218 N   0  0  0  0  0  0  0  0  0  0  0  0
    8.0950   -0.7700   20.8440 N   0  0  0  0  0  0  0  0  0  0  0  0
    9.5820   -0.1080   22.7000 N   0  0  0  0  0  0  0  0  0  0  0  0
    9.2950    1.3000   20.9480 O   0  0  0  0  0  0  0  0  0  0  0  0
   15.1613   -2.3527   23.5555 H   0  0  0  0  0  0  0  0  0  0  0  0
   14.8297   -0.4373   25.0971 H   0  0  0  0  0  0  0  0  0  0  0  0
   13.4443   -2.8780   21.8427 H   0  0  0  0  0  0  0  0  0  0  0  0
   12.7899    0.9506   24.9315 H   0  0  0  0  0  0  0  0  0  0  0  0
   11.4013   -1.4963   21.6690 H   0  0  0  0  0  0  0  0  0  0  0  0
    9.5426   -4.5618   23.7797 H   0  0  0  0  0  0  0  0  0  0  0  0
    7.1914   -1.8824   26.1903 H   0  0  0  0  0  0  0  0  0  0  0  0
   10.2669   -2.6745   22.3854 H   0  0  0  0  0  0  0  0  0  0  0  0
    7.8690   -0.0020   24.7587 H   0  0  0  0  0  0  0  0  0  0  0  0
    5.6529    0.7487   22.0767 H   0  0  0  0  0  0  0  0  0  0  0  0
    3.6388    2.0586   21.6675 H   0  0  0  0  0  0  0  0  0  0  0  0
    2.9822    2.6968   19.3330 H   0  0  0  0  0  0  0  0  0  0  0  0
    4.4111    1.9893   17.4360 H   0  0  0  0  0  0  0  0  0  0  0  0
    6.6275   -7.2030   28.2544 H   0  0  0  0  0  0  0  0  0  0  0  0
    8.3286   -7.0944   27.7981 H   0  0  0  0  0  0  0  0  0  0  0  0
    6.9785   -7.6646   25.8205 H   0  0  0  0  0  0  0  0  0  0  0  0
    5.9224   -6.2815   26.0912 H   0  0  0  0  0  0  0  0  0  0  0  0
    6.3874   -4.7586   28.1744 H   0  0  0  0  0  0  0  0  0  0  0  0
    7.7314   -5.1812   29.2316 H   0  0  0  0  0  0  0  0  0  0  0  0
    8.8752   -6.2297   25.3260 H   0  0  0  0  0  0  0  0  0  0  0  0
    7.5092   -5.7078   24.3260 H   0  0  0  0  0  0  0  0  0  0  0  0
    8.2703   -3.2761   27.6782 H   0  0  0  0  0  0  0  0  0  0  0  0
    9.3614   -4.6600   27.5015 H   0  0  0  0  0  0  0  0  0  0  0  0
   10.4561    1.0772   24.1620 H   0  0  0  0  0  0  0  0  0  0  0  0
   10.8743    1.5008   22.5014 H   0  0  0  0  0  0  0  0  0  0  0  0
    8.0897   -1.6082   21.0890 H   0  0  0  0  0  0  0  0  0  0  0  0
  1  2  1  0  0  0  0
  1  3  2  0  0  0  0
  2  4  2  0  0  0  0
  3  5  1  0  0  0  0
  4 10  1  0  0  0  0
  5 10  2  0  0  0  0
  6  8  2  0  0  0  0
  6 11  1  0  0  0  0
  7  9  1  0  0  0  0
  7 11  2  0  0  0  0
  8 12  1  0  0  0  0
  9 12  2  0  0  0  0
 10 25  1  0  0  0  0
 11 29  1  0  0  0  0
 12 31  1  0  0  0  0
 13 14  2  0  0  0  0
 13 15  1  0  0  0  0
 13 28  1  0  0  0  0
 14 26  1  0  0  0  0
 14 30  1  0  0  0  0
 15 16  2  0  0  0  0
 16 17  1  0  0  0  0
 17 18  2  0  0  0  0
 18 28  1  0  0  0  0
 19 30  1  0  0  0  0
 19 31  1  0  0  0  0
 19 32  2  0  0  0  0
 20 21  1  0  0  0  0
 20 22  1  0  0  0  0
 21 23  1  0  0  0  0
 22 24  1  0  0  0  0
 23 29  1  0  0  0  0
 24 29  1  0  0  0  0
 25 31  1  0  0  0  0
 26 27  2  0  0  0  0
 27 28  1  0  0  0  0
  1 33  1  0  0  0  0
  2 34  1  0  0  0  0
  3 35  1  0  0  0  0
  4 36  1  0  0  0  0
  5 37  1  0  0  0  0
  6 38  1  0  0  0  0
  7 39  1  0  0  0  0
  8 40  1  0  0  0  0
  9 41  1  0  0  0  0
 15 42  1  0  0  0  0
 16 43  1  0  0  0  0
 17 44  1  0  0  0  0
 18 45  1  0  0  0  0
 20 46  1  0  0  0  0
 20 47  1  0  0  0  0
 21 48  1  0  0  0  0
 21 49  1  0  0  0  0
 22 50  1  0  0  0  0
 22 51  1  0  0  0  0
 23 52  1  0  0  0  0
 23 53  1  0  0  0  0
 24 54  1  0  0  0  0
 24 55  1  0  0  0  0
 25 56  1  0  0  0  0
 25 57  1  0  0  0  0
 30 58  1  0  0  0  0
M  END
> <clash_score>
0

> <docking_score>
-9.015347480773926

> <overlap_score>
0.9952272772789001

$$$$
BENZO_91_1
  -OEChem-08222022433D

 53 56  0     0  0  0  0  0  0999 V2000
    9.1890   -3.5540   24.0140 C   0  0  0  0  0  0  0  0  0  0  0  0
    7.8700   -2.0610   25.3550 C   0  0  0  0  0  0  0  0  0  0  0  0
    9.5890   -2.4950   23.2210 C   0  0  0  0  0  0  0  0  0  0  0  0
    8.2550   -1.0010   24.5520 C   0  0  0  0  0  0  0  0  0  0  0  0
   12.7320   -0.4464   24.4370 C   0  0  0  0  0  0  0  0  0  0  0  0
   12.5970   -0.8682   22.2832 C   0  0  0  0  0  0  0  0  0  0  0  0
   11.9616   -0.1817   23.2889 C   0  0  0  0  0  0  0  0  0  0  0  0
    8.3450   -3.3440   25.0980 C   0  0  0  0  0  0  0  0  0  0  0  0
    9.1280   -1.2090   23.4870 C   0  0  0  0  0  0  0  0  0  0  0  0
    6.1460    0.6070   19.9750 C   0  0  0  0  0  0  0  0  0  0  0  0
    7.2710   -0.1460   19.8310 C   0  0  0  0  0  0  0  0  0  0  0  0
    5.3890    1.0010   21.0690 C   0  0  0  0  0  0  0  0  0  0  0  0
    4.2460    1.7520   20.8250 C   0  0  0  0  0  0  0  0  0  0  0  0
    3.8860    2.1050   19.5250 C   0  0  0  0  0  0  0  0  0  0  0  0
    4.6610    1.7170   18.4380 C   0  0  0  0  0  0  0  0  0  0  0  0
    8.2022   -4.5554   27.2977 C   0  0  0  0  0  0  0  0  0  0  0  0
    9.0430    0.2380   21.4940 C   0  0  0  0  0  0  0  0  0  0  0  0
    7.8888   -6.0857   29.2891 C   0  0  0  0  0  0  0  0  0  0  0  0
   14.6393   -2.3180   22.2082 C   0  0  0  0  0  0  0  0  0  0  0  0
   10.7220    0.6590   23.1850 C   0  0  0  0  0  0  0  0  0  0  0  0
    7.6346   -5.8716   27.8078 C   0  0  0  0  0  0  0  0  0  0  0  0
   13.7770   -1.2393   24.1852 N   0  0  0  0  0  0  0  0  0  0  0  0
    7.5840   -0.2700   18.5160 N   0  0  0  0  0  0  0  0  0  0  0  0
    6.7100    0.3850   17.8100 N   0  0  0  0  0  0  0  0  0  0  0  0
   13.6676   -1.4788   22.8673 N   0  0  0  0  0  0  0  0  0  0  0  0
    5.7970    0.9500   18.6730 N   0  0  0  0  0  0  0  0  0  0  0  0
    7.9771   -4.4058   25.9196 N   0  0  0  0  0  0  0  0  0  0  0  0
    8.0950   -0.7700   20.8440 N   0  0  0  0  0  0  0  0  0  0  0  0
    9.5820   -0.1080   22.7000 N   0  0  0  0  0  0  0  0  0  0  0  0
    8.7736   -3.7626   28.0389 O   0  0  0  0  0  0  0  0  0  0  0  0
    9.2950    1.3000   20.9480 O   0  0  0  0  0  0  0  0  0  0  0  0
    9.5436   -4.5614   23.7799 H   0  0  0  0  0  0  0  0  0  0  0  0
    7.1918   -1.8823   26.1906 H   0  0  0  0  0  0  0  0  0  0  0  0
   10.2676   -2.6754   22.3861 H   0  0  0  0  0  0  0  0  0  0  0  0
    7.8686   -0.0026   24.7598 H   0  0  0  0  0  0  0  0  0  0  0  0
   12.5771   -0.0965   25.4478 H   0  0  0  0  0  0  0  0  0  0  0  0
   12.3832   -0.9726   21.2281 H   0  0  0  0  0  0  0  0  0  0  0  0
    5.6529    0.7487   22.0767 H   0  0  0  0  0  0  0  0  0  0  0  0
    3.6388    2.0586   21.6675 H   0  0  0  0  0  0  0  0  0  0  0  0
    2.9822    2.6968   19.3330 H   0  0  0  0  0  0  0  0  0  0  0  0
    4.4111    1.9893   17.4360 H   0  0  0  0  0  0  0  0  0  0  0  0
    8.9615   -6.0801   29.5089 H   0  0  0  0  0  0  0  0  0  0  0  0
    7.4787   -7.0478   29.6110 H   0  0  0  0  0  0  0  0  0  0  0  0
    7.4197   -5.2969   29.8865 H   0  0  0  0  0  0  0  0  0  0  0  0
   15.4522   -1.6787   21.8540 H   0  0  0  0  0  0  0  0  0  0  0  0
   15.0179   -3.0612   22.9154 H   0  0  0  0  0  0  0  0  0  0  0  0
   14.1626   -2.8324   21.3691 H   0  0  0  0  0  0  0  0  0  0  0  0
   10.4561    1.0772   24.1620 H   0  0  0  0  0  0  0  0  0  0  0  0
   10.8743    1.5008   22.5014 H   0  0  0  0  0  0  0  0  0  0  0  0
    6.5553   -5.8818   27.6170 H   0  0  0  0  0  0  0  0  0  0  0  0
    8.0880   -6.6902   27.2370 H   0  0  0  0  0  0  0  0  0  0  0  0
    7.4775   -5.1801   25.4670 H   0  0  0  0  0  0  0  0  0  0  0  0
    8.0689   -1.6186   21.0712 H   0  0  0  0  0  0  0  0  0  0  0  0
  1  3  2  0  0  0  0
  1  8  1  0  0  0  0
  2  4  1  0  0  0  0
  2  8  2  0  0  0  0
  3  9  1  0  0  0  0
  4  9  2  0  0  0  0
  5  7  1  0  0  0  0
  5 22  2  0  0  0  0
  6  7  2  0  0  0  0
  6 25  1  0  0  0  0
  7 20  1  0  0  0  0
  8 27  1  0  0  0  0
  9 29  1  0  0  0  0
 10 11  2  0  0  0  0
 10 12  1  0  0  0  0
 10 26  1  0  0  0  0
 11 23  1  0  0  0  0
 11 28  1  0  0  0  0
 12 13  2  0  0  0  0
 13 14  1  0  0  0  0
 14 15  2  0  0  0  0
 15 26  1  0  0  0  0
 16 21  1  0  0  0  0
 16 27  1  0  0  0  0
 16 30  2  0  0  0  0
 17 28  1  0  0  0  0
 17 29  1  0  0  0  0
 17 31  2  0  0  0  0
 18 21  1  0  0  0  0
 19 25  1  0  0  0  0
 20 29  1  0  0  0  0
 22 25  1  0  0  0  0
 23 24  2  0  0  0  0
 24 26  1  0  0  0  0
  1 32  1  0  0  0  0
  2 33  1  0  0  0  0
  3 34  1  0  0  0  0
  4 35  1  0  0  0  0
  5 36  1  0  0  0  0
  6 37  1  0  0  0  0
 12 38  1  0  0  0  0
 13 39  1  0  0  0  0
 14 40  1  0  0  0  0
 15 41  1  0  0  0  0
 18 42  1  0  0  0  0
 18 43  1  0  0  0  0
 18 44  1  0  0  0  0
 19 45  1  0  0  0  0
 19 46  1  0  0  0  0
 19 47  1  0  0  0  0
 20 48  1  0  0  0  0
 20 49  1  0  0  0  0
 21 50  1  0  0  0  0
 21 51  1  0  0  0  0
 27 52  1  0  0  0  0
 28 53  1  0  0  0  0
M  END
> <clash_score>
0

> <docking_score>
-7.966816425323486

> <overlap_score>
1.0061724185943604

$$$$
BENZO_92_1
  -OEChem-08222022433D

 55 59  0     0  0  0  0  0  0999 V2000
    9.1890   -3.5540   24.0140 C   0  0  0  0  0  0  0  0  0  0  0  0
    7.8700   -2.0610   25.3550 C   0  0  0  0  0  0  0  0  0  0  0  0
    9.5890   -2.4950   23.2210 C   0  0  0  0  0  0  0  0  0  0  0  0
    8.2550   -1.0010   24.5520 C   0  0  0  0  0  0  0  0  0  0  0  0
   12.6785   -0.3936   24.5018 C   0  0  0  0  0  0  0  0  0  0  0  0
   13.7775   -1.2037   24.3186 C   0  0  0  0  0  0  0  0  0  0  0  0
   12.5401   -0.8378   22.2246 C   0  0  0  0  0  0  0  0  0  0  0  0
   11.9616   -0.1817   23.2889 C   0  0  0  0  0  0  0  0  0  0  0  0
    8.3450   -3.3440   25.0980 C   0  0  0  0  0  0  0  0  0  0  0  0
    9.1280   -1.2090   23.4870 C   0  0  0  0  0  0  0  0  0  0  0  0
    6.1460    0.6070   19.9750 C   0  0  0  0  0  0  0  0  0  0  0  0
    7.2710   -0.1460   19.8310 C   0  0  0  0  0  0  0  0  0  0  0  0
    5.3890    1.0010   21.0690 C   0  0  0  0  0  0  0  0  0  0  0  0
    4.2460    1.7520   20.8250 C   0  0  0  0  0  0  0  0  0  0  0  0
    3.8860    2.1050   19.5250 C   0  0  0  0  0  0  0  0  0  0  0  0
    4.6610    1.7170   18.4380 C   0  0  0  0  0  0  0  0  0  0  0  0
    9.0430    0.2380   21.4940 C   0  0  0  0  0  0  0  0  0  0  0  0
    7.5748   -4.8280   28.7278 C   0  0  0  0  0  0  0  0  0  0  0  0
    8.9776   -4.7555   28.1204 C   0  0  0  0  0  0  0  0  0  0  0  0
    6.5554   -4.0713   27.8732 C   0  0  0  0  0  0  0  0  0  0  0  0
    8.9620   -5.1961   26.6568 C   0  0  0  0  0  0  0  0  0  0  0  0
    6.6009   -4.5253   26.4110 C   0  0  0  0  0  0  0  0  0  0  0  0
   10.7220    0.6590   23.1850 C   0  0  0  0  0  0  0  0  0  0  0  0
    7.5840   -0.2700   18.5160 N   0  0  0  0  0  0  0  0  0  0  0  0
    6.7100    0.3850   17.8100 N   0  0  0  0  0  0  0  0  0  0  0  0
    5.7970    0.9500   18.6730 N   0  0  0  0  0  0  0  0  0  0  0  0
    7.9770   -4.4029   25.9162 N   0  0  0  0  0  0  0  0  0  0  0  0
    8.0950   -0.7700   20.8440 N   0  0  0  0  0  0  0  0  0  0  0  0
    9.5820   -0.1080   22.7000 N   0  0  0  0  0  0  0  0  0  0  0  0
    9.2950    1.3000   20.9480 O   0  0  0  0  0  0  0  0  0  0  0  0
   13.9416   -1.7051   22.6894 S   0  0  0  0  0  0  0  0  0  0  0  0
    9.5426   -4.5618   23.7797 H   0  0  0  0  0  0  0  0  0  0  0  0
    7.1914   -1.8824   26.1903 H   0  0  0  0  0  0  0  0  0  0  0  0
   10.2669   -2.6745   22.3854 H   0  0  0  0  0  0  0  0  0  0  0  0
    7.8690   -0.0020   24.7587 H   0  0  0  0  0  0  0  0  0  0  0  0
   12.4058    0.0253   25.4623 H   0  0  0  0  0  0  0  0  0  0  0  0
   14.4923   -1.5246   25.0631 H   0  0  0  0  0  0  0  0  0  0  0  0
   12.2108   -0.8511   21.1948 H   0  0  0  0  0  0  0  0  0  0  0  0
    5.6529    0.7487   22.0767 H   0  0  0  0  0  0  0  0  0  0  0  0
    3.6388    2.0586   21.6675 H   0  0  0  0  0  0  0  0  0  0  0  0
    2.9822    2.6968   19.3330 H   0  0  0  0  0  0  0  0  0  0  0  0
    4.4111    1.9893   17.4360 H   0  0  0  0  0  0  0  0  0  0  0  0
    7.2681   -5.8807   28.8239 H   0  0  0  0  0  0  0  0  0  0  0  0
    7.5891   -4.4101   29.7448 H   0  0  0  0  0  0  0  0  0  0  0  0
    9.3554   -3.7320   28.1920 H   0  0  0  0  0  0  0  0  0  0  0  0
    9.6558   -5.3943   28.6900 H   0  0  0  0  0  0  0  0  0  0  0  0
    5.5496   -4.2322   28.2751 H   0  0  0  0  0  0  0  0  0  0  0  0
    6.7545   -2.9948   27.9293 H   0  0  0  0  0  0  0  0  0  0  0  0
    9.9612   -5.0560   26.2363 H   0  0  0  0  0  0  0  0  0  0  0  0
    8.7097   -6.2583   26.5922 H   0  0  0  0  0  0  0  0  0  0  0  0
    6.2649   -5.5600   26.3335 H   0  0  0  0  0  0  0  0  0  0  0  0
    5.9271   -3.8964   25.8283 H   0  0  0  0  0  0  0  0  0  0  0  0
   10.4561    1.0772   24.1620 H   0  0  0  0  0  0  0  0  0  0  0  0
   10.8743    1.5008   22.5014 H   0  0  0  0  0  0  0  0  0  0  0  0
    8.0897   -1.6082   21.0890 H   0  0  0  0  0  0  0  0  0  0  0  0
  1  3  2  0  0  0  0
  1  9  1  0  0  0  0
  2  4  1  0  0  0  0
  2  9  2  0  0  0  0
  3 10  1  0  0  0  0
  4 10  2  0  0  0  0
  5  6  2  0  0  0  0
  5  8  1  0  0  0  0
  6 31  1  0  0  0  0
  7  8  2  0  0  0  0
  7 31  1  0  0  0  0
  8 23  1  0  0  0  0
  9 27  1  0  0  0  0
 10 29  1  0  0  0  0
 11 12  2  0  0  0  0
 11 13  1  0  0  0  0
 11 26  1  0  0  0  0
 12 24  1  0  0  0  0
 12 28  1  0  0  0  0
 13 14  2  0  0  0  0
 14 15  1  0  0  0  0
 15 16  2  0  0  0  0
 16 26  1  0  0  0  0
 17 28  1  0  0  0  0
 17 29  1  0  0  0  0
 17 30  2  0  0  0  0
 18 19  1  0  0  0  0
 18 20  1  0  0  0  0
 19 21  1  0  0  0  0
 20 22  1  0  0  0  0
 21 27  1  0  0  0  0
 22 27  1  0  0  0  0
 23 29  1  0  0  0  0
 24 25  2  0  0  0  0
 25 26  1  0  0  0  0
  1 32  1  0  0  0  0
  2 33  1  0  0  0  0
  3 34  1  0  0  0  0
  4 35  1  0  0  0  0
  5 36  1  0  0  0  0
  6 37  1  0  0  0  0
  7 38  1  0  0  0  0
 13 39  1  0  0  0  0
 14 40  1  0  0  0  0
 15 41  1  0  0  0  0
 16 42  1  0  0  0  0
 18 43  1  0  0  0  0
 18 44  1  0  0  0  0
 19 45  1  0  0  0  0
 19 46  1  0  0  0  0
 20 47  1  0  0  0  0
 20 48  1  0  0  0  0
 21 49  1  0  0  0  0
 21 50  1  0  0  0  0
 22 51  1  0  0  0  0
 22 52  1  0  0  0  0
 23 53  1  0  0  0  0
 23 54  1  0  0  0  0
 28 55  1  0  0  0  0
M  END
> <clash_score>
0

> <docking_score>
-9.581107139587402

> <overlap_score>
0.9766672849655151

$$$$
BENZO_90_1
  -OEChem-08222022433D

 53 56  0     0  0  0  0  0  0999 V2000
   13.7501   -1.1157   24.6176 C   0  0  0  0  0  0  0  0  0  0  0  0
   12.5991   -0.3339   24.5202 C   0  0  0  0  0  0  0  0  0  0  0  0
    9.1890   -3.5540   24.0140 C   0  0  0  0  0  0  0  0  0  0  0  0
    7.8700   -2.0610   25.3550 C   0  0  0  0  0  0  0  0  0  0  0  0
    9.5890   -2.4950   23.2210 C   0  0  0  0  0  0  0  0  0  0  0  0
    8.2550   -1.0010   24.5520 C   0  0  0  0  0  0  0  0  0  0  0  0
   14.2636   -1.7454   23.4838 C   0  0  0  0  0  0  0  0  0  0  0  0
   12.4750   -0.8115   22.1551 C   0  0  0  0  0  0  0  0  0  0  0  0
   11.9616   -0.1817   23.2889 C   0  0  0  0  0  0  0  0  0  0  0  0
    8.3450   -3.3440   25.0980 C   0  0  0  0  0  0  0  0  0  0  0  0
    9.1280   -1.2090   23.4870 C   0  0  0  0  0  0  0  0  0  0  0  0
   13.6260   -1.5933   22.2526 C   0  0  0  0  0  0  0  0  0  0  0  0
    6.1460    0.6070   19.9750 C   0  0  0  0  0  0  0  0  0  0  0  0
    7.2710   -0.1460   19.8310 C   0  0  0  0  0  0  0  0  0  0  0  0
    5.3890    1.0010   21.0690 C   0  0  0  0  0  0  0  0  0  0  0  0
    4.2460    1.7520   20.8250 C   0  0  0  0  0  0  0  0  0  0  0  0
    3.8860    2.1050   19.5250 C   0  0  0  0  0  0  0  0  0  0  0  0
    4.6610    1.7170   18.4380 C   0  0  0  0  0  0  0  0  0  0  0  0
    8.2022   -4.5554   27.2977 C   0  0  0  0  0  0  0  0  0  0  0  0
    9.0430    0.2380   21.4940 C   0  0  0  0  0  0  0  0  0  0  0  0
    7.8888   -6.0857   29.2891 C   0  0  0  0  0  0  0  0  0  0  0  0
   10.7220    0.6590   23.1850 C   0  0  0  0  0  0  0  0  0  0  0  0
    7.6346   -5.8716   27.8078 C   0  0  0  0  0  0  0  0  0  0  0  0
    7.5840   -0.2700   18.5160 N   0  0  0  0  0  0  0  0  0  0  0  0
    6.7100    0.3850   17.8100 N   0  0  0  0  0  0  0  0  0  0  0  0
    5.7970    0.9500   18.6730 N   0  0  0  0  0  0  0  0  0  0  0  0
    7.9771   -4.4058   25.9196 N   0  0  0  0  0  0  0  0  0  0  0  0
    8.0950   -0.7700   20.8440 N   0  0  0  0  0  0  0  0  0  0  0  0
    9.5820   -0.1080   22.7000 N   0  0  0  0  0  0  0  0  0  0  0  0
    8.7736   -3.7626   28.0389 O   0  0  0  0  0  0  0  0  0  0  0  0
    9.2950    1.3000   20.9480 O   0  0  0  0  0  0  0  0  0  0  0  0
   14.2594   -2.3714   20.8543 Cl  0  0  0  0  0  0  0  0  0  0  0  0
   14.2462   -1.2340   25.5766 H   0  0  0  0  0  0  0  0  0  0  0  0
   12.2060    0.1530   25.4088 H   0  0  0  0  0  0  0  0  0  0  0  0
    9.5436   -4.5614   23.7799 H   0  0  0  0  0  0  0  0  0  0  0  0
    7.1918   -1.8823   26.1906 H   0  0  0  0  0  0  0  0  0  0  0  0
   10.2676   -2.6754   22.3861 H   0  0  0  0  0  0  0  0  0  0  0  0
    7.8686   -0.0026   24.7598 H   0  0  0  0  0  0  0  0  0  0  0  0
   15.1613   -2.3520   23.5747 H   0  0  0  0  0  0  0  0  0  0  0  0
   11.9745   -0.6893   21.1973 H   0  0  0  0  0  0  0  0  0  0  0  0
    5.6529    0.7487   22.0767 H   0  0  0  0  0  0  0  0  0  0  0  0
    3.6388    2.0586   21.6675 H   0  0  0  0  0  0  0  0  0  0  0  0
    2.9822    2.6968   19.3330 H   0  0  0  0  0  0  0  0  0  0  0  0
    4.4111    1.9893   17.4360 H   0  0  0  0  0  0  0  0  0  0  0  0
    8.9615   -6.0801   29.5089 H   0  0  0  0  0  0  0  0  0  0  0  0
    7.4787   -7.0478   29.6110 H   0  0  0  0  0  0  0  0  0  0  0  0
    7.4197   -5.2969   29.8865 H   0  0  0  0  0  0  0  0  0  0  0  0
   10.4561    1.0772   24.1620 H   0  0  0  0  0  0  0  0  0  0  0  0
   10.8743    1.5008   22.5014 H   0  0  0  0  0  0  0  0  0  0  0  0
    6.5553   -5.8818   27.6170 H   0  0  0  0  0  0  0  0  0  0  0  0
    8.0880   -6.6902   27.2370 H   0  0  0  0  0  0  0  0  0  0  0  0
    7.4775   -5.1801   25.4670 H   0  0  0  0  0  0  0  0  0  0  0  0
    8.0689   -1.6186   21.0712 H   0  0  0  0  0  0  0  0  0  0  0  0
  1  2  2  0  0  0  0
  1  7  1  0  0  0  0
  2  9  1  0  0  0  0
  3  5  2  0  0  0  0
  3 10  1  0  0  0  0
  4  6  1  0  0  0  0
  4 10  2  0  0  0  0
  5 11  1  0  0  0  0
  6 11  2  0  0  0  0
  7 12  2  0  0  0  0
  8  9  2  0  0  0  0
  8 12  1  0  0  0  0
  9 22  1  0  0  0  0
 10 27  1  0  0  0  0
 11 29  1  0  0  0  0
 12 32  1  0  0  0  0
 13 14  2  0  0  0  0
 13 15  1  0  0  0  0
 13 26  1  0  0  0  0
 14 24  1  0  0  0  0
 14 28  1  0  0  0  0
 15 16  2  0  0  0  0
 16 17  1  0  0  0  0
 17 18  2  0  0  0  0
 18 26  1  0  0  0  0
 19 23  1  0  0  0  0
 19 27  1  0  0  0  0
 19 30  2  0  0  0  0
 20 28  1  0  0  0  0
 20 29  1  0  0  0  0
 20 31  2  0  0  0  0
 21 23  1  0  0  0  0
 22 29  1  0  0  0  0
 24 25  2  0  0  0  0
 25 26  1  0  0  0  0
  1 33  1  0  0  0  0
  2 34  1  0  0  0  0
  3 35  1  0  0  0  0
  4 36  1  0  0  0  0
  5 37  1  0  0  0  0
  6 38  1  0  0  0  0
  7 39  1  0  0  0  0
  8 40  1  0  0  0  0
 15 41  1  0  0  0  0
 16 42  1  0  0  0  0
 17 43  1  0  0  0  0
 18 44  1  0  0  0  0
 21 45  1  0  0  0  0
 21 46  1  0  0  0  0
 21 47  1  0  0  0  0
 22 48  1  0  0  0  0
 22 49  1  0  0  0  0
 23 50  1  0  0  0  0
 23 51  1  0  0  0  0
 27 52  1  0  0  0  0
 28 53  1  0  0  0  0
M  END
> <clash_score>
0

> <docking_score>
-8.730794906616211

> <overlap_score>
1.0106858015060425

$$$$
BENZO_97_1
  -OEChem-08222022433D

 46 49  0     0  0  0  0  0  0999 V2000
   14.2641   -1.7450   23.4813 C   0  0  0  0  0  0  0  0  0  0  0  0
   14.0779   -0.6681   24.3480 C   0  0  0  0  0  0  0  0  0  0  0  0
   13.2991   -2.0403   22.5184 C   0  0  0  0  0  0  0  0  0  0  0  0
   12.9266    0.1135   24.2518 C   0  0  0  0  0  0  0  0  0  0  0  0
   12.1478   -1.2587   22.4222 C   0  0  0  0  0  0  0  0  0  0  0  0
    9.1890   -3.5540   24.0140 C   0  0  0  0  0  0  0  0  0  0  0  0
    7.8700   -2.0610   25.3550 C   0  0  0  0  0  0  0  0  0  0  0  0
    9.5890   -2.4950   23.2210 C   0  0  0  0  0  0  0  0  0  0  0  0
    8.2550   -1.0010   24.5520 C   0  0  0  0  0  0  0  0  0  0  0  0
    8.3450   -3.3440   25.0980 C   0  0  0  0  0  0  0  0  0  0  0  0
   11.9616   -0.1817   23.2889 C   0  0  0  0  0  0  0  0  0  0  0  0
    9.1280   -1.2090   23.4870 C   0  0  0  0  0  0  0  0  0  0  0  0
    6.1460    0.6070   19.9750 C   0  0  0  0  0  0  0  0  0  0  0  0
    7.2710   -0.1460   19.8310 C   0  0  0  0  0  0  0  0  0  0  0  0
    5.3890    1.0010   21.0690 C   0  0  0  0  0  0  0  0  0  0  0  0
    4.2460    1.7520   20.8250 C   0  0  0  0  0  0  0  0  0  0  0  0
    3.8860    2.1050   19.5250 C   0  0  0  0  0  0  0  0  0  0  0  0
    4.6610    1.7170   18.4380 C   0  0  0  0  0  0  0  0  0  0  0  0
    9.0430    0.2380   21.4940 C   0  0  0  0  0  0  0  0  0  0  0  0
    7.9522   -4.4794   25.9764 C   0  0  0  0  0  0  0  0  0  0  0  0
   10.7220    0.6590   23.1850 C   0  0  0  0  0  0  0  0  0  0  0  0
    7.5840   -0.2700   18.5160 N   0  0  0  0  0  0  0  0  0  0  0  0
    6.7100    0.3850   17.8100 N   0  0  0  0  0  0  0  0  0  0  0  0
    5.7970    0.9500   18.6730 N   0  0  0  0  0  0  0  0  0  0  0  0
    8.0950   -0.7700   20.8440 N   0  0  0  0  0  0  0  0  0  0  0  0
    9.5820   -0.1080   22.7000 N   0  0  0  0  0  0  0  0  0  0  0  0
    9.2950    1.3000   20.9480 O   0  0  0  0  0  0  0  0  0  0  0  0
   15.1613   -2.3527   23.5555 H   0  0  0  0  0  0  0  0  0  0  0  0
   14.8297   -0.4373   25.0971 H   0  0  0  0  0  0  0  0  0  0  0  0
   13.4443   -2.8780   21.8427 H   0  0  0  0  0  0  0  0  0  0  0  0
   12.7899    0.9506   24.9315 H   0  0  0  0  0  0  0  0  0  0  0  0
   11.4013   -1.4963   21.6690 H   0  0  0  0  0  0  0  0  0  0  0  0
    9.5403   -4.5627   23.7809 H   0  0  0  0  0  0  0  0  0  0  0  0
    7.1911   -1.8848   26.1904 H   0  0  0  0  0  0  0  0  0  0  0  0
   10.2682   -2.6746   22.3865 H   0  0  0  0  0  0  0  0  0  0  0  0
    7.8684   -0.0022   24.7594 H   0  0  0  0  0  0  0  0  0  0  0  0
    5.6529    0.7487   22.0767 H   0  0  0  0  0  0  0  0  0  0  0  0
    3.6388    2.0586   21.6675 H   0  0  0  0  0  0  0  0  0  0  0  0
    2.9822    2.6968   19.3330 H   0  0  0  0  0  0  0  0  0  0  0  0
    4.4111    1.9893   17.4360 H   0  0  0  0  0  0  0  0  0  0  0  0
    8.6668   -4.5891   26.8013 H   0  0  0  0  0  0  0  0  0  0  0  0
    6.9513   -4.3276   26.4010 H   0  0  0  0  0  0  0  0  0  0  0  0
    7.9196   -5.4231   25.4163 H   0  0  0  0  0  0  0  0  0  0  0  0
   10.4561    1.0772   24.1620 H   0  0  0  0  0  0  0  0  0  0  0  0
   10.8743    1.5008   22.5014 H   0  0  0  0  0  0  0  0  0  0  0  0
    8.0689   -1.6186   21.0712 H   0  0  0  0  0  0  0  0  0  0  0  0
  1  2  1  0  0  0  0
  1  3  2  0  0  0  0
  2  4  2  0  0  0  0
  3  5  1  0  0  0  0
  4 11  1  0  0  0  0
  5 11  2  0  0  0  0
  6  8  2  0  0  0  0
  6 10  1  0  0  0  0
  7  9  1  0  0  0  0
  7 10  2  0  0  0  0
  8 12  1  0  0  0  0
  9 12  2  0  0  0  0
 10 20  1  0  0  0  0
 11 21  1  0  0  0  0
 12 26  1  0  0  0  0
 13 14  2  0  0  0  0
 13 15  1  0  0  0  0
 13 24  1  0  0  0  0
 14 22  1  0  0  0  0
 14 25  1  0  0  0  0
 15 16  2  0  0  0  0
 16 17  1  0  0  0  0
 17 18  2  0  0  0  0
 18 24  1  0  0  0  0
 19 25  1  0  0  0  0
 19 26  1  0  0  0  0
 19 27  2  0  0  0  0
 21 26  1  0  0  0  0
 22 23  2  0  0  0  0
 23 24  1  0  0  0  0
  1 28  1  0  0  0  0
  2 29  1  0  0  0  0
  3 30  1  0  0  0  0
  4 31  1  0  0  0  0
  5 32  1  0  0  0  0
  6 33  1  0  0  0  0
  7 34  1  0  0  0  0
  8 35  1  0  0  0  0
  9 36  1  0  0  0  0
 15 37  1  0  0  0  0
 16 38  1  0  0  0  0
 17 39  1  0  0  0  0
 18 40  1  0  0  0  0
 20 41  1  0  0  0  0
 20 42  1  0  0  0  0
 20 43  1  0  0  0  0
 21 44  1  0  0  0  0
 21 45  1  0  0  0  0
 25 46  1  0  0  0  0
M  END
> <clash_score>
0

> <docking_score>
-9.239325523376465

> <overlap_score>
0.9021971225738525

$$$$
BENZO_96_1
  -OEChem-08222022433D

 43 46  0     0  0  0  0  0  0999 V2000
    9.1890   -3.5540   24.0140 C   0  0  0  0  0  0  0  0  0  0  0  0
    7.8700   -2.0610   25.3550 C   0  0  0  0  0  0  0  0  0  0  0  0
    9.5890   -2.4950   23.2210 C   0  0  0  0  0  0  0  0  0  0  0  0
    8.2550   -1.0010   24.5520 C   0  0  0  0  0  0  0  0  0  0  0  0
   12.6785   -0.3936   24.5018 C   0  0  0  0  0  0  0  0  0  0  0  0
   13.7775   -1.2037   24.3186 C   0  0  0  0  0  0  0  0  0  0  0  0
   12.5401   -0.8378   22.2246 C   0  0  0  0  0  0  0  0  0  0  0  0
    8.3450   -3.3440   25.0980 C   0  0  0  0  0  0  0  0  0  0  0  0
   11.9616   -0.1817   23.2889 C   0  0  0  0  0  0  0  0  0  0  0  0
    9.1280   -1.2090   23.4870 C   0  0  0  0  0  0  0  0  0  0  0  0
    6.1460    0.6070   19.9750 C   0  0  0  0  0  0  0  0  0  0  0  0
    7.2710   -0.1460   19.8310 C   0  0  0  0  0  0  0  0  0  0  0  0
    5.3890    1.0010   21.0690 C   0  0  0  0  0  0  0  0  0  0  0  0
    4.2460    1.7520   20.8250 C   0  0  0  0  0  0  0  0  0  0  0  0
    3.8860    2.1050   19.5250 C   0  0  0  0  0  0  0  0  0  0  0  0
    4.6610    1.7170   18.4380 C   0  0  0  0  0  0  0  0  0  0  0  0
    9.0430    0.2380   21.4940 C   0  0  0  0  0  0  0  0  0  0  0  0
    7.9522   -4.4794   25.9764 C   0  0  0  0  0  0  0  0  0  0  0  0
   10.7220    0.6590   23.1850 C   0  0  0  0  0  0  0  0  0  0  0  0
    7.5840   -0.2700   18.5160 N   0  0  0  0  0  0  0  0  0  0  0  0
    6.7100    0.3850   17.8100 N   0  0  0  0  0  0  0  0  0  0  0  0
    5.7970    0.9500   18.6730 N   0  0  0  0  0  0  0  0  0  0  0  0
    8.0950   -0.7700   20.8440 N   0  0  0  0  0  0  0  0  0  0  0  0
    9.5820   -0.1080   22.7000 N   0  0  0  0  0  0  0  0  0  0  0  0
    9.2950    1.3000   20.9480 O   0  0  0  0  0  0  0  0  0  0  0  0
   13.9416   -1.7050   22.6894 S   0  0  0  0  0  0  0  0  0  0  0  0
    9.5403   -4.5627   23.7809 H   0  0  0  0  0  0  0  0  0  0  0  0
    7.1911   -1.8848   26.1904 H   0  0  0  0  0  0  0  0  0  0  0  0
   10.2682   -2.6746   22.3865 H   0  0  0  0  0  0  0  0  0  0  0  0
    7.8684   -0.0022   24.7594 H   0  0  0  0  0  0  0  0  0  0  0  0
   12.4058    0.0253   25.4623 H   0  0  0  0  0  0  0  0  0  0  0  0
   14.4923   -1.5246   25.0631 H   0  0  0  0  0  0  0  0  0  0  0  0
   12.2108   -0.8511   21.1948 H   0  0  0  0  0  0  0  0  0  0  0  0
    5.6529    0.7487   22.0767 H   0  0  0  0  0  0  0  0  0  0  0  0
    3.6388    2.0586   21.6675 H   0  0  0  0  0  0  0  0  0  0  0  0
    2.9822    2.6968   19.3330 H   0  0  0  0  0  0  0  0  0  0  0  0
    4.4111    1.9893   17.4360 H   0  0  0  0  0  0  0  0  0  0  0  0
    8.6668   -4.5891   26.8013 H   0  0  0  0  0  0  0  0  0  0  0  0
    6.9513   -4.3276   26.4010 H   0  0  0  0  0  0  0  0  0  0  0  0
    7.9196   -5.4231   25.4163 H   0  0  0  0  0  0  0  0  0  0  0  0
   10.4561    1.0772   24.1620 H   0  0  0  0  0  0  0  0  0  0  0  0
   10.8743    1.5008   22.5014 H   0  0  0  0  0  0  0  0  0  0  0  0
    8.0689   -1.6186   21.0712 H   0  0  0  0  0  0  0  0  0  0  0  0
  1  3  2  0  0  0  0
  1  8  1  0  0  0  0
  2  4  1  0  0  0  0
  2  8  2  0  0  0  0
  3 10  1  0  0  0  0
  4 10  2  0  0  0  0
  5  6  2  0  0  0  0
  5  9  1  0  0  0  0
  6 26  1  0  0  0  0
  7  9  2  0  0  0  0
  7 26  1  0  0  0  0
  8 18  1  0  0  0  0
  9 19  1  0  0  0  0
 10 24  1  0  0  0  0
 11 12  2  0  0  0  0
 11 13  1  0  0  0  0
 11 22  1  0  0  0  0
 12 20  1  0  0  0  0
 12 23  1  0  0  0  0
 13 14  2  0  0  0  0
 14 15  1  0  0  0  0
 15 16  2  0  0  0  0
 16 22  1  0  0  0  0
 17 23  1  0  0  0  0
 17 24  1  0  0  0  0
 17 25  2  0  0  0  0
 19 24  1  0  0  0  0
 20 21  2  0  0  0  0
 21 22  1  0  0  0  0
  1 27  1  0  0  0  0
  2 28  1  0  0  0  0
  3 29  1  0  0  0  0
  4 30  1  0  0  0  0
  5 31  1  0  0  0  0
  6 32  1  0  0  0  0
  7 33  1  0  0  0  0
 13 34  1  0  0  0  0
 14 35  1  0  0  0  0
 15 36  1  0  0  0  0
 16 37  1  0  0  0  0
 18 38  1  0  0  0  0
 18 39  1  0  0  0  0
 18 40  1  0  0  0  0
 19 41  1  0  0  0  0
 19 42  1  0  0  0  0
 23 43  1  0  0  0  0
M  END
> <clash_score>
0

> <docking_score>
-8.679999351501465

> <overlap_score>
0.8884325623512268

$$$$
BENZO_95_1
  -OEChem-08222022433D

 58 62  0     0  0  0  0  0  0999 V2000
    9.1890   -3.5540   24.0140 C   0  0  0  0  0  0  0  0  0  0  0  0
    7.8700   -2.0610   25.3550 C   0  0  0  0  0  0  0  0  0  0  0  0
    9.5890   -2.4950   23.2210 C   0  0  0  0  0  0  0  0  0  0  0  0
    8.2550   -1.0010   24.5520 C   0  0  0  0  0  0  0  0  0  0  0  0
   13.3010    0.2819   23.3762 C   0  0  0  0  0  0  0  0  0  0  0  0
   12.2469   -1.0164   21.9485 C   0  0  0  0  0  0  0  0  0  0  0  0
   12.0277    0.0001   22.8458 C   0  0  0  0  0  0  0  0  0  0  0  0
    8.3450   -3.3440   25.0980 C   0  0  0  0  0  0  0  0  0  0  0  0
    9.1280   -1.2090   23.4870 C   0  0  0  0  0  0  0  0  0  0  0  0
    6.1460    0.6070   19.9750 C   0  0  0  0  0  0  0  0  0  0  0  0
    7.2710   -0.1460   19.8310 C   0  0  0  0  0  0  0  0  0  0  0  0
    5.3890    1.0010   21.0690 C   0  0  0  0  0  0  0  0  0  0  0  0
    4.2460    1.7520   20.8250 C   0  0  0  0  0  0  0  0  0  0  0  0
    3.8860    2.1050   19.5250 C   0  0  0  0  0  0  0  0  0  0  0  0
    4.6610    1.7170   18.4380 C   0  0  0  0  0  0  0  0  0  0  0  0
    9.0430    0.2380   21.4940 C   0  0  0  0  0  0  0  0  0  0  0  0
    7.5748   -4.8280   28.7278 C   0  0  0  0  0  0  0  0  0  0  0  0
    8.9776   -4.7555   28.1204 C   0  0  0  0  0  0  0  0  0  0  0  0
    6.5554   -4.0713   27.8732 C   0  0  0  0  0  0  0  0  0  0  0  0
    8.9620   -5.1961   26.6568 C   0  0  0  0  0  0  0  0  0  0  0  0
    6.6009   -4.5253   26.4110 C   0  0  0  0  0  0  0  0  0  0  0  0
   14.2950   -2.2646   21.2232 C   0  0  0  0  0  0  0  0  0  0  0  0
   10.7220    0.6590   23.1850 C   0  0  0  0  0  0  0  0  0  0  0  0
   14.2580   -0.4932   22.8591 N   0  0  0  0  0  0  0  0  0  0  0  0
    7.5840   -0.2700   18.5160 N   0  0  0  0  0  0  0  0  0  0  0  0
    6.7100    0.3850   17.8100 N   0  0  0  0  0  0  0  0  0  0  0  0
   13.5858   -1.2720   21.9944 N   0  0  0  0  0  0  0  0  0  0  0  0
    5.7970    0.9500   18.6730 N   0  0  0  0  0  0  0  0  0  0  0  0
    7.9770   -4.4029   25.9162 N   0  0  0  0  0  0  0  0  0  0  0  0
    8.0950   -0.7700   20.8440 N   0  0  0  0  0  0  0  0  0  0  0  0
    9.5820   -0.1080   22.7000 N   0  0  0  0  0  0  0  0  0  0  0  0
    9.2950    1.3000   20.9480 O   0  0  0  0  0  0  0  0  0  0  0  0
    9.5426   -4.5618   23.7797 H   0  0  0  0  0  0  0  0  0  0  0  0
    7.1914   -1.8824   26.1903 H   0  0  0  0  0  0  0  0  0  0  0  0
   10.2669   -2.6745   22.3854 H   0  0  0  0  0  0  0  0  0  0  0  0
    7.8690   -0.0020   24.7587 H   0  0  0  0  0  0  0  0  0  0  0  0
   13.5736    1.0185   24.1187 H   0  0  0  0  0  0  0  0  0  0  0  0
   11.5805   -1.5669   21.2983 H   0  0  0  0  0  0  0  0  0  0  0  0
    5.6529    0.7487   22.0767 H   0  0  0  0  0  0  0  0  0  0  0  0
    3.6388    2.0586   21.6675 H   0  0  0  0  0  0  0  0  0  0  0  0
    2.9822    2.6968   19.3330 H   0  0  0  0  0  0  0  0  0  0  0  0
    4.4111    1.9893   17.4360 H   0  0  0  0  0  0  0  0  0  0  0  0
    7.2681   -5.8807   28.8239 H   0  0  0  0  0  0  0  0  0  0  0  0
    7.5891   -4.4101   29.7448 H   0  0  0  0  0  0  0  0  0  0  0  0
    9.3554   -3.7320   28.1920 H   0  0  0  0  0  0  0  0  0  0  0  0
    9.6558   -5.3943   28.6900 H   0  0  0  0  0  0  0  0  0  0  0  0
    5.5496   -4.2322   28.2751 H   0  0  0  0  0  0  0  0  0  0  0  0
    6.7545   -2.9948   27.9293 H   0  0  0  0  0  0  0  0  0  0  0  0
    9.9612   -5.0560   26.2363 H   0  0  0  0  0  0  0  0  0  0  0  0
    8.7097   -6.2583   26.5922 H   0  0  0  0  0  0  0  0  0  0  0  0
    6.2649   -5.5600   26.3335 H   0  0  0  0  0  0  0  0  0  0  0  0
    5.9271   -3.8964   25.8283 H   0  0  0  0  0  0  0  0  0  0  0  0
   14.6200   -1.7975   20.2898 H   0  0  0  0  0  0  0  0  0  0  0  0
   15.1576   -2.6206   21.7932 H   0  0  0  0  0  0  0  0  0  0  0  0
   13.6285   -3.1071   21.0185 H   0  0  0  0  0  0  0  0  0  0  0  0
   10.6163    0.7710   24.2696 H   0  0  0  0  0  0  0  0  0  0  0  0
   10.6620    1.6610   22.7472 H   0  0  0  0  0  0  0  0  0  0  0  0
    8.0897   -1.6082   21.0890 H   0  0  0  0  0  0  0  0  0  0  0  0
  1  3  2  0  0  0  0
  1  8  1  0  0  0  0
  2  4  1  0  0  0  0
  2  8  2  0  0  0  0
  3  9  1  0  0  0  0
  4  9  2  0  0  0  0
  5  7  1  0  0  0  0
  5 24  2  0  0  0  0
  6  7  2  0  0  0  0
  6 27  1  0  0  0  0
  7 23  1  0  0  0  0
  8 29  1  0  0  0  0
  9 31  1  0  0  0  0
 10 11  2  0  0  0  0
 10 12  1  0  0  0  0
 10 28  1  0  0  0  0
 11 25  1  0  0  0  0
 11 30  1  0  0  0  0
 12 13  2  0  0  0  0
 13 14  1  0  0  0  0
 14 15  2  0  0  0  0
 15 28  1  0  0  0  0
 16 30  1  0  0  0  0
 16 31  1  0  0  0  0
 16 32  2  0  0  0  0
 17 18  1  0  0  0  0
 17 19  1  0  0  0  0
 18 20  1  0  0  0  0
 19 21  1  0  0  0  0
 20 29  1  0  0  0  0
 21 29  1  0  0  0  0
 22 27  1  0  0  0  0
 23 31  1  0  0  0  0
 24 27  1  0  0  0  0
 25 26  2  0  0  0  0
 26 28  1  0  0  0  0
  1 33  1  0  0  0  0
  2 34  1  0  0  0  0
  3 35  1  0  0  0  0
  4 36  1  0  0  0  0
  5 37  1  0  0  0  0
  6 38  1  0  0  0  0
 12 39  1  0  0  0  0
 13 40  1  0  0  0  0
 14 41  1  0  0  0  0
 15 42  1  0  0  0  0
 17 43  1  0  0  0  0
 17 44  1  0  0  0  0
 18 45  1  0  0  0  0
 18 46  1  0  0  0  0
 19 47  1  0  0  0  0
 19 48  1  0  0  0  0
 20 49  1  0  0  0  0
 20 50  1  0  0  0  0
 21 51  1  0  0  0  0
 21 52  1  0  0  0  0
 22 53  1  0  0  0  0
 22 54  1  0  0  0  0
 22 55  1  0  0  0  0
 23 56  1  0  0  0  0
 23 57  1  0  0  0  0
 30 58  1  0  0  0  0
M  END
> <clash_score>
0

> <docking_score>
-9.58437728881836

> <overlap_score>
0.9690294861793518

$$$$
BENZO_94_1
  -OEChem-08222022433D

 58 62  0     0  0  0  0  0  0999 V2000
   13.7501   -1.1157   24.6176 C   0  0  0  0  0  0  0  0  0  0  0  0
   12.5991   -0.3339   24.5202 C   0  0  0  0  0  0  0  0  0  0  0  0
    9.1890   -3.5540   24.0140 C   0  0  0  0  0  0  0  0  0  0  0  0
    7.8700   -2.0610   25.3550 C   0  0  0  0  0  0  0  0  0  0  0  0
    9.5890   -2.4950   23.2210 C   0  0  0  0  0  0  0  0  0  0  0  0
    8.2550   -1.0010   24.5520 C   0  0  0  0  0  0  0  0  0  0  0  0
   14.2636   -1.7454   23.4838 C   0  0  0  0  0  0  0  0  0  0  0  0
   12.4750   -0.8115   22.1551 C   0  0  0  0  0  0  0  0  0  0  0  0
   11.9616   -0.1817   23.2889 C   0  0  0  0  0  0  0  0  0  0  0  0
    8.3450   -3.3440   25.0980 C   0  0  0  0  0  0  0  0  0  0  0  0
    9.1280   -1.2090   23.4870 C   0  0  0  0  0  0  0  0  0  0  0  0
   13.6260   -1.5933   22.2526 C   0  0  0  0  0  0  0  0  0  0  0  0
    6.1460    0.6070   19.9750 C   0  0  0  0  0  0  0  0  0  0  0  0
    7.2710   -0.1460   19.8310 C   0  0  0  0  0  0  0  0  0  0  0  0
    5.3890    1.0010   21.0690 C   0  0  0  0  0  0  0  0  0  0  0  0
    4.2460    1.7520   20.8250 C   0  0  0  0  0  0  0  0  0  0  0  0
    3.8860    2.1050   19.5250 C   0  0  0  0  0  0  0  0  0  0  0  0
    4.6610    1.7170   18.4380 C   0  0  0  0  0  0  0  0  0  0  0  0
    9.0430    0.2380   21.4940 C   0  0  0  0  0  0  0  0  0  0  0  0
    7.5748   -4.8280   28.7278 C   0  0  0  0  0  0  0  0  0  0  0  0
    8.9776   -4.7555   28.1204 C   0  0  0  0  0  0  0  0  0  0  0  0
    6.5554   -4.0713   27.8732 C   0  0  0  0  0  0  0  0  0  0  0  0
    8.9620   -5.1961   26.6568 C   0  0  0  0  0  0  0  0  0  0  0  0
    6.6009   -4.5253   26.4110 C   0  0  0  0  0  0  0  0  0  0  0  0
   10.7220    0.6590   23.1850 C   0  0  0  0  0  0  0  0  0  0  0  0
    7.5840   -0.2700   18.5160 N   0  0  0  0  0  0  0  0  0  0  0  0
    6.7100    0.3850   17.8100 N   0  0  0  0  0  0  0  0  0  0  0  0
    5.7970    0.9500   18.6730 N   0  0  0  0  0  0  0  0  0  0  0  0
    7.9770   -4.4029   25.9162 N   0  0  0  0  0  0  0  0  0  0  0  0
    8.0950   -0.7700   20.8440 N   0  0  0  0  0  0  0  0  0  0  0  0
    9.5820   -0.1080   22.7000 N   0  0  0  0  0  0  0  0  0  0  0  0
    9.2950    1.3000   20.9480 O   0  0  0  0  0  0  0  0  0  0  0  0
   14.2594   -2.3714   20.8543 Cl  0  0  0  0  0  0  0  0  0  0  0  0
   14.2462   -1.2340   25.5766 H   0  0  0  0  0  0  0  0  0  0  0  0
   12.2060    0.1530   25.4088 H   0  0  0  0  0  0  0  0  0  0  0  0
    9.5426   -4.5618   23.7797 H   0  0  0  0  0  0  0  0  0  0  0  0
    7.1914   -1.8824   26.1903 H   0  0  0  0  0  0  0  0  0  0  0  0
   10.2669   -2.6745   22.3854 H   0  0  0  0  0  0  0  0  0  0  0  0
    7.8690   -0.0020   24.7587 H   0  0  0  0  0  0  0  0  0  0  0  0
   15.1613   -2.3520   23.5747 H   0  0  0  0  0  0  0  0  0  0  0  0
   11.9745   -0.6893   21.1973 H   0  0  0  0  0  0  0  0  0  0  0  0
    5.6529    0.7487   22.0767 H   0  0  0  0  0  0  0  0  0  0  0  0
    3.6388    2.0586   21.6675 H   0  0  0  0  0  0  0  0  0  0  0  0
    2.9822    2.6968   19.3330 H   0  0  0  0  0  0  0  0  0  0  0  0
    4.4111    1.9893   17.4360 H   0  0  0  0  0  0  0  0  0  0  0  0
    7.2681   -5.8807   28.8239 H   0  0  0  0  0  0  0  0  0  0  0  0
    7.5891   -4.4101   29.7448 H   0  0  0  0  0  0  0  0  0  0  0  0
    9.3554   -3.7320   28.1920 H   0  0  0  0  0  0  0  0  0  0  0  0
    9.6558   -5.3943   28.6900 H   0  0  0  0  0  0  0  0  0  0  0  0
    5.5496   -4.2322   28.2751 H   0  0  0  0  0  0  0  0  0  0  0  0
    6.7545   -2.9948   27.9293 H   0  0  0  0  0  0  0  0  0  0  0  0
    9.9612   -5.0560   26.2363 H   0  0  0  0  0  0  0  0  0  0  0  0
    8.7097   -6.2583   26.5922 H   0  0  0  0  0  0  0  0  0  0  0  0
    6.2649   -5.5600   26.3335 H   0  0  0  0  0  0  0  0  0  0  0  0
    5.9271   -3.8964   25.8283 H   0  0  0  0  0  0  0  0  0  0  0  0
   10.4561    1.0772   24.1620 H   0  0  0  0  0  0  0  0  0  0  0  0
   10.8743    1.5008   22.5014 H   0  0  0  0  0  0  0  0  0  0  0  0
    8.0897   -1.6082   21.0890 H   0  0  0  0  0  0  0  0  0  0  0  0
  1  2  2  0  0  0  0
  1  7  1  0  0  0  0
  2  9  1  0  0  0  0
  3  5  2  0  0  0  0
  3 10  1  0  0  0  0
  4  6  1  0  0  0  0
  4 10  2  0  0  0  0
  5 11  1  0  0  0  0
  6 11  2  0  0  0  0
  7 12  2  0  0  0  0
  8  9  2  0  0  0  0
  8 12  1  0  0  0  0
  9 25  1  0  0  0  0
 10 29  1  0  0  0  0
 11 31  1  0  0  0  0
 12 33  1  0  0  0  0
 13 14  2  0  0  0  0
 13 15  1  0  0  0  0
 13 28  1  0  0  0  0
 14 26  1  0  0  0  0
 14 30  1  0  0  0  0
 15 16  2  0  0  0  0
 16 17  1  0  0  0  0
 17 18  2  0  0  0  0
 18 28  1  0  0  0  0
 19 30  1  0  0  0  0
 19 31  1  0  0  0  0
 19 32  2  0  0  0  0
 20 21  1  0  0  0  0
 20 22  1  0  0  0  0
 21 23  1  0  0  0  0
 22 24  1  0  0  0  0
 23 29  1  0  0  0  0
 24 29  1  0  0  0  0
 25 31  1  0  0  0  0
 26 27  2  0  0  0  0
 27 28  1  0  0  0  0
  1 34  1  0  0  0  0
  2 35  1  0  0  0  0
  3 36  1  0  0  0  0
  4 37  1  0  0  0  0
  5 38  1  0  0  0  0
  6 39  1  0  0  0  0
  7 40  1  0  0  0  0
  8 41  1  0  0  0  0
 15 42  1  0  0  0  0
 16 43  1  0  0  0  0
 17 44  1  0  0  0  0
 18 45  1  0  0  0  0
 20 46  1  0  0  0  0
 20 47  1  0  0  0  0
 21 48  1  0  0  0  0
 21 49  1  0  0  0  0
 22 50  1  0  0  0  0
 22 51  1  0  0  0  0
 23 52  1  0  0  0  0
 23 53  1  0  0  0  0
 24 54  1  0  0  0  0
 24 55  1  0  0  0  0
 25 56  1  0  0  0  0
 25 57  1  0  0  0  0
 30 58  1  0  0  0  0
M  END
> <clash_score>
0

> <docking_score>
-9.094305992126465

> <overlap_score>
0.9978207945823669

$$$$
BENZO_99_1
  -OEChem-08222022433D

 46 49  0     0  0  0  0  0  0999 V2000
    9.1890   -3.5540   24.0140 C   0  0  0  0  0  0  0  0  0  0  0  0
    7.8700   -2.0610   25.3550 C   0  0  0  0  0  0  0  0  0  0  0  0
    9.5890   -2.4950   23.2210 C   0  0  0  0  0  0  0  0  0  0  0  0
    8.2550   -1.0010   24.5520 C   0  0  0  0  0  0  0  0  0  0  0  0
   12.7320   -0.4464   24.4370 C   0  0  0  0  0  0  0  0  0  0  0  0
   12.5970   -0.8682   22.2832 C   0  0  0  0  0  0  0  0  0  0  0  0
    8.3450   -3.3440   25.0980 C   0  0  0  0  0  0  0  0  0  0  0  0
   11.9616   -0.1817   23.2889 C   0  0  0  0  0  0  0  0  0  0  0  0
    9.1280   -1.2090   23.4870 C   0  0  0  0  0  0  0  0  0  0  0  0
    6.1460    0.6070   19.9750 C   0  0  0  0  0  0  0  0  0  0  0  0
    7.2710   -0.1460   19.8310 C   0  0  0  0  0  0  0  0  0  0  0  0
    5.3890    1.0010   21.0690 C   0  0  0  0  0  0  0  0  0  0  0  0
    4.2460    1.7520   20.8250 C   0  0  0  0  0  0  0  0  0  0  0  0
    3.8860    2.1050   19.5250 C   0  0  0  0  0  0  0  0  0  0  0  0
    4.6610    1.7170   18.4380 C   0  0  0  0  0  0  0  0  0  0  0  0
    9.0430    0.2380   21.4940 C   0  0  0  0  0  0  0  0  0  0  0  0
    7.9522   -4.4794   25.9764 C   0  0  0  0  0  0  0  0  0  0  0  0
   14.6393   -2.3180   22.2082 C   0  0  0  0  0  0  0  0  0  0  0  0
   10.7220    0.6590   23.1850 C   0  0  0  0  0  0  0  0  0  0  0  0
   13.7770   -1.2393   24.1852 N   0  0  0  0  0  0  0  0  0  0  0  0
    7.5840   -0.2700   18.5160 N   0  0  0  0  0  0  0  0  0  0  0  0
    6.7100    0.3850   17.8100 N   0  0  0  0  0  0  0  0  0  0  0  0
   13.6676   -1.4788   22.8673 N   0  0  0  0  0  0  0  0  0  0  0  0
    5.7970    0.9500   18.6730 N   0  0  0  0  0  0  0  0  0  0  0  0
    8.0950   -0.7700   20.8440 N   0  0  0  0  0  0  0  0  0  0  0  0
    9.5820   -0.1080   22.7000 N   0  0  0  0  0  0  0  0  0  0  0  0
    9.2950    1.3000   20.9480 O   0  0  0  0  0  0  0  0  0  0  0  0
    9.5403   -4.5627   23.7809 H   0  0  0  0  0  0  0  0  0  0  0  0
    7.1911   -1.8848   26.1904 H   0  0  0  0  0  0  0  0  0  0  0  0
   10.2682   -2.6746   22.3865 H   0  0  0  0  0  0  0  0  0  0  0  0
    7.8684   -0.0022   24.7594 H   0  0  0  0  0  0  0  0  0  0  0  0
   12.5771   -0.0965   25.4478 H   0  0  0  0  0  0  0  0  0  0  0  0
   12.3832   -0.9726   21.2281 H   0  0  0  0  0  0  0  0  0  0  0  0
    5.6529    0.7487   22.0767 H   0  0  0  0  0  0  0  0  0  0  0  0
    3.6388    2.0586   21.6675 H   0  0  0  0  0  0  0  0  0  0  0  0
    2.9822    2.6968   19.3330 H   0  0  0  0  0  0  0  0  0  0  0  0
    4.4111    1.9893   17.4360 H   0  0  0  0  0  0  0  0  0  0  0  0
    8.6668   -4.5891   26.8013 H   0  0  0  0  0  0  0  0  0  0  0  0
    6.9513   -4.3276   26.4010 H   0  0  0  0  0  0  0  0  0  0  0  0
    7.9196   -5.4231   25.4163 H   0  0  0  0  0  0  0  0  0  0  0  0
   15.4522   -1.6787   21.8540 H   0  0  0  0  0  0  0  0  0  0  0  0
   15.0179   -3.0612   22.9154 H   0  0  0  0  0  0  0  0  0  0  0  0
   14.1626   -2.8324   21.3691 H   0  0  0  0  0  0  0  0  0  0  0  0
   10.4561    1.0772   24.1620 H   0  0  0  0  0  0  0  0  0  0  0  0
   10.8743    1.5008   22.5014 H   0  0  0  0  0  0  0  0  0  0  0  0
    8.0689   -1.6186   21.0712 H   0  0  0  0  0  0  0  0  0  0  0  0
  1  3  2  0  0  0  0
  1  7  1  0  0  0  0
  2  4  1  0  0  0  0
  2  7  2  0  0  0  0
  3  9  1  0  0  0  0
  4  9  2  0  0  0  0
  5  8  1  0  0  0  0
  5 20  2  0  0  0  0
  6  8  2  0  0  0  0
  6 23  1  0  0  0  0
  7 17  1  0  0  0  0
  8 19  1  0  0  0  0
  9 26  1  0  0  0  0
 10 11  2  0  0  0  0
 10 12  1  0  0  0  0
 10 24  1  0  0  0  0
 11 21  1  0  0  0  0
 11 25  1  0  0  0  0
 12 13  2  0  0  0  0
 13 14  1  0  0  0  0
 14 15  2  0  0  0  0
 15 24  1  0  0  0  0
 16 25  1  0  0  0  0
 16 26  1  0  0  0  0
 16 27  2  0  0  0  0
 18 23  1  0  0  0  0
 19 26  1  0  0  0  0
 20 23  1  0  0  0  0
 21 22  2  0  0  0  0
 22 24  1  0  0  0  0
  1 28  1  0  0  0  0
  2 29  1  0  0  0  0
  3 30  1  0  0  0  0
  4 31  1  0  0  0  0
  5 32  1  0  0  0  0
  6 33  1  0  0  0  0
 12 34  1  0  0  0  0
 13 35  1  0  0  0  0
 14 36  1  0  0  0  0
 15 37  1  0  0  0  0
 17 38  1  0  0  0  0
 17 39  1  0  0  0  0
 17 40  1  0  0  0  0
 18 41  1  0  0  0  0
 18 42  1  0  0  0  0
 18 43  1  0  0  0  0
 19 44  1  0  0  0  0
 19 45  1  0  0  0  0
 25 46  1  0  0  0  0
M  END
> <clash_score>
0

> <docking_score>
-7.429218292236328

> <overlap_score>
0.9054274559020996

$$$$
BENZO_98_1
  -OEChem-08222022433D

 46 49  0     0  0  0  0  0  0999 V2000
   13.7501   -1.1157   24.6176 C   0  0  0  0  0  0  0  0  0  0  0  0
   12.5991   -0.3339   24.5202 C   0  0  0  0  0  0  0  0  0  0  0  0
    9.1890   -3.5540   24.0140 C   0  0  0  0  0  0  0  0  0  0  0  0
    7.8700   -2.0610   25.3550 C   0  0  0  0  0  0  0  0  0  0  0  0
    9.5890   -2.4950   23.2210 C   0  0  0  0  0  0  0  0  0  0  0  0
    8.2550   -1.0010   24.5520 C   0  0  0  0  0  0  0  0  0  0  0  0
   14.2636   -1.7454   23.4838 C   0  0  0  0  0  0  0  0  0  0  0  0
   12.4750   -0.8115   22.1551 C   0  0  0  0  0  0  0  0  0  0  0  0
    8.3450   -3.3440   25.0980 C   0  0  0  0  0  0  0  0  0  0  0  0
   11.9616   -0.1817   23.2889 C   0  0  0  0  0  0  0  0  0  0  0  0
    9.1280   -1.2090   23.4870 C   0  0  0  0  0  0  0  0  0  0  0  0
   13.6260   -1.5933   22.2526 C   0  0  0  0  0  0  0  0  0  0  0  0
    6.1460    0.6070   19.9750 C   0  0  0  0  0  0  0  0  0  0  0  0
    7.2710   -0.1460   19.8310 C   0  0  0  0  0  0  0  0  0  0  0  0
    5.3890    1.0010   21.0690 C   0  0  0  0  0  0  0  0  0  0  0  0
    4.2460    1.7520   20.8250 C   0  0  0  0  0  0  0  0  0  0  0  0
    3.8860    2.1050   19.5250 C   0  0  0  0  0  0  0  0  0  0  0  0
    4.6610    1.7170   18.4380 C   0  0  0  0  0  0  0  0  0  0  0  0
    9.0430    0.2380   21.4940 C   0  0  0  0  0  0  0  0  0  0  0  0
    7.9522   -4.4794   25.9764 C   0  0  0  0  0  0  0  0  0  0  0  0
   10.7220    0.6590   23.1850 C   0  0  0  0  0  0  0  0  0  0  0  0
    7.5840   -0.2700   18.5160 N   0  0  0  0  0  0  0  0  0  0  0  0
    6.7100    0.3850   17.8100 N   0  0  0  0  0  0  0  0  0  0  0  0
    5.7970    0.9500   18.6730 N   0  0  0  0  0  0  0  0  0  0  0  0
    8.0950   -0.7700   20.8440 N   0  0  0  0  0  0  0  0  0  0  0  0
    9.5820   -0.1080   22.7000 N   0  0  0  0  0  0  0  0  0  0  0  0
    9.2950    1.3000   20.9480 O   0  0  0  0  0  0  0  0  0  0  0  0
   14.2594   -2.3714   20.8543 Cl  0  0  0  0  0  0  0  0  0  0  0  0
   14.2462   -1.2340   25.5766 H   0  0  0  0  0  0  0  0  0  0  0  0
   12.2060    0.1530   25.4088 H   0  0  0  0  0  0  0  0  0  0  0  0
    9.5403   -4.5627   23.7809 H   0  0  0  0  0  0  0  0  0  0  0  0
    7.1911   -1.8848   26.1904 H   0  0  0  0  0  0  0  0  0  0  0  0
   10.2682   -2.6746   22.3865 H   0  0  0  0  0  0  0  0  0  0  0  0
    7.8684   -0.0022   24.7594 H   0  0  0  0  0  0  0  0  0  0  0  0
   15.1613   -2.3520   23.5747 H   0  0  0  0  0  0  0  0  0  0  0  0
   11.9745   -0.6893   21.1973 H   0  0  0  0  0  0  0  0  0  0  0  0
    5.6529    0.7487   22.0767 H   0  0  0  0  0  0  0  0  0  0  0  0
    3.6388    2.0586   21.6675 H   0  0  0  0  0  0  0  0  0  0  0  0
    2.9822    2.6968   19.3330 H   0  0  0  0  0  0  0  0  0  0  0  0
    4.4111    1.9893   17.4360 H   0  0  0  0  0  0  0  0  0  0  0  0
    8.6668   -4.5891   26.8013 H   0  0  0  0  0  0  0  0  0  0  0  0
    6.9513   -4.3276   26.4010 H   0  0  0  0  0  0  0  0  0  0  0  0
    7.9196   -5.4231   25.4163 H   0  0  0  0  0  0  0  0  0  0  0  0
   10.4561    1.0772   24.1620 H   0  0  0  0  0  0  0  0  0  0  0  0
   10.8743    1.5008   22.5014 H   0  0  0  0  0  0  0  0  0  0  0  0
    8.0689   -1.6186   21.0712 H   0  0  0  0  0  0  0  0  0  0  0  0
  1  2  2  0  0  0  0
  1  7  1  0  0  0  0
  2 10  1  0  0  0  0
  3  5  2  0  0  0  0
  3  9  1  0  0  0  0
  4  6  1  0  0  0  0
  4  9  2  0  0  0  0
  5 11  1  0  0  0  0
  6 11  2  0  0  0  0
  7 12  2  0  0  0  0
  8 10  2  0  0  0  0
  8 12  1  0  0  0  0
  9 20  1  0  0  0  0
 10 21  1  0  0  0  0
 11 26  1  0  0  0  0
 12 28  1  0  0  0  0
 13 14  2  0  0  0  0
 13 15  1  0  0  0  0
 13 24  1  0  0  0  0
 14 22  1  0  0  0  0
 14 25  1  0  0  0  0
 15 16  2  0  0  0  0
 16 17  1  0  0  0  0
 17 18  2  0  0  0  0
 18 24  1  0  0  0  0
 19 25  1  0  0  0  0
 19 26  1  0  0  0  0
 19 27  2  0  0  0  0
 21 26  1  0  0  0  0
 22 23  2  0  0  0  0
 23 24  1  0  0  0  0
  1 29  1  0  0  0  0
  2 30  1  0  0  0  0
  3 31  1  0  0  0  0
  4 32  1  0  0  0  0
  5 33  1  0  0  0  0
  6 34  1  0  0  0  0
  7 35  1  0  0  0  0
  8 36  1  0  0  0  0
 15 37  1  0  0  0  0
 16 38  1  0  0  0  0
 17 39  1  0  0  0  0
 18 40  1  0  0  0  0
 20 41  1  0  0  0  0
 20 42  1  0  0  0  0
 20 43  1  0  0  0  0
 21 44  1  0  0  0  0
 21 45  1  0  0  0  0
 25 46  1  0  0  0  0
M  END
> <clash_score>
0

> <docking_score>
-8.193194389343262

> <overlap_score>
0.9100707769393921

$$$$
BENZO_101_1
  -OEChem-08222022433D

 47 50  0     0  0  0  0  0  0999 V2000
   14.2641   -1.7450   23.4813 C   0  0  0  0  0  0  0  0  0  0  0  0
   14.0779   -0.6681   24.3480 C   0  0  0  0  0  0  0  0  0  0  0  0
   13.2991   -2.0403   22.5184 C   0  0  0  0  0  0  0  0  0  0  0  0
   12.9266    0.1135   24.2518 C   0  0  0  0  0  0  0  0  0  0  0  0
   12.1478   -1.2587   22.4222 C   0  0  0  0  0  0  0  0  0  0  0  0
    9.5890   -2.4950   23.2210 C   0  0  0  0  0  0  0  0  0  0  0  0
    8.2550   -1.0010   24.5520 C   0  0  0  0  0  0  0  0  0  0  0  0
    9.1890   -3.5540   24.0140 C   0  0  0  0  0  0  0  0  0  0  0  0
    7.8700   -2.0610   25.3550 C   0  0  0  0  0  0  0  0  0  0  0  0
   11.9616   -0.1817   23.2889 C   0  0  0  0  0  0  0  0  0  0  0  0
    9.1280   -1.2090   23.4870 C   0  0  0  0  0  0  0  0  0  0  0  0
    8.3450   -3.3440   25.0980 C   0  0  0  0  0  0  0  0  0  0  0  0
    6.1460    0.6070   19.9750 C   0  0  0  0  0  0  0  0  0  0  0  0
    7.2710   -0.1460   19.8310 C   0  0  0  0  0  0  0  0  0  0  0  0
    5.3890    1.0010   21.0690 C   0  0  0  0  0  0  0  0  0  0  0  0
    4.2460    1.7520   20.8250 C   0  0  0  0  0  0  0  0  0  0  0  0
    3.8860    2.1050   19.5250 C   0  0  0  0  0  0  0  0  0  0  0  0
    4.6610    1.7170   18.4380 C   0  0  0  0  0  0  0  0  0  0  0  0
    9.0430    0.2380   21.4940 C   0  0  0  0  0  0  0  0  0  0  0  0
    8.5123   -5.6657   25.5744 C   0  0  0  0  0  0  0  0  0  0  0  0
   10.7220    0.6590   23.1850 C   0  0  0  0  0  0  0  0  0  0  0  0
    7.5840   -0.2700   18.5160 N   0  0  0  0  0  0  0  0  0  0  0  0
    6.7100    0.3850   17.8100 N   0  0  0  0  0  0  0  0  0  0  0  0
    5.7970    0.9500   18.6730 N   0  0  0  0  0  0  0  0  0  0  0  0
    8.0950   -0.7700   20.8440 N   0  0  0  0  0  0  0  0  0  0  0  0
    9.5820   -0.1080   22.7000 N   0  0  0  0  0  0  0  0  0  0  0  0
    9.2950    1.3000   20.9480 O   0  0  0  0  0  0  0  0  0  0  0  0
    7.9864   -4.3799   25.8996 O   0  0  0  0  0  0  0  0  0  0  0  0
   15.1613   -2.3527   23.5555 H   0  0  0  0  0  0  0  0  0  0  0  0
   14.8297   -0.4373   25.0971 H   0  0  0  0  0  0  0  0  0  0  0  0
   13.4443   -2.8780   21.8427 H   0  0  0  0  0  0  0  0  0  0  0  0
   12.7899    0.9506   24.9315 H   0  0  0  0  0  0  0  0  0  0  0  0
   11.4013   -1.4963   21.6690 H   0  0  0  0  0  0  0  0  0  0  0  0
   10.2678   -2.6746   22.3862 H   0  0  0  0  0  0  0  0  0  0  0  0
    7.8691   -0.0023   24.7606 H   0  0  0  0  0  0  0  0  0  0  0  0
    9.5404   -4.5633   23.7846 H   0  0  0  0  0  0  0  0  0  0  0  0
    7.1920   -1.8875   26.1914 H   0  0  0  0  0  0  0  0  0  0  0  0
    5.6529    0.7487   22.0767 H   0  0  0  0  0  0  0  0  0  0  0  0
    3.6388    2.0586   21.6675 H   0  0  0  0  0  0  0  0  0  0  0  0
    2.9822    2.6968   19.3330 H   0  0  0  0  0  0  0  0  0  0  0  0
    4.4111    1.9893   17.4360 H   0  0  0  0  0  0  0  0  0  0  0  0
    8.1469   -6.4023   26.2941 H   0  0  0  0  0  0  0  0  0  0  0  0
    9.6044   -5.6298   25.5962 H   0  0  0  0  0  0  0  0  0  0  0  0
    8.1788   -5.9429   24.5716 H   0  0  0  0  0  0  0  0  0  0  0  0
   10.4561    1.0772   24.1620 H   0  0  0  0  0  0  0  0  0  0  0  0
   10.8743    1.5008   22.5014 H   0  0  0  0  0  0  0  0  0  0  0  0
    8.0689   -1.6186   21.0712 H   0  0  0  0  0  0  0  0  0  0  0  0
  1  2  1  0  0  0  0
  1  3  2  0  0  0  0
  2  4  2  0  0  0  0
  3  5  1  0  0  0  0
  4 10  1  0  0  0  0
  5 10  2  0  0  0  0
  6  8  2  0  0  0  0
  6 11  1  0  0  0  0
  7  9  1  0  0  0  0
  7 11  2  0  0  0  0
  8 12  1  0  0  0  0
  9 12  2  0  0  0  0
 10 21  1  0  0  0  0
 11 26  1  0  0  0  0
 12 28  1  0  0  0  0
 13 14  2  0  0  0  0
 13 15  1  0  0  0  0
 13 24  1  0  0  0  0
 14 22  1  0  0  0  0
 14 25  1  0  0  0  0
 15 16  2  0  0  0  0
 16 17  1  0  0  0  0
 17 18  2  0  0  0  0
 18 24  1  0  0  0  0
 19 25  1  0  0  0  0
 19 26  1  0  0  0  0
 19 27  2  0  0  0  0
 20 28  1  0  0  0  0
 21 26  1  0  0  0  0
 22 23  2  0  0  0  0
 23 24  1  0  0  0  0
  1 29  1  0  0  0  0
  2 30  1  0  0  0  0
  3 31  1  0  0  0  0
  4 32  1  0  0  0  0
  5 33  1  0  0  0  0
  6 34  1  0  0  0  0
  7 35  1  0  0  0  0
  8 36  1  0  0  0  0
  9 37  1  0  0  0  0
 15 38  1  0  0  0  0
 16 39  1  0  0  0  0
 17 40  1  0  0  0  0
 18 41  1  0  0  0  0
 20 42  1  0  0  0  0
 20 43  1  0  0  0  0
 20 44  1  0  0  0  0
 21 45  1  0  0  0  0
 21 46  1  0  0  0  0
 25 47  1  0  0  0  0
M  END
> <clash_score>
0

> <docking_score>
-9.359498977661133

> <overlap_score>
0.9154636263847351

$$$$
BENZO_100_1
  -OEChem-08222022433D

 44 47  0     0  0  0  0  0  0999 V2000
    9.5890   -2.4950   23.2210 C   0  0  0  0  0  0  0  0  0  0  0  0
    8.2550   -1.0010   24.5520 C   0  0  0  0  0  0  0  0  0  0  0  0
    9.1890   -3.5540   24.0140 C   0  0  0  0  0  0  0  0  0  0  0  0
    7.8700   -2.0610   25.3550 C   0  0  0  0  0  0  0  0  0  0  0  0
   12.5566   -0.8597   22.1860 C   0  0  0  0  0  0  0  0  0  0  0  0
   13.6839   -1.5596   22.5559 C   0  0  0  0  0  0  0  0  0  0  0  0
   12.6568   -0.3896   24.4600 C   0  0  0  0  0  0  0  0  0  0  0  0
   11.9616   -0.1817   23.2889 C   0  0  0  0  0  0  0  0  0  0  0  0
    9.1280   -1.2090   23.4870 C   0  0  0  0  0  0  0  0  0  0  0  0
    8.3450   -3.3440   25.0980 C   0  0  0  0  0  0  0  0  0  0  0  0
    6.1460    0.6070   19.9750 C   0  0  0  0  0  0  0  0  0  0  0  0
    7.2710   -0.1460   19.8310 C   0  0  0  0  0  0  0  0  0  0  0  0
    5.3890    1.0010   21.0690 C   0  0  0  0  0  0  0  0  0  0  0  0
    4.2460    1.7520   20.8250 C   0  0  0  0  0  0  0  0  0  0  0  0
    3.8860    2.1050   19.5250 C   0  0  0  0  0  0  0  0  0  0  0  0
    4.6610    1.7170   18.4380 C   0  0  0  0  0  0  0  0  0  0  0  0
    9.0430    0.2380   21.4940 C   0  0  0  0  0  0  0  0  0  0  0  0
    8.5123   -5.6657   25.5744 C   0  0  0  0  0  0  0  0  0  0  0  0
   10.7220    0.6590   23.1850 C   0  0  0  0  0  0  0  0  0  0  0  0
    7.5840   -0.2700   18.5160 N   0  0  0  0  0  0  0  0  0  0  0  0
    6.7100    0.3850   17.8100 N   0  0  0  0  0  0  0  0  0  0  0  0
    5.7970    0.9500   18.6730 N   0  0  0  0  0  0  0  0  0  0  0  0
    8.0950   -0.7700   20.8440 N   0  0  0  0  0  0  0  0  0  0  0  0
    9.5820   -0.1080   22.7000 N   0  0  0  0  0  0  0  0  0  0  0  0
    9.2950    1.3000   20.9480 O   0  0  0  0  0  0  0  0  0  0  0  0
    7.9864   -4.3799   25.8996 O   0  0  0  0  0  0  0  0  0  0  0  0
   14.0209   -1.3981   24.2270 S   0  0  0  0  0  0  0  0  0  0  0  0
   10.2678   -2.6746   22.3862 H   0  0  0  0  0  0  0  0  0  0  0  0
    7.8691   -0.0023   24.7606 H   0  0  0  0  0  0  0  0  0  0  0  0
    9.5404   -4.5633   23.7846 H   0  0  0  0  0  0  0  0  0  0  0  0
    7.1920   -1.8875   26.1914 H   0  0  0  0  0  0  0  0  0  0  0  0
   12.1799   -0.8381   21.1711 H   0  0  0  0  0  0  0  0  0  0  0  0
   14.3253   -2.1586   21.9250 H   0  0  0  0  0  0  0  0  0  0  0  0
   12.4317   -0.0004   25.4433 H   0  0  0  0  0  0  0  0  0  0  0  0
    5.6529    0.7487   22.0767 H   0  0  0  0  0  0  0  0  0  0  0  0
    3.6388    2.0586   21.6675 H   0  0  0  0  0  0  0  0  0  0  0  0
    2.9822    2.6968   19.3330 H   0  0  0  0  0  0  0  0  0  0  0  0
    4.4111    1.9893   17.4360 H   0  0  0  0  0  0  0  0  0  0  0  0
    8.1469   -6.4023   26.2941 H   0  0  0  0  0  0  0  0  0  0  0  0
    9.6044   -5.6298   25.5962 H   0  0  0  0  0  0  0  0  0  0  0  0
    8.1788   -5.9429   24.5716 H   0  0  0  0  0  0  0  0  0  0  0  0
   10.4561    1.0772   24.1620 H   0  0  0  0  0  0  0  0  0  0  0  0
   10.8743    1.5008   22.5014 H   0  0  0  0  0  0  0  0  0  0  0  0
    8.0689   -1.6186   21.0712 H   0  0  0  0  0  0  0  0  0  0  0  0
  1  3  2  0  0  0  0
  1  9  1  0  0  0  0
  2  4  1  0  0  0  0
  2  9  2  0  0  0  0
  3 10  1  0  0  0  0
  4 10  2  0  0  0  0
  5  6  2  0  0  0  0
  5  8  1  0  0  0  0
  6 27  1  0  0  0  0
  7  8  2  0  0  0  0
  7 27  1  0  0  0  0
  8 19  1  0  0  0  0
  9 24  1  0  0  0  0
 10 26  1  0  0  0  0
 11 12  2  0  0  0  0
 11 13  1  0  0  0  0
 11 22  1  0  0  0  0
 12 20  1  0  0  0  0
 12 23  1  0  0  0  0
 13 14  2  0  0  0  0
 14 15  1  0  0  0  0
 15 16  2  0  0  0  0
 16 22  1  0  0  0  0
 17 23  1  0  0  0  0
 17 24  1  0  0  0  0
 17 25  2  0  0  0  0
 18 26  1  0  0  0  0
 19 24  1  0  0  0  0
 20 21  2  0  0  0  0
 21 22  1  0  0  0  0
  1 28  1  0  0  0  0
  2 29  1  0  0  0  0
  3 30  1  0  0  0  0
  4 31  1  0  0  0  0
  5 32  1  0  0  0  0
  6 33  1  0  0  0  0
  7 34  1  0  0  0  0
 13 35  1  0  0  0  0
 14 36  1  0  0  0  0
 15 37  1  0  0  0  0
 16 38  1  0  0  0  0
 18 39  1  0  0  0  0
 18 40  1  0  0  0  0
 18 41  1  0  0  0  0
 19 42  1  0  0  0  0
 19 43  1  0  0  0  0
 23 44  1  0  0  0  0
M  END
> <clash_score>
0

> <docking_score>
-8.748201370239258

> <overlap_score>
0.9034129977226257

$$$$
BENZO_103_1
  -OEChem-08222022433D

 47 50  0     0  0  0  0  0  0999 V2000
    9.5890   -2.4950   23.2210 C   0  0  0  0  0  0  0  0  0  0  0  0
    8.2550   -1.0010   24.5520 C   0  0  0  0  0  0  0  0  0  0  0  0
    9.1890   -3.5540   24.0140 C   0  0  0  0  0  0  0  0  0  0  0  0
    7.8700   -2.0610   25.3550 C   0  0  0  0  0  0  0  0  0  0  0  0
   12.7320   -0.4464   24.4370 C   0  0  0  0  0  0  0  0  0  0  0  0
   12.5970   -0.8682   22.2832 C   0  0  0  0  0  0  0  0  0  0  0  0
   11.9616   -0.1817   23.2889 C   0  0  0  0  0  0  0  0  0  0  0  0
    9.1280   -1.2090   23.4870 C   0  0  0  0  0  0  0  0  0  0  0  0
    8.3450   -3.3440   25.0980 C   0  0  0  0  0  0  0  0  0  0  0  0
    6.1460    0.6070   19.9750 C   0  0  0  0  0  0  0  0  0  0  0  0
    7.2710   -0.1460   19.8310 C   0  0  0  0  0  0  0  0  0  0  0  0
    5.3890    1.0010   21.0690 C   0  0  0  0  0  0  0  0  0  0  0  0
    4.2460    1.7520   20.8250 C   0  0  0  0  0  0  0  0  0  0  0  0
    3.8860    2.1050   19.5250 C   0  0  0  0  0  0  0  0  0  0  0  0
    4.6610    1.7170   18.4380 C   0  0  0  0  0  0  0  0  0  0  0  0
    9.0430    0.2380   21.4940 C   0  0  0  0  0  0  0  0  0  0  0  0
   14.6393   -2.3180   22.2082 C   0  0  0  0  0  0  0  0  0  0  0  0
    8.5123   -5.6657   25.5744 C   0  0  0  0  0  0  0  0  0  0  0  0
   10.7220    0.6590   23.1850 C   0  0  0  0  0  0  0  0  0  0  0  0
   13.7770   -1.2393   24.1852 N   0  0  0  0  0  0  0  0  0  0  0  0
    7.5840   -0.2700   18.5160 N   0  0  0  0  0  0  0  0  0  0  0  0
    6.7100    0.3850   17.8100 N   0  0  0  0  0  0  0  0  0  0  0  0
   13.6676   -1.4788   22.8673 N   0  0  0  0  0  0  0  0  0  0  0  0
    5.7970    0.9500   18.6730 N   0  0  0  0  0  0  0  0  0  0  0  0
    8.0950   -0.7700   20.8440 N   0  0  0  0  0  0  0  0  0  0  0  0
    9.5820   -0.1080   22.7000 N   0  0  0  0  0  0  0  0  0  0  0  0
    9.2950    1.3000   20.9480 O   0  0  0  0  0  0  0  0  0  0  0  0
    7.9864   -4.3799   25.8996 O   0  0  0  0  0  0  0  0  0  0  0  0
   10.2678   -2.6746   22.3862 H   0  0  0  0  0  0  0  0  0  0  0  0
    7.8691   -0.0023   24.7606 H   0  0  0  0  0  0  0  0  0  0  0  0
    9.5404   -4.5633   23.7846 H   0  0  0  0  0  0  0  0  0  0  0  0
    7.1920   -1.8875   26.1914 H   0  0  0  0  0  0  0  0  0  0  0  0
   12.5771   -0.0965   25.4478 H   0  0  0  0  0  0  0  0  0  0  0  0
   12.3832   -0.9726   21.2281 H   0  0  0  0  0  0  0  0  0  0  0  0
    5.6529    0.7487   22.0767 H   0  0  0  0  0  0  0  0  0  0  0  0
    3.6388    2.0586   21.6675 H   0  0  0  0  0  0  0  0  0  0  0  0
    2.9822    2.6968   19.3330 H   0  0  0  0  0  0  0  0  0  0  0  0
    4.4111    1.9893   17.4360 H   0  0  0  0  0  0  0  0  0  0  0  0
   15.4522   -1.6787   21.8540 H   0  0  0  0  0  0  0  0  0  0  0  0
   15.0179   -3.0612   22.9154 H   0  0  0  0  0  0  0  0  0  0  0  0
   14.1626   -2.8324   21.3691 H   0  0  0  0  0  0  0  0  0  0  0  0
    8.1469   -6.4023   26.2941 H   0  0  0  0  0  0  0  0  0  0  0  0
    9.6044   -5.6298   25.5962 H   0  0  0  0  0  0  0  0  0  0  0  0
    8.1788   -5.9429   24.5716 H   0  0  0  0  0  0  0  0  0  0  0  0
   10.4561    1.0772   24.1620 H   0  0  0  0  0  0  0  0  0  0  0  0
   10.8743    1.5008   22.5014 H   0  0  0  0  0  0  0  0  0  0  0  0
    8.0689   -1.6186   21.0712 H   0  0  0  0  0  0  0  0  0  0  0  0
  1  3  2  0  0  0  0
  1  8  1  0  0  0  0
  2  4  1  0  0  0  0
  2  8  2  0  0  0  0
  3  9  1  0  0  0  0
  4  9  2  0  0  0  0
  5  7  1  0  0  0  0
  5 20  2  0  0  0  0
  6  7  2  0  0  0  0
  6 23  1  0  0  0  0
  7 19  1  0  0  0  0
  8 26  1  0  0  0  0
  9 28  1  0  0  0  0
 10 11  2  0  0  0  0
 10 12  1  0  0  0  0
 10 24  1  0  0  0  0
 11 21  1  0  0  0  0
 11 25  1  0  0  0  0
 12 13  2  0  0  0  0
 13 14  1  0  0  0  0
 14 15  2  0  0  0  0
 15 24  1  0  0  0  0
 16 25  1  0  0  0  0
 16 26  1  0  0  0  0
 16 27  2  0  0  0  0
 17 23  1  0  0  0  0
 18 28  1  0  0  0  0
 19 26  1  0  0  0  0
 20 23  1  0  0  0  0
 21 22  2  0  0  0  0
 22 24  1  0  0  0  0
  1 29  1  0  0  0  0
  2 30  1  0  0  0  0
  3 31  1  0  0  0  0
  4 32  1  0  0  0  0
  5 33  1  0  0  0  0
  6 34  1  0  0  0  0
 12 35  1  0  0  0  0
 13 36  1  0  0  0  0
 14 37  1  0  0  0  0
 15 38  1  0  0  0  0
 17 39  1  0  0  0  0
 17 40  1  0  0  0  0
 17 41  1  0  0  0  0
 18 42  1  0  0  0  0
 18 43  1  0  0  0  0
 18 44  1  0  0  0  0
 19 45  1  0  0  0  0
 19 46  1  0  0  0  0
 25 47  1  0  0  0  0
M  END
> <clash_score>
0

> <docking_score>
-7.5493927001953125

> <overlap_score>
0.9186851382255554

$$$$
BENZO_102_1
  -OEChem-08222022433D

 47 50  0     0  0  0  0  0  0999 V2000
   13.7501   -1.1157   24.6176 C   0  0  0  0  0  0  0  0  0  0  0  0
   12.5991   -0.3339   24.5202 C   0  0  0  0  0  0  0  0  0  0  0  0
    9.5890   -2.4950   23.2210 C   0  0  0  0  0  0  0  0  0  0  0  0
    8.2550   -1.0010   24.5520 C   0  0  0  0  0  0  0  0  0  0  0  0
    9.1890   -3.5540   24.0140 C   0  0  0  0  0  0  0  0  0  0  0  0
    7.8700   -2.0610   25.3550 C   0  0  0  0  0  0  0  0  0  0  0  0
   14.2636   -1.7454   23.4838 C   0  0  0  0  0  0  0  0  0  0  0  0
   12.4750   -0.8115   22.1551 C   0  0  0  0  0  0  0  0  0  0  0  0
   11.9616   -0.1817   23.2889 C   0  0  0  0  0  0  0  0  0  0  0  0
    9.1280   -1.2090   23.4870 C   0  0  0  0  0  0  0  0  0  0  0  0
    8.3450   -3.3440   25.0980 C   0  0  0  0  0  0  0  0  0  0  0  0
   13.6260   -1.5933   22.2526 C   0  0  0  0  0  0  0  0  0  0  0  0
    6.1460    0.6070   19.9750 C   0  0  0  0  0  0  0  0  0  0  0  0
    7.2710   -0.1460   19.8310 C   0  0  0  0  0  0  0  0  0  0  0  0
    5.3890    1.0010   21.0690 C   0  0  0  0  0  0  0  0  0  0  0  0
    4.2460    1.7520   20.8250 C   0  0  0  0  0  0  0  0  0  0  0  0
    3.8860    2.1050   19.5250 C   0  0  0  0  0  0  0  0  0  0  0  0
    4.6610    1.7170   18.4380 C   0  0  0  0  0  0  0  0  0  0  0  0
    9.0430    0.2380   21.4940 C   0  0  0  0  0  0  0  0  0  0  0  0
    8.5123   -5.6657   25.5744 C   0  0  0  0  0  0  0  0  0  0  0  0
   10.7220    0.6590   23.1850 C   0  0  0  0  0  0  0  0  0  0  0  0
    7.5840   -0.2700   18.5160 N   0  0  0  0  0  0  0  0  0  0  0  0
    6.7100    0.3850   17.8100 N   0  0  0  0  0  0  0  0  0  0  0  0
    5.7970    0.9500   18.6730 N   0  0  0  0  0  0  0  0  0  0  0  0
    8.0950   -0.7700   20.8440 N   0  0  0  0  0  0  0  0  0  0  0  0
    9.5820   -0.1080   22.7000 N   0  0  0  0  0  0  0  0  0  0  0  0
    9.2950    1.3000   20.9480 O   0  0  0  0  0  0  0  0  0  0  0  0
    7.9864   -4.3799   25.8996 O   0  0  0  0  0  0  0  0  0  0  0  0
   14.2594   -2.3714   20.8543 Cl  0  0  0  0  0  0  0  0  0  0  0  0
   14.2462   -1.2340   25.5766 H   0  0  0  0  0  0  0  0  0  0  0  0
   12.2060    0.1530   25.4088 H   0  0  0  0  0  0  0  0  0  0  0  0
   10.2678   -2.6746   22.3862 H   0  0  0  0  0  0  0  0  0  0  0  0
    7.8691   -0.0023   24.7606 H   0  0  0  0  0  0  0  0  0  0  0  0
    9.5404   -4.5633   23.7846 H   0  0  0  0  0  0  0  0  0  0  0  0
    7.1920   -1.8875   26.1914 H   0  0  0  0  0  0  0  0  0  0  0  0
   15.1613   -2.3520   23.5747 H   0  0  0  0  0  0  0  0  0  0  0  0
   11.9745   -0.6893   21.1973 H   0  0  0  0  0  0  0  0  0  0  0  0
    5.6529    0.7487   22.0767 H   0  0  0  0  0  0  0  0  0  0  0  0
    3.6388    2.0586   21.6675 H   0  0  0  0  0  0  0  0  0  0  0  0
    2.9822    2.6968   19.3330 H   0  0  0  0  0  0  0  0  0  0  0  0
    4.4111    1.9893   17.4360 H   0  0  0  0  0  0  0  0  0  0  0  0
    8.1469   -6.4023   26.2941 H   0  0  0  0  0  0  0  0  0  0  0  0
    9.6044   -5.6298   25.5962 H   0  0  0  0  0  0  0  0  0  0  0  0
    8.1788   -5.9429   24.5716 H   0  0  0  0  0  0  0  0  0  0  0  0
   10.4561    1.0772   24.1620 H   0  0  0  0  0  0  0  0  0  0  0  0
   10.8743    1.5008   22.5014 H   0  0  0  0  0  0  0  0  0  0  0  0
    8.0689   -1.6186   21.0712 H   0  0  0  0  0  0  0  0  0  0  0  0
  1  2  2  0  0  0  0
  1  7  1  0  0  0  0
  2  9  1  0  0  0  0
  3  5  2  0  0  0  0
  3 10  1  0  0  0  0
  4  6  1  0  0  0  0
  4 10  2  0  0  0  0
  5 11  1  0  0  0  0
  6 11  2  0  0  0  0
  7 12  2  0  0  0  0
  8  9  2  0  0  0  0
  8 12  1  0  0  0  0
  9 21  1  0  0  0  0
 10 26  1  0  0  0  0
 11 28  1  0  0  0  0
 12 29  1  0  0  0  0
 13 14  2  0  0  0  0
 13 15  1  0  0  0  0
 13 24  1  0  0  0  0
 14 22  1  0  0  0  0
 14 25  1  0  0  0  0
 15 16  2  0  0  0  0
 16 17  1  0  0  0  0
 17 18  2  0  0  0  0
 18 24  1  0  0  0  0
 19 25  1  0  0  0  0
 19 26  1  0  0  0  0
 19 27  2  0  0  0  0
 20 28  1  0  0  0  0
 21 26  1  0  0  0  0
 22 23  2  0  0  0  0
 23 24  1  0  0  0  0
  1 30  1  0  0  0  0
  2 31  1  0  0  0  0
  3 32  1  0  0  0  0
  4 33  1  0  0  0  0
  5 34  1  0  0  0  0
  6 35  1  0  0  0  0
  7 36  1  0  0  0  0
  8 37  1  0  0  0  0
 15 38  1  0  0  0  0
 16 39  1  0  0  0  0
 17 40  1  0  0  0  0
 18 41  1  0  0  0  0
 20 42  1  0  0  0  0
 20 43  1  0  0  0  0
 20 44  1  0  0  0  0
 21 45  1  0  0  0  0
 21 46  1  0  0  0  0
 25 47  1  0  0  0  0
M  END
> <clash_score>
0

> <docking_score>
-8.313365936279297

> <overlap_score>
0.9233071804046631

$$$$
BENZO_105_1
  -OEChem-08222022443D

 57 61  0     0  0  0  0  0  0999 V2000
   14.2641   -1.7450   23.4813 C   0  0  0  0  0  0  0  0  0  0  0  0
   14.0779   -0.6681   24.3480 C   0  0  0  0  0  0  0  0  0  0  0  0
   13.2991   -2.0403   22.5184 C   0  0  0  0  0  0  0  0  0  0  0  0
   12.9266    0.1135   24.2518 C   0  0  0  0  0  0  0  0  0  0  0  0
   12.1478   -1.2587   22.4222 C   0  0  0  0  0  0  0  0  0  0  0  0
    9.1890   -3.5540   24.0140 C   0  0  0  0  0  0  0  0  0  0  0  0
    7.8700   -2.0610   25.3550 C   0  0  0  0  0  0  0  0  0  0  0  0
    9.5890   -2.4950   23.2210 C   0  0  0  0  0  0  0  0  0  0  0  0
    8.2550   -1.0010   24.5520 C   0  0  0  0  0  0  0  0  0  0  0  0
   11.9616   -0.1817   23.2889 C   0  0  0  0  0  0  0  0  0  0  0  0
    8.3450   -3.3440   25.0980 C   0  0  0  0  0  0  0  0  0  0  0  0
    9.1280   -1.2090   23.4870 C   0  0  0  0  0  0  0  0  0  0  0  0
    6.1460    0.6070   19.9750 C   0  0  0  0  0  0  0  0  0  0  0  0
    7.2710   -0.1460   19.8310 C   0  0  0  0  0  0  0  0  0  0  0  0
    5.3890    1.0010   21.0690 C   0  0  0  0  0  0  0  0  0  0  0  0
    4.2460    1.7520   20.8250 C   0  0  0  0  0  0  0  0  0  0  0  0
    3.8860    2.1050   19.5250 C   0  0  0  0  0  0  0  0  0  0  0  0
    4.6610    1.7170   18.4380 C   0  0  0  0  0  0  0  0  0  0  0  0
    7.8687   -5.7518   25.4384 C   0  0  0  0  0  0  0  0  0  0  0  0
    9.0430    0.2380   21.4940 C   0  0  0  0  0  0  0  0  0  0  0  0
    7.7614   -6.8724   26.4584 C   0  0  0  0  0  0  0  0  0  0  0  0
    7.0004   -6.5095   27.7148 C   0  0  0  0  0  0  0  0  0  0  0  0
    7.6035   -5.2531   28.3027 C   0  0  0  0  0  0  0  0  0  0  0  0
    7.4713   -4.1195   27.2996 C   0  0  0  0  0  0  0  0  0  0  0  0
   10.7220    0.6590   23.1850 C   0  0  0  0  0  0  0  0  0  0  0  0
    7.5840   -0.2700   18.5160 N   0  0  0  0  0  0  0  0  0  0  0  0
    6.7100    0.3850   17.8100 N   0  0  0  0  0  0  0  0  0  0  0  0
    5.7970    0.9500   18.6730 N   0  0  0  0  0  0  0  0  0  0  0  0
    7.9635   -4.4452   25.9501 N   0  0  0  0  0  0  0  0  0  0  0  0
    8.0950   -0.7700   20.8440 N   0  0  0  0  0  0  0  0  0  0  0  0
    9.5820   -0.1080   22.7000 N   0  0  0  0  0  0  0  0  0  0  0  0
    7.9246   -6.0590   24.2445 O   0  0  0  0  0  0  0  0  0  0  0  0
    9.2950    1.3000   20.9480 O   0  0  0  0  0  0  0  0  0  0  0  0
   15.1613   -2.3527   23.5555 H   0  0  0  0  0  0  0  0  0  0  0  0
   14.8297   -0.4373   25.0971 H   0  0  0  0  0  0  0  0  0  0  0  0
   13.4443   -2.8780   21.8427 H   0  0  0  0  0  0  0  0  0  0  0  0
   12.7899    0.9506   24.9315 H   0  0  0  0  0  0  0  0  0  0  0  0
   11.4013   -1.4963   21.6690 H   0  0  0  0  0  0  0  0  0  0  0  0
    9.5436   -4.5614   23.7799 H   0  0  0  0  0  0  0  0  0  0  0  0
    7.1918   -1.8823   26.1906 H   0  0  0  0  0  0  0  0  0  0  0  0
   10.2676   -2.6754   22.3861 H   0  0  0  0  0  0  0  0  0  0  0  0
    7.8686   -0.0026   24.7598 H   0  0  0  0  0  0  0  0  0  0  0  0
    5.6529    0.7487   22.0767 H   0  0  0  0  0  0  0  0  0  0  0  0
    3.6388    2.0586   21.6675 H   0  0  0  0  0  0  0  0  0  0  0  0
    2.9822    2.6968   19.3330 H   0  0  0  0  0  0  0  0  0  0  0  0
    4.4111    1.9893   17.4360 H   0  0  0  0  0  0  0  0  0  0  0  0
    7.2713   -7.7257   25.9758 H   0  0  0  0  0  0  0  0  0  0  0  0
    8.7837   -7.1790   26.7111 H   0  0  0  0  0  0  0  0  0  0  0  0
    5.9406   -6.3476   27.4837 H   0  0  0  0  0  0  0  0  0  0  0  0
    7.0566   -7.3314   28.4368 H   0  0  0  0  0  0  0  0  0  0  0  0
    7.0858   -4.9863   29.2307 H   0  0  0  0  0  0  0  0  0  0  0  0
    8.6585   -5.4140   28.5554 H   0  0  0  0  0  0  0  0  0  0  0  0
    6.4149   -3.8417   27.1934 H   0  0  0  0  0  0  0  0  0  0  0  0
    8.0152   -3.2408   27.6666 H   0  0  0  0  0  0  0  0  0  0  0  0
   10.4561    1.0772   24.1620 H   0  0  0  0  0  0  0  0  0  0  0  0
   10.8743    1.5008   22.5014 H   0  0  0  0  0  0  0  0  0  0  0  0
    8.0897   -1.6082   21.0890 H   0  0  0  0  0  0  0  0  0  0  0  0
  1  2  1  0  0  0  0
  1  3  2  0  0  0  0
  2  4  2  0  0  0  0
  3  5  1  0  0  0  0
  4 10  1  0  0  0  0
  5 10  2  0  0  0  0
  6  8  2  0  0  0  0
  6 11  1  0  0  0  0
  7  9  1  0  0  0  0
  7 11  2  0  0  0  0
  8 12  1  0  0  0  0
  9 12  2  0  0  0  0
 10 25  1  0  0  0  0
 11 29  1  0  0  0  0
 12 31  1  0  0  0  0
 13 14  2  0  0  0  0
 13 15  1  0  0  0  0
 13 28  1  0  0  0  0
 14 26  1  0  0  0  0
 14 30  1  0  0  0  0
 15 16  2  0  0  0  0
 16 17  1  0  0  0  0
 17 18  2  0  0  0  0
 18 28  1  0  0  0  0
 19 21  1  0  0  0  0
 19 29  1  0  0  0  0
 19 32  2  0  0  0  0
 20 30  1  0  0  0  0
 20 31  1  0  0  0  0
 20 33  2  0  0  0  0
 21 22  1  0  0  0  0
 22 23  1  0  0  0  0
 23 24  1  0  0  0  0
 24 29  1  0  0  0  0
 25 31  1  0  0  0  0
 26 27  2  0  0  0  0
 27 28  1  0  0  0  0
  1 34  1  0  0  0  0
  2 35  1  0  0  0  0
  3 36  1  0  0  0  0
  4 37  1  0  0  0  0
  5 38  1  0  0  0  0
  6 39  1  0  0  0  0
  7 40  1  0  0  0  0
  8 41  1  0  0  0  0
  9 42  1  0  0  0  0
 15 43  1  0  0  0  0
 16 44  1  0  0  0  0
 17 45  1  0  0  0  0
 18 46  1  0  0  0  0
 21 47  1  0  0  0  0
 21 48  1  0  0  0  0
 22 49  1  0  0  0  0
 22 50  1  0  0  0  0
 23 51  1  0  0  0  0
 23 52  1  0  0  0  0
 24 53  1  0  0  0  0
 24 54  1  0  0  0  0
 25 55  1  0  0  0  0
 25 56  1  0  0  0  0
 30 57  1  0  0  0  0
M  END
> <clash_score>
0

> <docking_score>
-8.195951461791992

> <overlap_score>
0.9891777038574219

$$$$
BENZO_104_1
  -OEChem-08222022443D

 54 58  0     0  0  0  0  0  0999 V2000
    9.1890   -3.5540   24.0140 C   0  0  0  0  0  0  0  0  0  0  0  0
    7.8700   -2.0610   25.3550 C   0  0  0  0  0  0  0  0  0  0  0  0
    9.5890   -2.4950   23.2210 C   0  0  0  0  0  0  0  0  0  0  0  0
    8.2550   -1.0010   24.5520 C   0  0  0  0  0  0  0  0  0  0  0  0
   12.6785   -0.3937   24.5018 C   0  0  0  0  0  0  0  0  0  0  0  0
   13.7775   -1.2037   24.3186 C   0  0  0  0  0  0  0  0  0  0  0  0
   12.5401   -0.8378   22.2246 C   0  0  0  0  0  0  0  0  0  0  0  0
   11.9616   -0.1817   23.2889 C   0  0  0  0  0  0  0  0  0  0  0  0
    8.3450   -3.3440   25.0980 C   0  0  0  0  0  0  0  0  0  0  0  0
    9.1280   -1.2090   23.4870 C   0  0  0  0  0  0  0  0  0  0  0  0
    6.1460    0.6070   19.9750 C   0  0  0  0  0  0  0  0  0  0  0  0
    7.2710   -0.1460   19.8310 C   0  0  0  0  0  0  0  0  0  0  0  0
    5.3890    1.0010   21.0690 C   0  0  0  0  0  0  0  0  0  0  0  0
    4.2460    1.7520   20.8250 C   0  0  0  0  0  0  0  0  0  0  0  0
    3.8860    2.1050   19.5250 C   0  0  0  0  0  0  0  0  0  0  0  0
    4.6610    1.7170   18.4380 C   0  0  0  0  0  0  0  0  0  0  0  0
    7.2752   -5.5548   25.4273 C   0  0  0  0  0  0  0  0  0  0  0  0
    9.0430    0.2380   21.4940 C   0  0  0  0  0  0  0  0  0  0  0  0
    7.1880   -6.7800   26.3209 C   0  0  0  0  0  0  0  0  0  0  0  0
    7.0916   -6.4753   27.7999 C   0  0  0  0  0  0  0  0  0  0  0  0
    8.2362   -5.5641   28.1841 C   0  0  0  0  0  0  0  0  0  0  0  0
    8.1241   -4.2655   27.4032 C   0  0  0  0  0  0  0  0  0  0  0  0
   10.7220    0.6590   23.1850 C   0  0  0  0  0  0  0  0  0  0  0  0
    7.5840   -0.2700   18.5160 N   0  0  0  0  0  0  0  0  0  0  0  0
    6.7100    0.3850   17.8100 N   0  0  0  0  0  0  0  0  0  0  0  0
    5.7970    0.9500   18.6730 N   0  0  0  0  0  0  0  0  0  0  0  0
    7.9635   -4.4452   25.9501 N   0  0  0  0  0  0  0  0  0  0  0  0
    8.0950   -0.7700   20.8440 N   0  0  0  0  0  0  0  0  0  0  0  0
    9.5820   -0.1080   22.7000 N   0  0  0  0  0  0  0  0  0  0  0  0
    6.7947   -5.6299   24.2931 O   0  0  0  0  0  0  0  0  0  0  0  0
    9.2950    1.3000   20.9480 O   0  0  0  0  0  0  0  0  0  0  0  0
   13.9416   -1.7051   22.6894 S   0  0  0  0  0  0  0  0  0  0  0  0
    9.5436   -4.5614   23.7799 H   0  0  0  0  0  0  0  0  0  0  0  0
    7.1918   -1.8823   26.1906 H   0  0  0  0  0  0  0  0  0  0  0  0
   10.2676   -2.6754   22.3861 H   0  0  0  0  0  0  0  0  0  0  0  0
    7.8686   -0.0026   24.7598 H   0  0  0  0  0  0  0  0  0  0  0  0
   12.4058    0.0253   25.4623 H   0  0  0  0  0  0  0  0  0  0  0  0
   14.4923   -1.5246   25.0631 H   0  0  0  0  0  0  0  0  0  0  0  0
   12.2108   -0.8511   21.1948 H   0  0  0  0  0  0  0  0  0  0  0  0
    5.6529    0.7487   22.0767 H   0  0  0  0  0  0  0  0  0  0  0  0
    3.6388    2.0586   21.6675 H   0  0  0  0  0  0  0  0  0  0  0  0
    2.9822    2.6968   19.3330 H   0  0  0  0  0  0  0  0  0  0  0  0
    4.4111    1.9893   17.4360 H   0  0  0  0  0  0  0  0  0  0  0  0
    6.3101   -7.3613   26.0164 H   0  0  0  0  0  0  0  0  0  0  0  0
    8.0752   -7.3922   26.1183 H   0  0  0  0  0  0  0  0  0  0  0  0
    6.1328   -5.9938   28.0269 H   0  0  0  0  0  0  0  0  0  0  0  0
    7.1363   -7.4051   28.3772 H   0  0  0  0  0  0  0  0  0  0  0  0
    8.2035   -5.3520   29.2586 H   0  0  0  0  0  0  0  0  0  0  0  0
    9.1990   -6.0474   27.9788 H   0  0  0  0  0  0  0  0  0  0  0  0
    7.2505   -3.6996   27.7511 H   0  0  0  0  0  0  0  0  0  0  0  0
    9.0155   -3.6525   27.5824 H   0  0  0  0  0  0  0  0  0  0  0  0
   10.4561    1.0772   24.1620 H   0  0  0  0  0  0  0  0  0  0  0  0
   10.8743    1.5008   22.5014 H   0  0  0  0  0  0  0  0  0  0  0  0
    8.0897   -1.6082   21.0890 H   0  0  0  0  0  0  0  0  0  0  0  0
  1  3  2  0  0  0  0
  1  9  1  0  0  0  0
  2  4  1  0  0  0  0
  2  9  2  0  0  0  0
  3 10  1  0  0  0  0
  4 10  2  0  0  0  0
  5  6  2  0  0  0  0
  5  8  1  0  0  0  0
  6 32  1  0  0  0  0
  7  8  2  0  0  0  0
  7 32  1  0  0  0  0
  8 23  1  0  0  0  0
  9 27  1  0  0  0  0
 10 29  1  0  0  0  0
 11 12  2  0  0  0  0
 11 13  1  0  0  0  0
 11 26  1  0  0  0  0
 12 24  1  0  0  0  0
 12 28  1  0  0  0  0
 13 14  2  0  0  0  0
 14 15  1  0  0  0  0
 15 16  2  0  0  0  0
 16 26  1  0  0  0  0
 17 19  1  0  0  0  0
 17 27  1  0  0  0  0
 17 30  2  0  0  0  0
 18 28  1  0  0  0  0
 18 29  1  0  0  0  0
 18 31  2  0  0  0  0
 19 20  1  0  0  0  0
 20 21  1  0  0  0  0
 21 22  1  0  0  0  0
 22 27  1  0  0  0  0
 23 29  1  0  0  0  0
 24 25  2  0  0  0  0
 25 26  1  0  0  0  0
  1 33  1  0  0  0  0
  2 34  1  0  0  0  0
  3 35  1  0  0  0  0
  4 36  1  0  0  0  0
  5 37  1  0  0  0  0
  6 38  1  0  0  0  0
  7 39  1  0  0  0  0
 13 40  1  0  0  0  0
 14 41  1  0  0  0  0
 15 42  1  0  0  0  0
 16 43  1  0  0  0  0
 19 44  1  0  0  0  0
 19 45  1  0  0  0  0
 20 46  1  0  0  0  0
 20 47  1  0  0  0  0
 21 48  1  0  0  0  0
 21 49  1  0  0  0  0
 22 50  1  0  0  0  0
 22 51  1  0  0  0  0
 23 52  1  0  0  0  0
 23 53  1  0  0  0  0
 28 54  1  0  0  0  0
M  END
> <clash_score>
0

> <docking_score>
-8.593070030212402

> <overlap_score>
0.9828841090202332

$$$$
BENZO_107_1
  -OEChem-08222022443D

 57 61  0     0  0  0  0  0  0999 V2000
    9.1890   -3.5540   24.0140 C   0  0  0  0  0  0  0  0  0  0  0  0
    7.8700   -2.0610   25.3550 C   0  0  0  0  0  0  0  0  0  0  0  0
    9.5890   -2.4950   23.2210 C   0  0  0  0  0  0  0  0  0  0  0  0
    8.2550   -1.0010   24.5520 C   0  0  0  0  0  0  0  0  0  0  0  0
   12.7320   -0.4464   24.4370 C   0  0  0  0  0  0  0  0  0  0  0  0
   12.5970   -0.8682   22.2832 C   0  0  0  0  0  0  0  0  0  0  0  0
   11.9616   -0.1817   23.2889 C   0  0  0  0  0  0  0  0  0  0  0  0
    8.3450   -3.3440   25.0980 C   0  0  0  0  0  0  0  0  0  0  0  0
    9.1280   -1.2090   23.4870 C   0  0  0  0  0  0  0  0  0  0  0  0
    6.1460    0.6070   19.9750 C   0  0  0  0  0  0  0  0  0  0  0  0
    7.2710   -0.1460   19.8310 C   0  0  0  0  0  0  0  0  0  0  0  0
    5.3890    1.0010   21.0690 C   0  0  0  0  0  0  0  0  0  0  0  0
    4.2460    1.7520   20.8250 C   0  0  0  0  0  0  0  0  0  0  0  0
    3.8860    2.1050   19.5250 C   0  0  0  0  0  0  0  0  0  0  0  0
    4.6610    1.7170   18.4380 C   0  0  0  0  0  0  0  0  0  0  0  0
    7.2752   -5.5548   25.4273 C   0  0  0  0  0  0  0  0  0  0  0  0
    9.0430    0.2380   21.4940 C   0  0  0  0  0  0  0  0  0  0  0  0
    7.1880   -6.7800   26.3209 C   0  0  0  0  0  0  0  0  0  0  0  0
    7.0916   -6.4753   27.7999 C   0  0  0  0  0  0  0  0  0  0  0  0
    8.2362   -5.5641   28.1841 C   0  0  0  0  0  0  0  0  0  0  0  0
    8.1241   -4.2655   27.4032 C   0  0  0  0  0  0  0  0  0  0  0  0
   14.6393   -2.3180   22.2082 C   0  0  0  0  0  0  0  0  0  0  0  0
   10.7220    0.6590   23.1850 C   0  0  0  0  0  0  0  0  0  0  0  0
   13.7770   -1.2393   24.1852 N   0  0  0  0  0  0  0  0  0  0  0  0
    7.5840   -0.2700   18.5160 N   0  0  0  0  0  0  0  0  0  0  0  0
    6.7100    0.3850   17.8100 N   0  0  0  0  0  0  0  0  0  0  0  0
   13.6676   -1.4788   22.8673 N   0  0  0  0  0  0  0  0  0  0  0  0
    5.7970    0.9500   18.6730 N   0  0  0  0  0  0  0  0  0  0  0  0
    7.9635   -4.4452   25.9501 N   0  0  0  0  0  0  0  0  0  0  0  0
    8.0950   -0.7700   20.8440 N   0  0  0  0  0  0  0  0  0  0  0  0
    9.5820   -0.1080   22.7000 N   0  0  0  0  0  0  0  0  0  0  0  0
    6.7947   -5.6299   24.2931 O   0  0  0  0  0  0  0  0  0  0  0  0
    9.2950    1.3000   20.9480 O   0  0  0  0  0  0  0  0  0  0  0  0
    9.5436   -4.5614   23.7799 H   0  0  0  0  0  0  0  0  0  0  0  0
    7.1918   -1.8823   26.1906 H   0  0  0  0  0  0  0  0  0  0  0  0
   10.2676   -2.6754   22.3861 H   0  0  0  0  0  0  0  0  0  0  0  0
    7.8686   -0.0026   24.7598 H   0  0  0  0  0  0  0  0  0  0  0  0
   12.5771   -0.0965   25.4478 H   0  0  0  0  0  0  0  0  0  0  0  0
   12.3832   -0.9726   21.2281 H   0  0  0  0  0  0  0  0  0  0  0  0
    5.6529    0.7487   22.0767 H   0  0  0  0  0  0  0  0  0  0  0  0
    3.6388    2.0586   21.6675 H   0  0  0  0  0  0  0  0  0  0  0  0
    2.9822    2.6968   19.3330 H   0  0  0  0  0  0  0  0  0  0  0  0
    4.4111    1.9893   17.4360 H   0  0  0  0  0  0  0  0  0  0  0  0
    6.3101   -7.3613   26.0164 H   0  0  0  0  0  0  0  0  0  0  0  0
    8.0752   -7.3922   26.1183 H   0  0  0  0  0  0  0  0  0  0  0  0
    6.1328   -5.9938   28.0269 H   0  0  0  0  0  0  0  0  0  0  0  0
    7.1363   -7.4051   28.3772 H   0  0  0  0  0  0  0  0  0  0  0  0
    8.2035   -5.3520   29.2586 H   0  0  0  0  0  0  0  0  0  0  0  0
    9.1990   -6.0474   27.9788 H   0  0  0  0  0  0  0  0  0  0  0  0
    7.2505   -3.6996   27.7511 H   0  0  0  0  0  0  0  0  0  0  0  0
    9.0155   -3.6525   27.5824 H   0  0  0  0  0  0  0  0  0  0  0  0
   15.4522   -1.6787   21.8540 H   0  0  0  0  0  0  0  0  0  0  0  0
   15.0179   -3.0613   22.9154 H   0  0  0  0  0  0  0  0  0  0  0  0
   14.1626   -2.8324   21.3691 H   0  0  0  0  0  0  0  0  0  0  0  0
   10.4561    1.0772   24.1620 H   0  0  0  0  0  0  0  0  0  0  0  0
   10.8743    1.5008   22.5014 H   0  0  0  0  0  0  0  0  0  0  0  0
    8.0897   -1.6082   21.0890 H   0  0  0  0  0  0  0  0  0  0  0  0
  1  3  2  0  0  0  0
  1  8  1  0  0  0  0
  2  4  1  0  0  0  0
  2  8  2  0  0  0  0
  3  9  1  0  0  0  0
  4  9  2  0  0  0  0
  5  7  1  0  0  0  0
  5 24  2  0  0  0  0
  6  7  2  0  0  0  0
  6 27  1  0  0  0  0
  7 23  1  0  0  0  0
  8 29  1  0  0  0  0
  9 31  1  0  0  0  0
 10 11  2  0  0  0  0
 10 12  1  0  0  0  0
 10 28  1  0  0  0  0
 11 25  1  0  0  0  0
 11 30  1  0  0  0  0
 12 13  2  0  0  0  0
 13 14  1  0  0  0  0
 14 15  2  0  0  0  0
 15 28  1  0  0  0  0
 16 18  1  0  0  0  0
 16 29  1  0  0  0  0
 16 32  2  0  0  0  0
 17 30  1  0  0  0  0
 17 31  1  0  0  0  0
 17 33  2  0  0  0  0
 18 19  1  0  0  0  0
 19 20  1  0  0  0  0
 20 21  1  0  0  0  0
 21 29  1  0  0  0  0
 22 27  1  0  0  0  0
 23 31  1  0  0  0  0
 24 27  1  0  0  0  0
 25 26  2  0  0  0  0
 26 28  1  0  0  0  0
  1 34  1  0  0  0  0
  2 35  1  0  0  0  0
  3 36  1  0  0  0  0
  4 37  1  0  0  0  0
  5 38  1  0  0  0  0
  6 39  1  0  0  0  0
 12 40  1  0  0  0  0
 13 41  1  0  0  0  0
 14 42  1  0  0  0  0
 15 43  1  0  0  0  0
 18 44  1  0  0  0  0
 18 45  1  0  0  0  0
 19 46  1  0  0  0  0
 19 47  1  0  0  0  0
 20 48  1  0  0  0  0
 20 49  1  0  0  0  0
 21 50  1  0  0  0  0
 21 51  1  0  0  0  0
 22 52  1  0  0  0  0
 22 53  1  0  0  0  0
 22 54  1  0  0  0  0
 23 55  1  0  0  0  0
 23 56  1  0  0  0  0
 30 57  1  0  0  0  0
M  END
> <clash_score>
0

> <docking_score>
-7.342295169830322

> <overlap_score>
0.9994744658470154

$$$$
BENZO_109_1
  -OEChem-08222022443D

 56 60  0     0  0  0  0  0  0999 V2000
   14.2641   -1.7450   23.4813 C   0  0  0  0  0  0  0  0  0  0  0  0
   14.0779   -0.6681   24.3480 C   0  0  0  0  0  0  0  0  0  0  0  0
   13.2991   -2.0403   22.5184 C   0  0  0  0  0  0  0  0  0  0  0  0
   12.9266    0.1135   24.2518 C   0  0  0  0  0  0  0  0  0  0  0  0
   12.1478   -1.2587   22.4222 C   0  0  0  0  0  0  0  0  0  0  0  0
    9.1890   -3.5540   24.0140 C   0  0  0  0  0  0  0  0  0  0  0  0
    7.8700   -2.0610   25.3550 C   0  0  0  0  0  0  0  0  0  0  0  0
    9.5890   -2.4950   23.2210 C   0  0  0  0  0  0  0  0  0  0  0  0
    8.2550   -1.0010   24.5520 C   0  0  0  0  0  0  0  0  0  0  0  0
   11.9616   -0.1817   23.2889 C   0  0  0  0  0  0  0  0  0  0  0  0
    8.3450   -3.3440   25.0980 C   0  0  0  0  0  0  0  0  0  0  0  0
    9.1280   -1.2090   23.4870 C   0  0  0  0  0  0  0  0  0  0  0  0
    6.1460    0.6070   19.9750 C   0  0  0  0  0  0  0  0  0  0  0  0
    7.2710   -0.1460   19.8310 C   0  0  0  0  0  0  0  0  0  0  0  0
    5.3890    1.0010   21.0690 C   0  0  0  0  0  0  0  0  0  0  0  0
    4.2460    1.7520   20.8250 C   0  0  0  0  0  0  0  0  0  0  0  0
    3.8860    2.1050   19.5250 C   0  0  0  0  0  0  0  0  0  0  0  0
    4.6610    1.7170   18.4380 C   0  0  0  0  0  0  0  0  0  0  0  0
    9.0430    0.2380   21.4940 C   0  0  0  0  0  0  0  0  0  0  0  0
    7.2567   -5.5373   25.3128 C   0  0  0  0  0  0  0  0  0  0  0  0
    7.6783   -4.1701   27.3375 C   0  0  0  0  0  0  0  0  0  0  0  0
    7.3927   -6.7710   26.1978 C   0  0  0  0  0  0  0  0  0  0  0  0
    7.7912   -5.4770   28.1147 C   0  0  0  0  0  0  0  0  0  0  0  0
   10.7220    0.6590   23.1850 C   0  0  0  0  0  0  0  0  0  0  0  0
    7.5840   -0.2700   18.5160 N   0  0  0  0  0  0  0  0  0  0  0  0
    6.7100    0.3850   17.8100 N   0  0  0  0  0  0  0  0  0  0  0  0
    5.7970    0.9500   18.6730 N   0  0  0  0  0  0  0  0  0  0  0  0
    7.9750   -4.4088   25.9208 N   0  0  0  0  0  0  0  0  0  0  0  0
    8.0950   -0.7700   20.8440 N   0  0  0  0  0  0  0  0  0  0  0  0
    9.5820   -0.1080   22.7000 N   0  0  0  0  0  0  0  0  0  0  0  0
    9.2950    1.3000   20.9480 O   0  0  0  0  0  0  0  0  0  0  0  0
    6.9636   -6.4808   27.5280 O   0  0  0  0  0  0  0  0  0  0  0  0
   15.1613   -2.3527   23.5555 H   0  0  0  0  0  0  0  0  0  0  0  0
   14.8297   -0.4373   25.0971 H   0  0  0  0  0  0  0  0  0  0  0  0
   13.4443   -2.8780   21.8427 H   0  0  0  0  0  0  0  0  0  0  0  0
   12.7899    0.9506   24.9315 H   0  0  0  0  0  0  0  0  0  0  0  0
   11.4013   -1.4963   21.6690 H   0  0  0  0  0  0  0  0  0  0  0  0
    9.5426   -4.5618   23.7797 H   0  0  0  0  0  0  0  0  0  0  0  0
    7.1914   -1.8824   26.1903 H   0  0  0  0  0  0  0  0  0  0  0  0
   10.2669   -2.6745   22.3854 H   0  0  0  0  0  0  0  0  0  0  0  0
    7.8690   -0.0020   24.7587 H   0  0  0  0  0  0  0  0  0  0  0  0
    5.6529    0.7487   22.0767 H   0  0  0  0  0  0  0  0  0  0  0  0
    3.6388    2.0586   21.6675 H   0  0  0  0  0  0  0  0  0  0  0  0
    2.9822    2.6968   19.3330 H   0  0  0  0  0  0  0  0  0  0  0  0
    4.4111    1.9893   17.4360 H   0  0  0  0  0  0  0  0  0  0  0  0
    7.6535   -5.7575   24.3148 H   0  0  0  0  0  0  0  0  0  0  0  0
    6.1962   -5.2737   25.2113 H   0  0  0  0  0  0  0  0  0  0  0  0
    6.6579   -3.7759   27.4290 H   0  0  0  0  0  0  0  0  0  0  0  0
    8.3696   -3.4320   27.7610 H   0  0  0  0  0  0  0  0  0  0  0  0
    6.7582   -7.5752   25.8116 H   0  0  0  0  0  0  0  0  0  0  0  0
    8.4238   -7.1441   26.2130 H   0  0  0  0  0  0  0  0  0  0  0  0
    8.8287   -5.8300   28.1600 H   0  0  0  0  0  0  0  0  0  0  0  0
    7.4508   -5.3251   29.1440 H   0  0  0  0  0  0  0  0  0  0  0  0
   10.4561    1.0772   24.1620 H   0  0  0  0  0  0  0  0  0  0  0  0
   10.8743    1.5008   22.5014 H   0  0  0  0  0  0  0  0  0  0  0  0
    8.0897   -1.6082   21.0890 H   0  0  0  0  0  0  0  0  0  0  0  0
  1  2  1  0  0  0  0
  1  3  2  0  0  0  0
  2  4  2  0  0  0  0
  3  5  1  0  0  0  0
  4 10  1  0  0  0  0
  5 10  2  0  0  0  0
  6  8  2  0  0  0  0
  6 11  1  0  0  0  0
  7  9  1  0  0  0  0
  7 11  2  0  0  0  0
  8 12  1  0  0  0  0
  9 12  2  0  0  0  0
 10 24  1  0  0  0  0
 11 28  1  0  0  0  0
 12 30  1  0  0  0  0
 13 14  2  0  0  0  0
 13 15  1  0  0  0  0
 13 27  1  0  0  0  0
 14 25  1  0  0  0  0
 14 29  1  0  0  0  0
 15 16  2  0  0  0  0
 16 17  1  0  0  0  0
 17 18  2  0  0  0  0
 18 27  1  0  0  0  0
 19 29  1  0  0  0  0
 19 30  1  0  0  0  0
 19 31  2  0  0  0  0
 20 22  1  0  0  0  0
 20 28  1  0  0  0  0
 21 23  1  0  0  0  0
 21 28  1  0  0  0  0
 22 32  1  0  0  0  0
 23 32  1  0  0  0  0
 24 30  1  0  0  0  0
 25 26  2  0  0  0  0
 26 27  1  0  0  0  0
  1 33  1  0  0  0  0
  2 34  1  0  0  0  0
  3 35  1  0  0  0  0
  4 36  1  0  0  0  0
  5 37  1  0  0  0  0
  6 38  1  0  0  0  0
  7 39  1  0  0  0  0
  8 40  1  0  0  0  0
  9 41  1  0  0  0  0
 15 42  1  0  0  0  0
 16 43  1  0  0  0  0
 17 44  1  0  0  0  0
 18 45  1  0  0  0  0
 20 46  1  0  0  0  0
 20 47  1  0  0  0  0
 21 48  1  0  0  0  0
 21 49  1  0  0  0  0
 22 50  1  0  0  0  0
 22 51  1  0  0  0  0
 23 52  1  0  0  0  0
 23 53  1  0  0  0  0
 24 54  1  0  0  0  0
 24 55  1  0  0  0  0
 29 56  1  0  0  0  0
M  END
> <clash_score>
0

> <docking_score>
-9.456159591674805

> <overlap_score>
0.9890320897102356

$$$$
BENZO_106_1
  -OEChem-08222022443D

 57 61  0     0  0  0  0  0  0999 V2000
   13.7501   -1.1157   24.6177 C   0  0  0  0  0  0  0  0  0  0  0  0
   12.5991   -0.3339   24.5202 C   0  0  0  0  0  0  0  0  0  0  0  0
    9.1890   -3.5540   24.0140 C   0  0  0  0  0  0  0  0  0  0  0  0
    7.8700   -2.0610   25.3550 C   0  0  0  0  0  0  0  0  0  0  0  0
    9.5890   -2.4950   23.2210 C   0  0  0  0  0  0  0  0  0  0  0  0
    8.2550   -1.0010   24.5520 C   0  0  0  0  0  0  0  0  0  0  0  0
   14.2636   -1.7454   23.4838 C   0  0  0  0  0  0  0  0  0  0  0  0
   12.4750   -0.8115   22.1551 C   0  0  0  0  0  0  0  0  0  0  0  0
   11.9616   -0.1817   23.2889 C   0  0  0  0  0  0  0  0  0  0  0  0
    8.3450   -3.3440   25.0980 C   0  0  0  0  0  0  0  0  0  0  0  0
    9.1280   -1.2090   23.4870 C   0  0  0  0  0  0  0  0  0  0  0  0
   13.6261   -1.5933   22.2526 C   0  0  0  0  0  0  0  0  0  0  0  0
    6.1460    0.6070   19.9750 C   0  0  0  0  0  0  0  0  0  0  0  0
    7.2710   -0.1460   19.8310 C   0  0  0  0  0  0  0  0  0  0  0  0
    5.3890    1.0010   21.0690 C   0  0  0  0  0  0  0  0  0  0  0  0
    4.2460    1.7520   20.8250 C   0  0  0  0  0  0  0  0  0  0  0  0
    3.8860    2.1050   19.5250 C   0  0  0  0  0  0  0  0  0  0  0  0
    4.6610    1.7170   18.4380 C   0  0  0  0  0  0  0  0  0  0  0  0
    7.2757   -5.5631   25.4492 C   0  0  0  0  0  0  0  0  0  0  0  0
    9.0430    0.2380   21.4940 C   0  0  0  0  0  0  0  0  0  0  0  0
    6.9626   -6.6001   26.5133 C   0  0  0  0  0  0  0  0  0  0  0  0
    6.3764   -5.9422   27.7501 C   0  0  0  0  0  0  0  0  0  0  0  0
    7.2660   -4.8258   28.2881 C   0  0  0  0  0  0  0  0  0  0  0  0
    8.4098   -4.4623   27.3426 C   0  0  0  0  0  0  0  0  0  0  0  0
   10.7220    0.6590   23.1850 C   0  0  0  0  0  0  0  0  0  0  0  0
    7.5840   -0.2700   18.5160 N   0  0  0  0  0  0  0  0  0  0  0  0
    6.7100    0.3850   17.8100 N   0  0  0  0  0  0  0  0  0  0  0  0
    5.7970    0.9500   18.6730 N   0  0  0  0  0  0  0  0  0  0  0  0
    7.9658   -4.4384   25.9449 N   0  0  0  0  0  0  0  0  0  0  0  0
    8.0950   -0.7700   20.8440 N   0  0  0  0  0  0  0  0  0  0  0  0
    9.5820   -0.1080   22.7000 N   0  0  0  0  0  0  0  0  0  0  0  0
    6.9858   -5.7908   24.2753 O   0  0  0  0  0  0  0  0  0  0  0  0
    9.2950    1.3000   20.9480 O   0  0  0  0  0  0  0  0  0  0  0  0
   14.2594   -2.3714   20.8543 Cl  0  0  0  0  0  0  0  0  0  0  0  0
   14.2462   -1.2340   25.5766 H   0  0  0  0  0  0  0  0  0  0  0  0
   12.2060    0.1530   25.4088 H   0  0  0  0  0  0  0  0  0  0  0  0
    9.5436   -4.5614   23.7799 H   0  0  0  0  0  0  0  0  0  0  0  0
    7.1918   -1.8823   26.1906 H   0  0  0  0  0  0  0  0  0  0  0  0
   10.2676   -2.6754   22.3861 H   0  0  0  0  0  0  0  0  0  0  0  0
    7.8686   -0.0026   24.7598 H   0  0  0  0  0  0  0  0  0  0  0  0
   15.1613   -2.3520   23.5747 H   0  0  0  0  0  0  0  0  0  0  0  0
   11.9745   -0.6893   21.1973 H   0  0  0  0  0  0  0  0  0  0  0  0
    5.6529    0.7487   22.0767 H   0  0  0  0  0  0  0  0  0  0  0  0
    3.6388    2.0586   21.6675 H   0  0  0  0  0  0  0  0  0  0  0  0
    2.9822    2.6968   19.3330 H   0  0  0  0  0  0  0  0  0  0  0  0
    4.4111    1.9893   17.4360 H   0  0  0  0  0  0  0  0  0  0  0  0
    6.2500   -7.3027   26.1097 H   0  0  0  0  0  0  0  0  0  0  0  0
    7.8838   -7.1078   26.7574 H   0  0  0  0  0  0  0  0  0  0  0  0
    5.3690   -5.5363   27.5214 H   0  0  0  0  0  0  0  0  0  0  0  0
    6.2178   -6.7054   28.5384 H   0  0  0  0  0  0  0  0  0  0  0  0
    6.6498   -3.9225   28.4807 H   0  0  0  0  0  0  0  0  0  0  0  0
    7.6764   -5.1138   29.2803 H   0  0  0  0  0  0  0  0  0  0  0  0
    8.7796   -3.4700   27.5826 H   0  0  0  0  0  0  0  0  0  0  0  0
    9.2112   -5.1853   27.4497 H   0  0  0  0  0  0  0  0  0  0  0  0
   10.4561    1.0772   24.1620 H   0  0  0  0  0  0  0  0  0  0  0  0
   10.8743    1.5008   22.5014 H   0  0  0  0  0  0  0  0  0  0  0  0
    8.0897   -1.6082   21.0890 H   0  0  0  0  0  0  0  0  0  0  0  0
  1  2  2  0  0  0  0
  1  7  1  0  0  0  0
  2  9  1  0  0  0  0
  3  5  2  0  0  0  0
  3 10  1  0  0  0  0
  4  6  1  0  0  0  0
  4 10  2  0  0  0  0
  5 11  1  0  0  0  0
  6 11  2  0  0  0  0
  7 12  2  0  0  0  0
  8  9  2  0  0  0  0
  8 12  1  0  0  0  0
  9 25  1  0  0  0  0
 10 29  1  0  0  0  0
 11 31  1  0  0  0  0
 12 34  1  0  0  0  0
 13 14  2  0  0  0  0
 13 15  1  0  0  0  0
 13 28  1  0  0  0  0
 14 26  1  0  0  0  0
 14 30  1  0  0  0  0
 15 16  2  0  0  0  0
 16 17  1  0  0  0  0
 17 18  2  0  0  0  0
 18 28  1  0  0  0  0
 19 21  1  0  0  0  0
 19 29  1  0  0  0  0
 19 32  2  0  0  0  0
 20 30  1  0  0  0  0
 20 31  1  0  0  0  0
 20 33  2  0  0  0  0
 21 22  1  0  0  0  0
 22 23  1  0  0  0  0
 23 24  1  0  0  0  0
 24 29  1  0  0  0  0
 25 31  1  0  0  0  0
 26 27  2  0  0  0  0
 27 28  1  0  0  0  0
  1 35  1  0  0  0  0
  2 36  1  0  0  0  0
  3 37  1  0  0  0  0
  4 38  1  0  0  0  0
  5 39  1  0  0  0  0
  6 40  1  0  0  0  0
  7 41  1  0  0  0  0
  8 42  1  0  0  0  0
 15 43  1  0  0  0  0
 16 44  1  0  0  0  0
 17 45  1  0  0  0  0
 18 46  1  0  0  0  0
 21 47  1  0  0  0  0
 21 48  1  0  0  0  0
 22 49  1  0  0  0  0
 22 50  1  0  0  0  0
 23 51  1  0  0  0  0
 23 52  1  0  0  0  0
 24 53  1  0  0  0  0
 24 54  1  0  0  0  0
 25 55  1  0  0  0  0
 25 56  1  0  0  0  0
 30 57  1  0  0  0  0
M  END
> <clash_score>
0

> <docking_score>
-8.185713768005371

> <overlap_score>
0.9984303712844849

$$$$
BENZO_108_1
  -OEChem-08222022443D

 53 57  0     0  0  0  0  0  0999 V2000
    9.1890   -3.5540   24.0140 C   0  0  0  0  0  0  0  0  0  0  0  0
    7.8700   -2.0610   25.3550 C   0  0  0  0  0  0  0  0  0  0  0  0
    9.5890   -2.4950   23.2210 C   0  0  0  0  0  0  0  0  0  0  0  0
    8.2550   -1.0010   24.5520 C   0  0  0  0  0  0  0  0  0  0  0  0
   12.6785   -0.3937   24.5018 C   0  0  0  0  0  0  0  0  0  0  0  0
   13.7775   -1.2037   24.3186 C   0  0  0  0  0  0  0  0  0  0  0  0
   12.5401   -0.8378   22.2246 C   0  0  0  0  0  0  0  0  0  0  0  0
   11.9616   -0.1817   23.2889 C   0  0  0  0  0  0  0  0  0  0  0  0
    8.3450   -3.3440   25.0980 C   0  0  0  0  0  0  0  0  0  0  0  0
    9.1280   -1.2090   23.4870 C   0  0  0  0  0  0  0  0  0  0  0  0
    6.1460    0.6070   19.9750 C   0  0  0  0  0  0  0  0  0  0  0  0
    7.2710   -0.1460   19.8310 C   0  0  0  0  0  0  0  0  0  0  0  0
    5.3890    1.0010   21.0690 C   0  0  0  0  0  0  0  0  0  0  0  0
    4.2460    1.7520   20.8250 C   0  0  0  0  0  0  0  0  0  0  0  0
    3.8860    2.1050   19.5250 C   0  0  0  0  0  0  0  0  0  0  0  0
    4.6610    1.7170   18.4380 C   0  0  0  0  0  0  0  0  0  0  0  0
    9.0430    0.2380   21.4940 C   0  0  0  0  0  0  0  0  0  0  0  0
    8.9524   -5.2012   26.6600 C   0  0  0  0  0  0  0  0  0  0  0  0
    6.6112   -4.5068   26.4379 C   0  0  0  0  0  0  0  0  0  0  0  0
    8.9037   -4.7845   28.1261 C   0  0  0  0  0  0  0  0  0  0  0  0
    6.6374   -4.1243   27.9184 C   0  0  0  0  0  0  0  0  0  0  0  0
   10.7220    0.6590   23.1850 C   0  0  0  0  0  0  0  0  0  0  0  0
    7.5840   -0.2700   18.5160 N   0  0  0  0  0  0  0  0  0  0  0  0
    6.7100    0.3850   17.8100 N   0  0  0  0  0  0  0  0  0  0  0  0
    5.7970    0.9500   18.6730 N   0  0  0  0  0  0  0  0  0  0  0  0
    7.9775   -4.4014   25.9151 N   0  0  0  0  0  0  0  0  0  0  0  0
    8.0950   -0.7700   20.8440 N   0  0  0  0  0  0  0  0  0  0  0  0
    9.5820   -0.1080   22.7000 N   0  0  0  0  0  0  0  0  0  0  0  0
    9.2950    1.3000   20.9480 O   0  0  0  0  0  0  0  0  0  0  0  0
    7.5729   -4.9391   28.6338 O   0  0  0  0  0  0  0  0  0  0  0  0
   13.9416   -1.7051   22.6894 S   0  0  0  0  0  0  0  0  0  0  0  0
    9.5426   -4.5618   23.7797 H   0  0  0  0  0  0  0  0  0  0  0  0
    7.1914   -1.8824   26.1903 H   0  0  0  0  0  0  0  0  0  0  0  0
   10.2669   -2.6745   22.3854 H   0  0  0  0  0  0  0  0  0  0  0  0
    7.8690   -0.0020   24.7587 H   0  0  0  0  0  0  0  0  0  0  0  0
   12.4058    0.0253   25.4623 H   0  0  0  0  0  0  0  0  0  0  0  0
   14.4923   -1.5246   25.0631 H   0  0  0  0  0  0  0  0  0  0  0  0
   12.2108   -0.8511   21.1948 H   0  0  0  0  0  0  0  0  0  0  0  0
    5.6529    0.7487   22.0767 H   0  0  0  0  0  0  0  0  0  0  0  0
    3.6388    2.0586   21.6675 H   0  0  0  0  0  0  0  0  0  0  0  0
    2.9822    2.6968   19.3330 H   0  0  0  0  0  0  0  0  0  0  0  0
    4.4111    1.9893   17.4360 H   0  0  0  0  0  0  0  0  0  0  0  0
    9.9615   -5.0500   26.2711 H   0  0  0  0  0  0  0  0  0  0  0  0
    8.6935   -6.2597   26.5720 H   0  0  0  0  0  0  0  0  0  0  0  0
    6.2628   -5.5350   26.3330 H   0  0  0  0  0  0  0  0  0  0  0  0
    5.9347   -3.8423   25.9023 H   0  0  0  0  0  0  0  0  0  0  0  0
    9.5597   -5.4275   28.7166 H   0  0  0  0  0  0  0  0  0  0  0  0
    9.2344   -3.7511   28.2636 H   0  0  0  0  0  0  0  0  0  0  0  0
    6.8874   -3.0657   28.0553 H   0  0  0  0  0  0  0  0  0  0  0  0
    5.6495   -4.2893   28.3591 H   0  0  0  0  0  0  0  0  0  0  0  0
   10.4561    1.0772   24.1620 H   0  0  0  0  0  0  0  0  0  0  0  0
   10.8743    1.5008   22.5014 H   0  0  0  0  0  0  0  0  0  0  0  0
    8.0897   -1.6082   21.0890 H   0  0  0  0  0  0  0  0  0  0  0  0
  1  3  2  0  0  0  0
  1  9  1  0  0  0  0
  2  4  1  0  0  0  0
  2  9  2  0  0  0  0
  3 10  1  0  0  0  0
  4 10  2  0  0  0  0
  5  6  2  0  0  0  0
  5  8  1  0  0  0  0
  6 31  1  0  0  0  0
  7  8  2  0  0  0  0
  7 31  1  0  0  0  0
  8 22  1  0  0  0  0
  9 26  1  0  0  0  0
 10 28  1  0  0  0  0
 11 12  2  0  0  0  0
 11 13  1  0  0  0  0
 11 25  1  0  0  0  0
 12 23  1  0  0  0  0
 12 27  1  0  0  0  0
 13 14  2  0  0  0  0
 14 15  1  0  0  0  0
 15 16  2  0  0  0  0
 16 25  1  0  0  0  0
 17 27  1  0  0  0  0
 17 28  1  0  0  0  0
 17 29  2  0  0  0  0
 18 20  1  0  0  0  0
 18 26  1  0  0  0  0
 19 21  1  0  0  0  0
 19 26  1  0  0  0  0
 20 30  1  0  0  0  0
 21 30  1  0  0  0  0
 22 28  1  0  0  0  0
 23 24  2  0  0  0  0
 24 25  1  0  0  0  0
  1 32  1  0  0  0  0
  2 33  1  0  0  0  0
  3 34  1  0  0  0  0
  4 35  1  0  0  0  0
  5 36  1  0  0  0  0
  6 37  1  0  0  0  0
  7 38  1  0  0  0  0
 13 39  1  0  0  0  0
 14 40  1  0  0  0  0
 15 41  1  0  0  0  0
 16 42  1  0  0  0  0
 18 43  1  0  0  0  0
 18 44  1  0  0  0  0
 19 45  1  0  0  0  0
 19 46  1  0  0  0  0
 20 47  1  0  0  0  0
 20 48  1  0  0  0  0
 21 49  1  0  0  0  0
 21 50  1  0  0  0  0
 22 51  1  0  0  0  0
 22 52  1  0  0  0  0
 27 53  1  0  0  0  0
M  END
> <clash_score>
0

> <docking_score>
-9.730660438537598

> <overlap_score>
0.9805793762207031

$$$$
BENZO_110_1
  -OEChem-08222022443D

 56 60  0     0  0  0  0  0  0999 V2000
   13.7501   -1.1157   24.6177 C   0  0  0  0  0  0  0  0  0  0  0  0
   12.5991   -0.3339   24.5202 C   0  0  0  0  0  0  0  0  0  0  0  0
    9.1890   -3.5540   24.0140 C   0  0  0  0  0  0  0  0  0  0  0  0
    7.8700   -2.0610   25.3550 C   0  0  0  0  0  0  0  0  0  0  0  0
    9.5890   -2.4950   23.2210 C   0  0  0  0  0  0  0  0  0  0  0  0
    8.2550   -1.0010   24.5520 C   0  0  0  0  0  0  0  0  0  0  0  0
   14.2636   -1.7454   23.4838 C   0  0  0  0  0  0  0  0  0  0  0  0
   12.4750   -0.8115   22.1551 C   0  0  0  0  0  0  0  0  0  0  0  0
   11.9616   -0.1817   23.2889 C   0  0  0  0  0  0  0  0  0  0  0  0
    8.3450   -3.3440   25.0980 C   0  0  0  0  0  0  0  0  0  0  0  0
    9.1280   -1.2090   23.4870 C   0  0  0  0  0  0  0  0  0  0  0  0
   13.6260   -1.5933   22.2526 C   0  0  0  0  0  0  0  0  0  0  0  0
    6.1460    0.6070   19.9750 C   0  0  0  0  0  0  0  0  0  0  0  0
    7.2710   -0.1460   19.8310 C   0  0  0  0  0  0  0  0  0  0  0  0
    5.3890    1.0010   21.0690 C   0  0  0  0  0  0  0  0  0  0  0  0
    4.2460    1.7520   20.8250 C   0  0  0  0  0  0  0  0  0  0  0  0
    3.8860    2.1050   19.5250 C   0  0  0  0  0  0  0  0  0  0  0  0
    4.6610    1.7170   18.4380 C   0  0  0  0  0  0  0  0  0  0  0  0
    9.0430    0.2380   21.4940 C   0  0  0  0  0  0  0  0  0  0  0  0
    8.9524   -5.2012   26.6600 C   0  0  0  0  0  0  0  0  0  0  0  0
    6.6112   -4.5068   26.4379 C   0  0  0  0  0  0  0  0  0  0  0  0
    8.9037   -4.7845   28.1261 C   0  0  0  0  0  0  0  0  0  0  0  0
    6.6374   -4.1243   27.9184 C   0  0  0  0  0  0  0  0  0  0  0  0
   10.7220    0.6590   23.1850 C   0  0  0  0  0  0  0  0  0  0  0  0
    7.5840   -0.2700   18.5160 N   0  0  0  0  0  0  0  0  0  0  0  0
    6.7100    0.3850   17.8100 N   0  0  0  0  0  0  0  0  0  0  0  0
    5.7970    0.9500   18.6730 N   0  0  0  0  0  0  0  0  0  0  0  0
    7.9775   -4.4014   25.9151 N   0  0  0  0  0  0  0  0  0  0  0  0
    8.0950   -0.7700   20.8440 N   0  0  0  0  0  0  0  0  0  0  0  0
    9.5820   -0.1080   22.7000 N   0  0  0  0  0  0  0  0  0  0  0  0
    9.2950    1.3000   20.9480 O   0  0  0  0  0  0  0  0  0  0  0  0
    7.5729   -4.9391   28.6338 O   0  0  0  0  0  0  0  0  0  0  0  0
   14.2594   -2.3714   20.8543 Cl  0  0  0  0  0  0  0  0  0  0  0  0
   14.2462   -1.2340   25.5766 H   0  0  0  0  0  0  0  0  0  0  0  0
   12.2060    0.1530   25.4088 H   0  0  0  0  0  0  0  0  0  0  0  0
    9.5426   -4.5618   23.7797 H   0  0  0  0  0  0  0  0  0  0  0  0
    7.1914   -1.8824   26.1903 H   0  0  0  0  0  0  0  0  0  0  0  0
   10.2669   -2.6745   22.3854 H   0  0  0  0  0  0  0  0  0  0  0  0
    7.8690   -0.0020   24.7587 H   0  0  0  0  0  0  0  0  0  0  0  0
   15.1613   -2.3520   23.5748 H   0  0  0  0  0  0  0  0  0  0  0  0
   11.9745   -0.6893   21.1973 H   0  0  0  0  0  0  0  0  0  0  0  0
    5.6529    0.7487   22.0767 H   0  0  0  0  0  0  0  0  0  0  0  0
    3.6388    2.0586   21.6675 H   0  0  0  0  0  0  0  0  0  0  0  0
    2.9822    2.6968   19.3330 H   0  0  0  0  0  0  0  0  0  0  0  0
    4.4111    1.9893   17.4360 H   0  0  0  0  0  0  0  0  0  0  0  0
    9.9615   -5.0500   26.2711 H   0  0  0  0  0  0  0  0  0  0  0  0
    8.6935   -6.2597   26.5720 H   0  0  0  0  0  0  0  0  0  0  0  0
    6.2628   -5.5350   26.3330 H   0  0  0  0  0  0  0  0  0  0  0  0
    5.9347   -3.8423   25.9023 H   0  0  0  0  0  0  0  0  0  0  0  0
    9.5597   -5.4275   28.7166 H   0  0  0  0  0  0  0  0  0  0  0  0
    9.2344   -3.7511   28.2636 H   0  0  0  0  0  0  0  0  0  0  0  0
    6.8874   -3.0657   28.0553 H   0  0  0  0  0  0  0  0  0  0  0  0
    5.6495   -4.2893   28.3591 H   0  0  0  0  0  0  0  0  0  0  0  0
   10.4561    1.0772   24.1620 H   0  0  0  0  0  0  0  0  0  0  0  0
   10.8743    1.5008   22.5014 H   0  0  0  0  0  0  0  0  0  0  0  0
    8.0897   -1.6082   21.0890 H   0  0  0  0  0  0  0  0  0  0  0  0
  1  2  2  0  0  0  0
  1  7  1  0  0  0  0
  2  9  1  0  0  0  0
  3  5  2  0  0  0  0
  3 10  1  0  0  0  0
  4  6  1  0  0  0  0
  4 10  2  0  0  0  0
  5 11  1  0  0  0  0
  6 11  2  0  0  0  0
  7 12  2  0  0  0  0
  8  9  2  0  0  0  0
  8 12  1  0  0  0  0
  9 24  1  0  0  0  0
 10 28  1  0  0  0  0
 11 30  1  0  0  0  0
 12 33  1  0  0  0  0
 13 14  2  0  0  0  0
 13 15  1  0  0  0  0
 13 27  1  0  0  0  0
 14 25  1  0  0  0  0
 14 29  1  0  0  0  0
 15 16  2  0  0  0  0
 16 17  1  0  0  0  0
 17 18  2  0  0  0  0
 18 27  1  0  0  0  0
 19 29  1  0  0  0  0
 19 30  1  0  0  0  0
 19 31  2  0  0  0  0
 20 22  1  0  0  0  0
 20 28  1  0  0  0  0
 21 23  1  0  0  0  0
 21 28  1  0  0  0  0
 22 32  1  0  0  0  0
 23 32  1  0  0  0  0
 24 30  1  0  0  0  0
 25 26  2  0  0  0  0
 26 27  1  0  0  0  0
  1 34  1  0  0  0  0
  2 35  1  0  0  0  0
  3 36  1  0  0  0  0
  4 37  1  0  0  0  0
  5 38  1  0  0  0  0
  6 39  1  0  0  0  0
  7 40  1  0  0  0  0
  8 41  1  0  0  0  0
 15 42  1  0  0  0  0
 16 43  1  0  0  0  0
 17 44  1  0  0  0  0
 18 45  1  0  0  0  0
 20 46  1  0  0  0  0
 20 47  1  0  0  0  0
 21 48  1  0  0  0  0
 21 49  1  0  0  0  0
 22 50  1  0  0  0  0
 22 51  1  0  0  0  0
 23 52  1  0  0  0  0
 23 53  1  0  0  0  0
 24 54  1  0  0  0  0
 24 55  1  0  0  0  0
 29 56  1  0  0  0  0
M  END
> <clash_score>
0

> <docking_score>
-9.243865013122559

> <overlap_score>
1.001713752746582

$$$$
BENZO_113_1
  -OEChem-08222022443D

 53 56  0     0  0  0  0  0  0999 V2000
   14.2642   -1.7450   23.4813 C   0  0  0  0  0  0  0  0  0  0  0  0
    4.2460    1.7520   20.8250 C   0  0  0  0  0  0  0  0  0  0  0  0
   14.0779   -0.6681   24.3480 C   0  0  0  0  0  0  0  0  0  0  0  0
   13.2991   -2.0403   22.5184 C   0  0  0  0  0  0  0  0  0  0  0  0
    3.8860    2.1050   19.5250 C   0  0  0  0  0  0  0  0  0  0  0  0
    5.3890    1.0010   21.0690 C   0  0  0  0  0  0  0  0  0  0  0  0
   12.9266    0.1135   24.2518 C   0  0  0  0  0  0  0  0  0  0  0  0
   12.1478   -1.2587   22.4222 C   0  0  0  0  0  0  0  0  0  0  0  0
    4.6610    1.7170   18.4380 C   0  0  0  0  0  0  0  0  0  0  0  0
    9.5890   -2.4950   23.2210 C   0  0  0  0  0  0  0  0  0  0  0  0
    8.2550   -1.0010   24.5520 C   0  0  0  0  0  0  0  0  0  0  0  0
    9.1890   -3.5540   24.0140 C   0  0  0  0  0  0  0  0  0  0  0  0
    7.8700   -2.0610   25.3550 C   0  0  0  0  0  0  0  0  0  0  0  0
    7.5840   -0.2700   18.5160 C   0  0  0  0  0  0  0  0  0  0  0  0
    6.1460    0.6070   19.9750 C   0  0  0  0  0  0  0  0  0  0  0  0
   11.9616   -0.1817   23.2889 C   0  0  0  0  0  0  0  0  0  0  0  0
    5.7970    0.9500   18.6730 C   0  0  0  0  0  0  0  0  0  0  0  0
    9.1280   -1.2090   23.4870 C   0  0  0  0  0  0  0  0  0  0  0  0
    8.3450   -3.3440   25.0980 C   0  0  0  0  0  0  0  0  0  0  0  0
    7.2710   -0.1460   19.8310 C   0  0  0  0  0  0  0  0  0  0  0  0
    9.0430    0.2380   21.4940 C   0  0  0  0  0  0  0  0  0  0  0  0
    8.4654   -5.7550   25.6622 C   0  0  0  0  0  0  0  0  0  0  0  0
    7.1036   -4.1990   27.0668 C   0  0  0  0  0  0  0  0  0  0  0  0
   10.7220    0.6590   23.1850 C   0  0  0  0  0  0  0  0  0  0  0  0
    6.7100    0.3850   17.8100 N   0  0  0  0  0  0  0  0  0  0  0  0
    8.0950   -0.7700   20.8440 N   0  0  0  0  0  0  0  0  0  0  0  0
    9.5820   -0.1080   22.7000 N   0  0  0  0  0  0  0  0  0  0  0  0
    7.9731   -4.4180   25.9279 N   0  0  0  0  0  0  0  0  0  0  0  0
    9.2950    1.3000   20.9480 O   0  0  0  0  0  0  0  0  0  0  0  0
   15.1613   -2.3527   23.5555 H   0  0  0  0  0  0  0  0  0  0  0  0
    3.6208    2.0704   21.6579 H   0  0  0  0  0  0  0  0  0  0  0  0
   14.8297   -0.4373   25.0971 H   0  0  0  0  0  0  0  0  0  0  0  0
   13.4443   -2.8780   21.8427 H   0  0  0  0  0  0  0  0  0  0  0  0
    2.9857    2.6926   19.3615 H   0  0  0  0  0  0  0  0  0  0  0  0
    5.6664    0.7407   22.0807 H   0  0  0  0  0  0  0  0  0  0  0  0
   12.7899    0.9506   24.9315 H   0  0  0  0  0  0  0  0  0  0  0  0
   11.4013   -1.4963   21.6690 H   0  0  0  0  0  0  0  0  0  0  0  0
    4.3794    2.0106   17.4221 H   0  0  0  0  0  0  0  0  0  0  0  0
   10.2682   -2.6746   22.3864 H   0  0  0  0  0  0  0  0  0  0  0  0
    7.8692   -0.0022   24.7600 H   0  0  0  0  0  0  0  0  0  0  0  0
    9.5433   -4.5619   23.7809 H   0  0  0  0  0  0  0  0  0  0  0  0
    7.1923   -1.8829   26.1908 H   0  0  0  0  0  0  0  0  0  0  0  0
    8.4172   -0.8135   18.0384 H   0  0  0  0  0  0  0  0  0  0  0  0
    8.0653   -6.4501   26.4151 H   0  0  0  0  0  0  0  0  0  0  0  0
    8.1405   -6.0730   24.6605 H   0  0  0  0  0  0  0  0  0  0  0  0
    9.5644   -5.7570   25.7090 H   0  0  0  0  0  0  0  0  0  0  0  0
    6.9305   -5.1535   27.5855 H   0  0  0  0  0  0  0  0  0  0  0  0
    7.5776   -3.4868   27.7582 H   0  0  0  0  0  0  0  0  0  0  0  0
    6.1427   -3.7902   26.7211 H   0  0  0  0  0  0  0  0  0  0  0  0
   10.4561    1.0772   24.1620 H   0  0  0  0  0  0  0  0  0  0  0  0
   10.8743    1.5008   22.5014 H   0  0  0  0  0  0  0  0  0  0  0  0
    6.6715    0.4865   16.8044 H   0  0  0  0  0  0  0  0  0  0  0  0
    8.0705   -1.6178   21.0726 H   0  0  0  0  0  0  0  0  0  0  0  0
  1  3  1  0  0  0  0
  1  4  2  0  0  0  0
  2  5  1  0  0  0  0
  2  6  2  0  0  0  0
  3  7  2  0  0  0  0
  4  8  1  0  0  0  0
  5  9  2  0  0  0  0
  6 15  1  0  0  0  0
  7 16  1  0  0  0  0
  8 16  2  0  0  0  0
  9 17  1  0  0  0  0
 10 12  2  0  0  0  0
 10 18  1  0  0  0  0
 11 13  1  0  0  0  0
 11 18  2  0  0  0  0
 12 19  1  0  0  0  0
 13 19  2  0  0  0  0
 14 20  2  0  0  0  0
 14 25  1  0  0  0  0
 15 17  2  0  0  0  0
 15 20  1  0  0  0  0
 16 24  1  0  0  0  0
 17 25  1  0  0  0  0
 18 27  1  0  0  0  0
 19 28  1  0  0  0  0
 20 26  1  0  0  0  0
 21 26  1  0  0  0  0
 21 27  1  0  0  0  0
 21 29  2  0  0  0  0
 22 28  1  0  0  0  0
 23 28  1  0  0  0  0
 24 27  1  0  0  0  0
  1 30  1  0  0  0  0
  2 31  1  0  0  0  0
  3 32  1  0  0  0  0
  4 33  1  0  0  0  0
  5 34  1  0  0  0  0
  6 35  1  0  0  0  0
  7 36  1  0  0  0  0
  8 37  1  0  0  0  0
  9 38  1  0  0  0  0
 10 39  1  0  0  0  0
 11 40  1  0  0  0  0
 12 41  1  0  0  0  0
 13 42  1  0  0  0  0
 14 43  1  0  0  0  0
 22 44  1  0  0  0  0
 22 45  1  0  0  0  0
 22 46  1  0  0  0  0
 23 47  1  0  0  0  0
 23 48  1  0  0  0  0
 23 49  1  0  0  0  0
 24 50  1  0  0  0  0
 24 51  1  0  0  0  0
 25 52  1  0  0  0  0
 26 53  1  0  0  0  0
M  END
> <clash_score>
0

> <docking_score>
-9.04460334777832

> <overlap_score>
0.934489905834198

$$$$
BENZO_111_1
  -OEChem-08222022443D

 56 60  0     0  0  0  0  0  0999 V2000
    9.1890   -3.5540   24.0140 C   0  0  0  0  0  0  0  0  0  0  0  0
    7.8700   -2.0610   25.3550 C   0  0  0  0  0  0  0  0  0  0  0  0
    9.5890   -2.4950   23.2210 C   0  0  0  0  0  0  0  0  0  0  0  0
    8.2550   -1.0010   24.5520 C   0  0  0  0  0  0  0  0  0  0  0  0
   12.7320   -0.4464   24.4370 C   0  0  0  0  0  0  0  0  0  0  0  0
   12.5970   -0.8682   22.2832 C   0  0  0  0  0  0  0  0  0  0  0  0
   11.9616   -0.1817   23.2889 C   0  0  0  0  0  0  0  0  0  0  0  0
    8.3450   -3.3440   25.0980 C   0  0  0  0  0  0  0  0  0  0  0  0
    9.1280   -1.2090   23.4870 C   0  0  0  0  0  0  0  0  0  0  0  0
    6.1460    0.6070   19.9750 C   0  0  0  0  0  0  0  0  0  0  0  0
    7.2710   -0.1460   19.8310 C   0  0  0  0  0  0  0  0  0  0  0  0
    5.3890    1.0010   21.0690 C   0  0  0  0  0  0  0  0  0  0  0  0
    4.2460    1.7520   20.8250 C   0  0  0  0  0  0  0  0  0  0  0  0
    3.8860    2.1050   19.5250 C   0  0  0  0  0  0  0  0  0  0  0  0
    4.6610    1.7170   18.4380 C   0  0  0  0  0  0  0  0  0  0  0  0
    9.0430    0.2380   21.4940 C   0  0  0  0  0  0  0  0  0  0  0  0
    8.9524   -5.2012   26.6600 C   0  0  0  0  0  0  0  0  0  0  0  0
    6.6112   -4.5068   26.4379 C   0  0  0  0  0  0  0  0  0  0  0  0
    8.9037   -4.7845   28.1261 C   0  0  0  0  0  0  0  0  0  0  0  0
    6.6374   -4.1243   27.9184 C   0  0  0  0  0  0  0  0  0  0  0  0
   14.6393   -2.3180   22.2082 C   0  0  0  0  0  0  0  0  0  0  0  0
   10.7220    0.6590   23.1850 C   0  0  0  0  0  0  0  0  0  0  0  0
   13.7770   -1.2393   24.1852 N   0  0  0  0  0  0  0  0  0  0  0  0
    7.5840   -0.2700   18.5160 N   0  0  0  0  0  0  0  0  0  0  0  0
    6.7100    0.3850   17.8100 N   0  0  0  0  0  0  0  0  0  0  0  0
   13.6676   -1.4788   22.8673 N   0  0  0  0  0  0  0  0  0  0  0  0
    5.7970    0.9500   18.6730 N   0  0  0  0  0  0  0  0  0  0  0  0
    7.9775   -4.4014   25.9151 N   0  0  0  0  0  0  0  0  0  0  0  0
    8.0950   -0.7700   20.8440 N   0  0  0  0  0  0  0  0  0  0  0  0
    9.5820   -0.1080   22.7000 N   0  0  0  0  0  0  0  0  0  0  0  0
    9.2950    1.3000   20.9480 O   0  0  0  0  0  0  0  0  0  0  0  0
    7.5729   -4.9391   28.6338 O   0  0  0  0  0  0  0  0  0  0  0  0
    9.5426   -4.5618   23.7797 H   0  0  0  0  0  0  0  0  0  0  0  0
    7.1914   -1.8824   26.1903 H   0  0  0  0  0  0  0  0  0  0  0  0
   10.2669   -2.6745   22.3854 H   0  0  0  0  0  0  0  0  0  0  0  0
    7.8690   -0.0020   24.7587 H   0  0  0  0  0  0  0  0  0  0  0  0
   12.5771   -0.0965   25.4478 H   0  0  0  0  0  0  0  0  0  0  0  0
   12.3832   -0.9726   21.2281 H   0  0  0  0  0  0  0  0  0  0  0  0
    5.6529    0.7487   22.0767 H   0  0  0  0  0  0  0  0  0  0  0  0
    3.6388    2.0586   21.6675 H   0  0  0  0  0  0  0  0  0  0  0  0
    2.9822    2.6968   19.3330 H   0  0  0  0  0  0  0  0  0  0  0  0
    4.4111    1.9893   17.4360 H   0  0  0  0  0  0  0  0  0  0  0  0
    9.9615   -5.0500   26.2711 H   0  0  0  0  0  0  0  0  0  0  0  0
    8.6935   -6.2597   26.5720 H   0  0  0  0  0  0  0  0  0  0  0  0
    6.2628   -5.5350   26.3330 H   0  0  0  0  0  0  0  0  0  0  0  0
    5.9347   -3.8423   25.9023 H   0  0  0  0  0  0  0  0  0  0  0  0
    9.5597   -5.4275   28.7166 H   0  0  0  0  0  0  0  0  0  0  0  0
    9.2344   -3.7511   28.2636 H   0  0  0  0  0  0  0  0  0  0  0  0
    6.8874   -3.0657   28.0553 H   0  0  0  0  0  0  0  0  0  0  0  0
    5.6495   -4.2893   28.3591 H   0  0  0  0  0  0  0  0  0  0  0  0
   15.4522   -1.6787   21.8540 H   0  0  0  0  0  0  0  0  0  0  0  0
   15.0179   -3.0613   22.9154 H   0  0  0  0  0  0  0  0  0  0  0  0
   14.1626   -2.8324   21.3691 H   0  0  0  0  0  0  0  0  0  0  0  0
   10.4561    1.0772   24.1620 H   0  0  0  0  0  0  0  0  0  0  0  0
   10.8743    1.5008   22.5014 H   0  0  0  0  0  0  0  0  0  0  0  0
    8.0897   -1.6082   21.0890 H   0  0  0  0  0  0  0  0  0  0  0  0
  1  3  2  0  0  0  0
  1  8  1  0  0  0  0
  2  4  1  0  0  0  0
  2  8  2  0  0  0  0
  3  9  1  0  0  0  0
  4  9  2  0  0  0  0
  5  7  1  0  0  0  0
  5 23  2  0  0  0  0
  6  7  2  0  0  0  0
  6 26  1  0  0  0  0
  7 22  1  0  0  0  0
  8 28  1  0  0  0  0
  9 30  1  0  0  0  0
 10 11  2  0  0  0  0
 10 12  1  0  0  0  0
 10 27  1  0  0  0  0
 11 24  1  0  0  0  0
 11 29  1  0  0  0  0
 12 13  2  0  0  0  0
 13 14  1  0  0  0  0
 14 15  2  0  0  0  0
 15 27  1  0  0  0  0
 16 29  1  0  0  0  0
 16 30  1  0  0  0  0
 16 31  2  0  0  0  0
 17 19  1  0  0  0  0
 17 28  1  0  0  0  0
 18 20  1  0  0  0  0
 18 28  1  0  0  0  0
 19 32  1  0  0  0  0
 20 32  1  0  0  0  0
 21 26  1  0  0  0  0
 22 30  1  0  0  0  0
 23 26  1  0  0  0  0
 24 25  2  0  0  0  0
 25 27  1  0  0  0  0
  1 33  1  0  0  0  0
  2 34  1  0  0  0  0
  3 35  1  0  0  0  0
  4 36  1  0  0  0  0
  5 37  1  0  0  0  0
  6 38  1  0  0  0  0
 12 39  1  0  0  0  0
 13 40  1  0  0  0  0
 14 41  1  0  0  0  0
 15 42  1  0  0  0  0
 17 43  1  0  0  0  0
 17 44  1  0  0  0  0
 18 45  1  0  0  0  0
 18 46  1  0  0  0  0
 19 47  1  0  0  0  0
 19 48  1  0  0  0  0
 20 49  1  0  0  0  0
 20 50  1  0  0  0  0
 21 51  1  0  0  0  0
 21 52  1  0  0  0  0
 21 53  1  0  0  0  0
 22 54  1  0  0  0  0
 22 55  1  0  0  0  0
 29 56  1  0  0  0  0
M  END
> <clash_score>
0

> <docking_score>
-8.479888916015625

> <overlap_score>
0.9972013235092163

$$$$
BENZO_112_1
  -OEChem-08222022443D

 50 53  0     0  0  0  0  0  0999 V2000
    4.2460    1.7520   20.8250 C   0  0  0  0  0  0  0  0  0  0  0  0
    3.8860    2.1050   19.5250 C   0  0  0  0  0  0  0  0  0  0  0  0
    5.3890    1.0010   21.0690 C   0  0  0  0  0  0  0  0  0  0  0  0
    4.6610    1.7170   18.4380 C   0  0  0  0  0  0  0  0  0  0  0  0
    9.5890   -2.4950   23.2210 C   0  0  0  0  0  0  0  0  0  0  0  0
    8.2550   -1.0010   24.5520 C   0  0  0  0  0  0  0  0  0  0  0  0
    9.1890   -3.5540   24.0140 C   0  0  0  0  0  0  0  0  0  0  0  0
    7.8700   -2.0610   25.3550 C   0  0  0  0  0  0  0  0  0  0  0  0
   12.6785   -0.3936   24.5018 C   0  0  0  0  0  0  0  0  0  0  0  0
    7.5840   -0.2700   18.5160 C   0  0  0  0  0  0  0  0  0  0  0  0
   13.7775   -1.2037   24.3186 C   0  0  0  0  0  0  0  0  0  0  0  0
   12.5401   -0.8378   22.2246 C   0  0  0  0  0  0  0  0  0  0  0  0
    6.1460    0.6070   19.9750 C   0  0  0  0  0  0  0  0  0  0  0  0
   11.9616   -0.1817   23.2889 C   0  0  0  0  0  0  0  0  0  0  0  0
    5.7970    0.9500   18.6730 C   0  0  0  0  0  0  0  0  0  0  0  0
    9.1280   -1.2090   23.4870 C   0  0  0  0  0  0  0  0  0  0  0  0
    8.3450   -3.3440   25.0980 C   0  0  0  0  0  0  0  0  0  0  0  0
    7.2710   -0.1460   19.8310 C   0  0  0  0  0  0  0  0  0  0  0  0
    9.0430    0.2380   21.4940 C   0  0  0  0  0  0  0  0  0  0  0  0
    7.2639   -5.5571   25.3799 C   0  0  0  0  0  0  0  0  0  0  0  0
    8.3059   -4.4054   27.3386 C   0  0  0  0  0  0  0  0  0  0  0  0
   10.7220    0.6590   23.1850 C   0  0  0  0  0  0  0  0  0  0  0  0
    6.7100    0.3850   17.8100 N   0  0  0  0  0  0  0  0  0  0  0  0
    8.0950   -0.7700   20.8440 N   0  0  0  0  0  0  0  0  0  0  0  0
    9.5820   -0.1080   22.7000 N   0  0  0  0  0  0  0  0  0  0  0  0
    7.9731   -4.4180   25.9279 N   0  0  0  0  0  0  0  0  0  0  0  0
    9.2950    1.3000   20.9480 O   0  0  0  0  0  0  0  0  0  0  0  0
   13.9416   -1.7050   22.6894 S   0  0  0  0  0  0  0  0  0  0  0  0
    3.6208    2.0704   21.6579 H   0  0  0  0  0  0  0  0  0  0  0  0
    2.9857    2.6926   19.3615 H   0  0  0  0  0  0  0  0  0  0  0  0
    5.6664    0.7407   22.0807 H   0  0  0  0  0  0  0  0  0  0  0  0
    4.3794    2.0106   17.4221 H   0  0  0  0  0  0  0  0  0  0  0  0
   10.2682   -2.6746   22.3864 H   0  0  0  0  0  0  0  0  0  0  0  0
    7.8692   -0.0022   24.7600 H   0  0  0  0  0  0  0  0  0  0  0  0
    9.5433   -4.5619   23.7809 H   0  0  0  0  0  0  0  0  0  0  0  0
    7.1923   -1.8829   26.1908 H   0  0  0  0  0  0  0  0  0  0  0  0
   12.4058    0.0253   25.4623 H   0  0  0  0  0  0  0  0  0  0  0  0
    8.4172   -0.8135   18.0384 H   0  0  0  0  0  0  0  0  0  0  0  0
   14.4923   -1.5245   25.0631 H   0  0  0  0  0  0  0  0  0  0  0  0
   12.2108   -0.8511   21.1948 H   0  0  0  0  0  0  0  0  0  0  0  0
    7.0637   -6.2847   26.1802 H   0  0  0  0  0  0  0  0  0  0  0  0
    6.3117   -5.2208   24.9437 H   0  0  0  0  0  0  0  0  0  0  0  0
    7.8779   -6.0303   24.5995 H   0  0  0  0  0  0  0  0  0  0  0  0
    7.9320   -5.3250   27.8123 H   0  0  0  0  0  0  0  0  0  0  0  0
    9.3981   -4.3499   27.4570 H   0  0  0  0  0  0  0  0  0  0  0  0
    7.8403   -3.5311   27.8172 H   0  0  0  0  0  0  0  0  0  0  0  0
   10.4561    1.0772   24.1620 H   0  0  0  0  0  0  0  0  0  0  0  0
   10.8743    1.5008   22.5014 H   0  0  0  0  0  0  0  0  0  0  0  0
    6.6715    0.4865   16.8044 H   0  0  0  0  0  0  0  0  0  0  0  0
    8.0705   -1.6178   21.0726 H   0  0  0  0  0  0  0  0  0  0  0  0
  1  2  1  0  0  0  0
  1  3  2  0  0  0  0
  2  4  2  0  0  0  0
  3 13  1  0  0  0  0
  4 15  1  0  0  0  0
  5  7  2  0  0  0  0
  5 16  1  0  0  0  0
  6  8  1  0  0  0  0
  6 16  2  0  0  0  0
  7 17  1  0  0  0  0
  8 17  2  0  0  0  0
  9 11  2  0  0  0  0
  9 14  1  0  0  0  0
 10 18  2  0  0  0  0
 10 23  1  0  0  0  0
 11 28  1  0  0  0  0
 12 14  2  0  0  0  0
 12 28  1  0  0  0  0
 13 15  2  0  0  0  0
 13 18  1  0  0  0  0
 14 22  1  0  0  0  0
 15 23  1  0  0  0  0
 16 25  1  0  0  0  0
 17 26  1  0  0  0  0
 18 24  1  0  0  0  0
 19 24  1  0  0  0  0
 19 25  1  0  0  0  0
 19 27  2  0  0  0  0
 20 26  1  0  0  0  0
 21 26  1  0  0  0  0
 22 25  1  0  0  0  0
  1 29  1  0  0  0  0
  2 30  1  0  0  0  0
  3 31  1  0  0  0  0
  4 32  1  0  0  0  0
  5 33  1  0  0  0  0
  6 34  1  0  0  0  0
  7 35  1  0  0  0  0
  8 36  1  0  0  0  0
  9 37  1  0  0  0  0
 10 38  1  0  0  0  0
 11 39  1  0  0  0  0
 12 40  1  0  0  0  0
 20 41  1  0  0  0  0
 20 42  1  0  0  0  0
 20 43  1  0  0  0  0
 21 44  1  0  0  0  0
 21 45  1  0  0  0  0
 21 46  1  0  0  0  0
 22 47  1  0  0  0  0
 22 48  1  0  0  0  0
 23 49  1  0  0  0  0
 24 50  1  0  0  0  0
M  END
> <clash_score>
0

> <docking_score>
-8.617196083068848

> <overlap_score>
0.9331517815589905

$$$$
BENZO_115_1
  -OEChem-08222022443D

 53 56  0     0  0  0  0  0  0999 V2000
    4.2460    1.7520   20.8250 C   0  0  0  0  0  0  0  0  0  0  0  0
    3.8860    2.1050   19.5250 C   0  0  0  0  0  0  0  0  0  0  0  0
    5.3890    1.0010   21.0690 C   0  0  0  0  0  0  0  0  0  0  0  0
    4.6610    1.7170   18.4380 C   0  0  0  0  0  0  0  0  0  0  0  0
    9.5890   -2.4950   23.2210 C   0  0  0  0  0  0  0  0  0  0  0  0
    8.2550   -1.0010   24.5520 C   0  0  0  0  0  0  0  0  0  0  0  0
    9.1890   -3.5540   24.0140 C   0  0  0  0  0  0  0  0  0  0  0  0
    7.8700   -2.0610   25.3550 C   0  0  0  0  0  0  0  0  0  0  0  0
   12.7320   -0.4464   24.4370 C   0  0  0  0  0  0  0  0  0  0  0  0
   12.5970   -0.8682   22.2832 C   0  0  0  0  0  0  0  0  0  0  0  0
    7.5840   -0.2700   18.5160 C   0  0  0  0  0  0  0  0  0  0  0  0
    6.1460    0.6070   19.9750 C   0  0  0  0  0  0  0  0  0  0  0  0
   11.9616   -0.1817   23.2889 C   0  0  0  0  0  0  0  0  0  0  0  0
    5.7970    0.9500   18.6730 C   0  0  0  0  0  0  0  0  0  0  0  0
    9.1280   -1.2090   23.4870 C   0  0  0  0  0  0  0  0  0  0  0  0
    8.3450   -3.3440   25.0980 C   0  0  0  0  0  0  0  0  0  0  0  0
    7.2710   -0.1460   19.8310 C   0  0  0  0  0  0  0  0  0  0  0  0
    9.0430    0.2380   21.4940 C   0  0  0  0  0  0  0  0  0  0  0  0
   14.6393   -2.3180   22.2082 C   0  0  0  0  0  0  0  0  0  0  0  0
    7.2639   -5.5571   25.3799 C   0  0  0  0  0  0  0  0  0  0  0  0
    8.3059   -4.4054   27.3386 C   0  0  0  0  0  0  0  0  0  0  0  0
   10.7220    0.6590   23.1850 C   0  0  0  0  0  0  0  0  0  0  0  0
   13.7770   -1.2393   24.1852 N   0  0  0  0  0  0  0  0  0  0  0  0
    6.7100    0.3850   17.8100 N   0  0  0  0  0  0  0  0  0  0  0  0
   13.6676   -1.4788   22.8673 N   0  0  0  0  0  0  0  0  0  0  0  0
    8.0950   -0.7700   20.8440 N   0  0  0  0  0  0  0  0  0  0  0  0
    9.5820   -0.1080   22.7000 N   0  0  0  0  0  0  0  0  0  0  0  0
    7.9731   -4.4180   25.9279 N   0  0  0  0  0  0  0  0  0  0  0  0
    9.2950    1.3000   20.9480 O   0  0  0  0  0  0  0  0  0  0  0  0
    3.6208    2.0704   21.6579 H   0  0  0  0  0  0  0  0  0  0  0  0
    2.9857    2.6926   19.3615 H   0  0  0  0  0  0  0  0  0  0  0  0
    5.6664    0.7407   22.0807 H   0  0  0  0  0  0  0  0  0  0  0  0
    4.3794    2.0106   17.4221 H   0  0  0  0  0  0  0  0  0  0  0  0
   10.2682   -2.6746   22.3864 H   0  0  0  0  0  0  0  0  0  0  0  0
    7.8692   -0.0022   24.7600 H   0  0  0  0  0  0  0  0  0  0  0  0
    9.5433   -4.5619   23.7809 H   0  0  0  0  0  0  0  0  0  0  0  0
    7.1923   -1.8829   26.1908 H   0  0  0  0  0  0  0  0  0  0  0  0
   12.5771   -0.0965   25.4478 H   0  0  0  0  0  0  0  0  0  0  0  0
   12.3832   -0.9726   21.2281 H   0  0  0  0  0  0  0  0  0  0  0  0
    8.4172   -0.8135   18.0384 H   0  0  0  0  0  0  0  0  0  0  0  0
   15.4522   -1.6787   21.8540 H   0  0  0  0  0  0  0  0  0  0  0  0
   15.0179   -3.0612   22.9154 H   0  0  0  0  0  0  0  0  0  0  0  0
   14.1626   -2.8324   21.3691 H   0  0  0  0  0  0  0  0  0  0  0  0
    7.0637   -6.2847   26.1802 H   0  0  0  0  0  0  0  0  0  0  0  0
    6.3117   -5.2208   24.9437 H   0  0  0  0  0  0  0  0  0  0  0  0
    7.8779   -6.0303   24.5995 H   0  0  0  0  0  0  0  0  0  0  0  0
    7.9320   -5.3250   27.8123 H   0  0  0  0  0  0  0  0  0  0  0  0
    9.3981   -4.3499   27.4570 H   0  0  0  0  0  0  0  0  0  0  0  0
    7.8403   -3.5311   27.8172 H   0  0  0  0  0  0  0  0  0  0  0  0
   10.4561    1.0772   24.1620 H   0  0  0  0  0  0  0  0  0  0  0  0
   10.8743    1.5008   22.5014 H   0  0  0  0  0  0  0  0  0  0  0  0
    6.6715    0.4865   16.8044 H   0  0  0  0  0  0  0  0  0  0  0  0
    8.0705   -1.6178   21.0726 H   0  0  0  0  0  0  0  0  0  0  0  0
  1  2  1  0  0  0  0
  1  3  2  0  0  0  0
  2  4  2  0  0  0  0
  3 12  1  0  0  0  0
  4 14  1  0  0  0  0
  5  7  2  0  0  0  0
  5 15  1  0  0  0  0
  6  8  1  0  0  0  0
  6 15  2  0  0  0  0
  7 16  1  0  0  0  0
  8 16  2  0  0  0  0
  9 13  1  0  0  0  0
  9 23  2  0  0  0  0
 10 13  2  0  0  0  0
 10 25  1  0  0  0  0
 11 17  2  0  0  0  0
 11 24  1  0  0  0  0
 12 14  2  0  0  0  0
 12 17  1  0  0  0  0
 13 22  1  0  0  0  0
 14 24  1  0  0  0  0
 15 27  1  0  0  0  0
 16 28  1  0  0  0  0
 17 26  1  0  0  0  0
 18 26  1  0  0  0  0
 18 27  1  0  0  0  0
 18 29  2  0  0  0  0
 19 25  1  0  0  0  0
 20 28  1  0  0  0  0
 21 28  1  0  0  0  0
 22 27  1  0  0  0  0
 23 25  1  0  0  0  0
  1 30  1  0  0  0  0
  2 31  1  0  0  0  0
  3 32  1  0  0  0  0
  4 33  1  0  0  0  0
  5 34  1  0  0  0  0
  6 35  1  0  0  0  0
  7 36  1  0  0  0  0
  8 37  1  0  0  0  0
  9 38  1  0  0  0  0
 10 39  1  0  0  0  0
 11 40  1  0  0  0  0
 19 41  1  0  0  0  0
 19 42  1  0  0  0  0
 19 43  1  0  0  0  0
 20 44  1  0  0  0  0
 20 45  1  0  0  0  0
 20 46  1  0  0  0  0
 21 47  1  0  0  0  0
 21 48  1  0  0  0  0
 21 49  1  0  0  0  0
 22 50  1  0  0  0  0
 22 51  1  0  0  0  0
 24 52  1  0  0  0  0
 26 53  1  0  0  0  0
M  END
> <clash_score>
0

> <docking_score>
-7.366410255432129

> <overlap_score>
0.9499816298484802

$$$$
BENZO_114_1
  -OEChem-08222022443D

 53 56  0     0  0  0  0  0  0999 V2000
    4.2460    1.7520   20.8250 C   0  0  0  0  0  0  0  0  0  0  0  0
    3.8860    2.1050   19.5250 C   0  0  0  0  0  0  0  0  0  0  0  0
   13.7501   -1.1157   24.6176 C   0  0  0  0  0  0  0  0  0  0  0  0
    5.3890    1.0010   21.0690 C   0  0  0  0  0  0  0  0  0  0  0  0
   12.5991   -0.3339   24.5202 C   0  0  0  0  0  0  0  0  0  0  0  0
    4.6610    1.7170   18.4380 C   0  0  0  0  0  0  0  0  0  0  0  0
    9.5890   -2.4950   23.2210 C   0  0  0  0  0  0  0  0  0  0  0  0
    8.2550   -1.0010   24.5520 C   0  0  0  0  0  0  0  0  0  0  0  0
    9.1890   -3.5540   24.0140 C   0  0  0  0  0  0  0  0  0  0  0  0
    7.8700   -2.0610   25.3550 C   0  0  0  0  0  0  0  0  0  0  0  0
   14.2636   -1.7454   23.4838 C   0  0  0  0  0  0  0  0  0  0  0  0
   12.4750   -0.8115   22.1551 C   0  0  0  0  0  0  0  0  0  0  0  0
    7.5840   -0.2700   18.5160 C   0  0  0  0  0  0  0  0  0  0  0  0
    6.1460    0.6070   19.9750 C   0  0  0  0  0  0  0  0  0  0  0  0
   11.9616   -0.1817   23.2889 C   0  0  0  0  0  0  0  0  0  0  0  0
    5.7970    0.9500   18.6730 C   0  0  0  0  0  0  0  0  0  0  0  0
    9.1280   -1.2090   23.4870 C   0  0  0  0  0  0  0  0  0  0  0  0
    8.3450   -3.3440   25.0980 C   0  0  0  0  0  0  0  0  0  0  0  0
    7.2710   -0.1460   19.8310 C   0  0  0  0  0  0  0  0  0  0  0  0
   13.6261   -1.5933   22.2526 C   0  0  0  0  0  0  0  0  0  0  0  0
    9.0430    0.2380   21.4940 C   0  0  0  0  0  0  0  0  0  0  0  0
    7.2639   -5.5571   25.3799 C   0  0  0  0  0  0  0  0  0  0  0  0
    8.3059   -4.4054   27.3386 C   0  0  0  0  0  0  0  0  0  0  0  0
   10.7220    0.6590   23.1850 C   0  0  0  0  0  0  0  0  0  0  0  0
    6.7100    0.3850   17.8100 N   0  0  0  0  0  0  0  0  0  0  0  0
    8.0950   -0.7700   20.8440 N   0  0  0  0  0  0  0  0  0  0  0  0
    9.5820   -0.1080   22.7000 N   0  0  0  0  0  0  0  0  0  0  0  0
    7.9731   -4.4180   25.9279 N   0  0  0  0  0  0  0  0  0  0  0  0
    9.2950    1.3000   20.9480 O   0  0  0  0  0  0  0  0  0  0  0  0
   14.2594   -2.3714   20.8543 Cl  0  0  0  0  0  0  0  0  0  0  0  0
    3.6208    2.0704   21.6579 H   0  0  0  0  0  0  0  0  0  0  0  0
    2.9857    2.6926   19.3615 H   0  0  0  0  0  0  0  0  0  0  0  0
   14.2462   -1.2340   25.5766 H   0  0  0  0  0  0  0  0  0  0  0  0
    5.6664    0.7407   22.0807 H   0  0  0  0  0  0  0  0  0  0  0  0
   12.2060    0.1530   25.4088 H   0  0  0  0  0  0  0  0  0  0  0  0
    4.3794    2.0106   17.4221 H   0  0  0  0  0  0  0  0  0  0  0  0
   10.2682   -2.6746   22.3864 H   0  0  0  0  0  0  0  0  0  0  0  0
    7.8692   -0.0022   24.7600 H   0  0  0  0  0  0  0  0  0  0  0  0
    9.5433   -4.5619   23.7809 H   0  0  0  0  0  0  0  0  0  0  0  0
    7.1923   -1.8829   26.1908 H   0  0  0  0  0  0  0  0  0  0  0  0
   15.1613   -2.3520   23.5747 H   0  0  0  0  0  0  0  0  0  0  0  0
   11.9745   -0.6893   21.1973 H   0  0  0  0  0  0  0  0  0  0  0  0
    8.4172   -0.8135   18.0384 H   0  0  0  0  0  0  0  0  0  0  0  0
    7.0637   -6.2847   26.1802 H   0  0  0  0  0  0  0  0  0  0  0  0
    6.3117   -5.2208   24.9437 H   0  0  0  0  0  0  0  0  0  0  0  0
    7.8779   -6.0303   24.5995 H   0  0  0  0  0  0  0  0  0  0  0  0
    7.9320   -5.3250   27.8123 H   0  0  0  0  0  0  0  0  0  0  0  0
    9.3981   -4.3499   27.4570 H   0  0  0  0  0  0  0  0  0  0  0  0
    7.8403   -3.5311   27.8172 H   0  0  0  0  0  0  0  0  0  0  0  0
   10.4561    1.0772   24.1620 H   0  0  0  0  0  0  0  0  0  0  0  0
   10.8743    1.5008   22.5014 H   0  0  0  0  0  0  0  0  0  0  0  0
    6.6715    0.4865   16.8044 H   0  0  0  0  0  0  0  0  0  0  0  0
    8.0705   -1.6178   21.0726 H   0  0  0  0  0  0  0  0  0  0  0  0
  1  2  1  0  0  0  0
  1  4  2  0  0  0  0
  2  6  2  0  0  0  0
  3  5  2  0  0  0  0
  3 11  1  0  0  0  0
  4 14  1  0  0  0  0
  5 15  1  0  0  0  0
  6 16  1  0  0  0  0
  7  9  2  0  0  0  0
  7 17  1  0  0  0  0
  8 10  1  0  0  0  0
  8 17  2  0  0  0  0
  9 18  1  0  0  0  0
 10 18  2  0  0  0  0
 11 20  2  0  0  0  0
 12 15  2  0  0  0  0
 12 20  1  0  0  0  0
 13 19  2  0  0  0  0
 13 25  1  0  0  0  0
 14 16  2  0  0  0  0
 14 19  1  0  0  0  0
 15 24  1  0  0  0  0
 16 25  1  0  0  0  0
 17 27  1  0  0  0  0
 18 28  1  0  0  0  0
 19 26  1  0  0  0  0
 20 30  1  0  0  0  0
 21 26  1  0  0  0  0
 21 27  1  0  0  0  0
 21 29  2  0  0  0  0
 22 28  1  0  0  0  0
 23 28  1  0  0  0  0
 24 27  1  0  0  0  0
  1 31  1  0  0  0  0
  2 32  1  0  0  0  0
  3 33  1  0  0  0  0
  4 34  1  0  0  0  0
  5 35  1  0  0  0  0
  6 36  1  0  0  0  0
  7 37  1  0  0  0  0
  8 38  1  0  0  0  0
  9 39  1  0  0  0  0
 10 40  1  0  0  0  0
 11 41  1  0  0  0  0
 12 42  1  0  0  0  0
 13 43  1  0  0  0  0
 22 44  1  0  0  0  0
 22 45  1  0  0  0  0
 22 46  1  0  0  0  0
 23 47  1  0  0  0  0
 23 48  1  0  0  0  0
 23 49  1  0  0  0  0
 24 50  1  0  0  0  0
 24 51  1  0  0  0  0
 25 52  1  0  0  0  0
 26 53  1  0  0  0  0
M  END
> <clash_score>
0

> <docking_score>
-8.130388259887695

> <overlap_score>
0.9545656442642212

$$$$
BENZO_117_1
  -OEChem-08222022443D

 55 58  0     0  0  0  0  0  0999 V2000
   14.2642   -1.7450   23.4813 C   0  0  0  0  0  0  0  0  0  0  0  0
    4.2460    1.7520   20.8250 C   0  0  0  0  0  0  0  0  0  0  0  0
   14.0779   -0.6681   24.3480 C   0  0  0  0  0  0  0  0  0  0  0  0
   13.2991   -2.0403   22.5184 C   0  0  0  0  0  0  0  0  0  0  0  0
    3.8860    2.1050   19.5250 C   0  0  0  0  0  0  0  0  0  0  0  0
    5.3890    1.0010   21.0690 C   0  0  0  0  0  0  0  0  0  0  0  0
   12.9266    0.1135   24.2518 C   0  0  0  0  0  0  0  0  0  0  0  0
   12.1478   -1.2587   22.4222 C   0  0  0  0  0  0  0  0  0  0  0  0
    4.6610    1.7170   18.4380 C   0  0  0  0  0  0  0  0  0  0  0  0
    9.1890   -3.5540   24.0140 C   0  0  0  0  0  0  0  0  0  0  0  0
    7.8700   -2.0610   25.3550 C   0  0  0  0  0  0  0  0  0  0  0  0
    9.5890   -2.4950   23.2210 C   0  0  0  0  0  0  0  0  0  0  0  0
    8.2550   -1.0010   24.5520 C   0  0  0  0  0  0  0  0  0  0  0  0
    7.5840   -0.2700   18.5160 C   0  0  0  0  0  0  0  0  0  0  0  0
    6.1460    0.6070   19.9750 C   0  0  0  0  0  0  0  0  0  0  0  0
   11.9616   -0.1817   23.2889 C   0  0  0  0  0  0  0  0  0  0  0  0
    5.7970    0.9500   18.6730 C   0  0  0  0  0  0  0  0  0  0  0  0
    8.3450   -3.3440   25.0980 C   0  0  0  0  0  0  0  0  0  0  0  0
    9.1280   -1.2090   23.4870 C   0  0  0  0  0  0  0  0  0  0  0  0
    7.2710   -0.1460   19.8310 C   0  0  0  0  0  0  0  0  0  0  0  0
    7.1409   -4.3822   27.0475 C   0  0  0  0  0  0  0  0  0  0  0  0
    9.0430    0.2380   21.4940 C   0  0  0  0  0  0  0  0  0  0  0  0
    8.0776   -6.0688   28.6858 C   0  0  0  0  0  0  0  0  0  0  0  0
   10.7220    0.6590   23.1850 C   0  0  0  0  0  0  0  0  0  0  0  0
    7.0014   -5.7689   27.6577 C   0  0  0  0  0  0  0  0  0  0  0  0
    6.7100    0.3850   17.8100 N   0  0  0  0  0  0  0  0  0  0  0  0
    7.9771   -4.4058   25.9196 N   0  0  0  0  0  0  0  0  0  0  0  0
    8.0950   -0.7700   20.8440 N   0  0  0  0  0  0  0  0  0  0  0  0
    9.5820   -0.1080   22.7000 N   0  0  0  0  0  0  0  0  0  0  0  0
    6.5730   -3.4033   27.5206 O   0  0  0  0  0  0  0  0  0  0  0  0
    9.2950    1.3000   20.9480 O   0  0  0  0  0  0  0  0  0  0  0  0
   15.1613   -2.3527   23.5555 H   0  0  0  0  0  0  0  0  0  0  0  0
    3.6208    2.0704   21.6579 H   0  0  0  0  0  0  0  0  0  0  0  0
   14.8297   -0.4373   25.0971 H   0  0  0  0  0  0  0  0  0  0  0  0
   13.4443   -2.8780   21.8427 H   0  0  0  0  0  0  0  0  0  0  0  0
    2.9857    2.6926   19.3615 H   0  0  0  0  0  0  0  0  0  0  0  0
    5.6664    0.7407   22.0807 H   0  0  0  0  0  0  0  0  0  0  0  0
   12.7899    0.9506   24.9315 H   0  0  0  0  0  0  0  0  0  0  0  0
   11.4013   -1.4963   21.6690 H   0  0  0  0  0  0  0  0  0  0  0  0
    4.3794    2.0106   17.4221 H   0  0  0  0  0  0  0  0  0  0  0  0
    9.5436   -4.5614   23.7799 H   0  0  0  0  0  0  0  0  0  0  0  0
    7.1918   -1.8823   26.1906 H   0  0  0  0  0  0  0  0  0  0  0  0
   10.2676   -2.6754   22.3861 H   0  0  0  0  0  0  0  0  0  0  0  0
    7.8686   -0.0026   24.7598 H   0  0  0  0  0  0  0  0  0  0  0  0
    8.4172   -0.8135   18.0384 H   0  0  0  0  0  0  0  0  0  0  0  0
    9.0759   -6.0014   28.2411 H   0  0  0  0  0  0  0  0  0  0  0  0
    7.9498   -7.0786   29.0878 H   0  0  0  0  0  0  0  0  0  0  0  0
    8.0330   -5.3605   29.5196 H   0  0  0  0  0  0  0  0  0  0  0  0
   10.4561    1.0772   24.1620 H   0  0  0  0  0  0  0  0  0  0  0  0
   10.8743    1.5008   22.5014 H   0  0  0  0  0  0  0  0  0  0  0  0
    6.0147   -5.8435   28.1292 H   0  0  0  0  0  0  0  0  0  0  0  0
    7.0494   -6.5099   26.8514 H   0  0  0  0  0  0  0  0  0  0  0  0
    6.6715    0.4865   16.8044 H   0  0  0  0  0  0  0  0  0  0  0  0
    8.3622   -5.3253   25.6744 H   0  0  0  0  0  0  0  0  0  0  0  0
    8.0705   -1.6178   21.0726 H   0  0  0  0  0  0  0  0  0  0  0  0
  1  3  1  0  0  0  0
  1  4  2  0  0  0  0
  2  5  1  0  0  0  0
  2  6  2  0  0  0  0
  3  7  2  0  0  0  0
  4  8  1  0  0  0  0
  5  9  2  0  0  0  0
  6 15  1  0  0  0  0
  7 16  1  0  0  0  0
  8 16  2  0  0  0  0
  9 17  1  0  0  0  0
 10 12  2  0  0  0  0
 10 18  1  0  0  0  0
 11 13  1  0  0  0  0
 11 18  2  0  0  0  0
 12 19  1  0  0  0  0
 13 19  2  0  0  0  0
 14 20  2  0  0  0  0
 14 26  1  0  0  0  0
 15 17  2  0  0  0  0
 15 20  1  0  0  0  0
 16 24  1  0  0  0  0
 17 26  1  0  0  0  0
 18 27  1  0  0  0  0
 19 29  1  0  0  0  0
 20 28  1  0  0  0  0
 21 25  1  0  0  0  0
 21 27  1  0  0  0  0
 21 30  2  0  0  0  0
 22 28  1  0  0  0  0
 22 29  1  0  0  0  0
 22 31  2  0  0  0  0
 23 25  1  0  0  0  0
 24 29  1  0  0  0  0
  1 32  1  0  0  0  0
  2 33  1  0  0  0  0
  3 34  1  0  0  0  0
  4 35  1  0  0  0  0
  5 36  1  0  0  0  0
  6 37  1  0  0  0  0
  7 38  1  0  0  0  0
  8 39  1  0  0  0  0
  9 40  1  0  0  0  0
 10 41  1  0  0  0  0
 11 42  1  0  0  0  0
 12 43  1  0  0  0  0
 13 44  1  0  0  0  0
 14 45  1  0  0  0  0
 23 46  1  0  0  0  0
 23 47  1  0  0  0  0
 23 48  1  0  0  0  0
 24 49  1  0  0  0  0
 24 50  1  0  0  0  0
 25 51  1  0  0  0  0
 25 52  1  0  0  0  0
 26 53  1  0  0  0  0
 27 54  1  0  0  0  0
 28 55  1  0  0  0  0
M  END
> <clash_score>
0

> <docking_score>
-8.605202674865723

> <overlap_score>
0.9712989330291748

$$$$
BENZO_116_1
  -OEChem-08222022443D

 52 55  0     0  0  0  0  0  0999 V2000
    4.2460    1.7520   20.8250 C   0  0  0  0  0  0  0  0  0  0  0  0
    3.8860    2.1050   19.5250 C   0  0  0  0  0  0  0  0  0  0  0  0
    5.3890    1.0010   21.0690 C   0  0  0  0  0  0  0  0  0  0  0  0
    4.6610    1.7170   18.4380 C   0  0  0  0  0  0  0  0  0  0  0  0
    9.1890   -3.5540   24.0140 C   0  0  0  0  0  0  0  0  0  0  0  0
    7.8700   -2.0610   25.3550 C   0  0  0  0  0  0  0  0  0  0  0  0
    9.5890   -2.4950   23.2210 C   0  0  0  0  0  0  0  0  0  0  0  0
    8.2550   -1.0010   24.5520 C   0  0  0  0  0  0  0  0  0  0  0  0
   12.6785   -0.3936   24.5018 C   0  0  0  0  0  0  0  0  0  0  0  0
    7.5840   -0.2700   18.5160 C   0  0  0  0  0  0  0  0  0  0  0  0
   13.7775   -1.2037   24.3186 C   0  0  0  0  0  0  0  0  0  0  0  0
   12.5401   -0.8378   22.2246 C   0  0  0  0  0  0  0  0  0  0  0  0
    6.1460    0.6070   19.9750 C   0  0  0  0  0  0  0  0  0  0  0  0
   11.9616   -0.1817   23.2889 C   0  0  0  0  0  0  0  0  0  0  0  0
    5.7970    0.9500   18.6730 C   0  0  0  0  0  0  0  0  0  0  0  0
    8.3450   -3.3440   25.0980 C   0  0  0  0  0  0  0  0  0  0  0  0
    9.1280   -1.2090   23.4870 C   0  0  0  0  0  0  0  0  0  0  0  0
    7.2710   -0.1460   19.8310 C   0  0  0  0  0  0  0  0  0  0  0  0
    8.2013   -4.5560   27.2978 C   0  0  0  0  0  0  0  0  0  0  0  0
    9.0430    0.2380   21.4940 C   0  0  0  0  0  0  0  0  0  0  0  0
    7.8868   -6.0872   29.2883 C   0  0  0  0  0  0  0  0  0  0  0  0
   10.7220    0.6590   23.1850 C   0  0  0  0  0  0  0  0  0  0  0  0
    7.6336   -5.8726   27.8069 C   0  0  0  0  0  0  0  0  0  0  0  0
    6.7100    0.3850   17.8100 N   0  0  0  0  0  0  0  0  0  0  0  0
    7.9771   -4.4058   25.9196 N   0  0  0  0  0  0  0  0  0  0  0  0
    8.0950   -0.7700   20.8440 N   0  0  0  0  0  0  0  0  0  0  0  0
    9.5820   -0.1080   22.7000 N   0  0  0  0  0  0  0  0  0  0  0  0
    8.7721   -3.7635   28.0398 O   0  0  0  0  0  0  0  0  0  0  0  0
    9.2950    1.3000   20.9480 O   0  0  0  0  0  0  0  0  0  0  0  0
   13.9416   -1.7050   22.6894 S   0  0  0  0  0  0  0  0  0  0  0  0
    3.6208    2.0704   21.6579 H   0  0  0  0  0  0  0  0  0  0  0  0
    2.9857    2.6926   19.3615 H   0  0  0  0  0  0  0  0  0  0  0  0
    5.6664    0.7407   22.0807 H   0  0  0  0  0  0  0  0  0  0  0  0
    4.3794    2.0106   17.4221 H   0  0  0  0  0  0  0  0  0  0  0  0
    9.5436   -4.5614   23.7799 H   0  0  0  0  0  0  0  0  0  0  0  0
    7.1918   -1.8823   26.1906 H   0  0  0  0  0  0  0  0  0  0  0  0
   10.2676   -2.6754   22.3861 H   0  0  0  0  0  0  0  0  0  0  0  0
    7.8686   -0.0026   24.7598 H   0  0  0  0  0  0  0  0  0  0  0  0
   12.4058    0.0253   25.4623 H   0  0  0  0  0  0  0  0  0  0  0  0
    8.4172   -0.8135   18.0384 H   0  0  0  0  0  0  0  0  0  0  0  0
   14.4923   -1.5245   25.0631 H   0  0  0  0  0  0  0  0  0  0  0  0
   12.2108   -0.8511   21.1948 H   0  0  0  0  0  0  0  0  0  0  0  0
    8.9593   -6.0816   29.5088 H   0  0  0  0  0  0  0  0  0  0  0  0
    7.4767   -7.0496   29.6095 H   0  0  0  0  0  0  0  0  0  0  0  0
    7.4172   -5.2988   29.8857 H   0  0  0  0  0  0  0  0  0  0  0  0
   10.4561    1.0772   24.1620 H   0  0  0  0  0  0  0  0  0  0  0  0
   10.8743    1.5008   22.5014 H   0  0  0  0  0  0  0  0  0  0  0  0
    6.5544   -5.8828   27.6154 H   0  0  0  0  0  0  0  0  0  0  0  0
    8.0875   -6.6908   27.2360 H   0  0  0  0  0  0  0  0  0  0  0  0
    6.6715    0.4865   16.8044 H   0  0  0  0  0  0  0  0  0  0  0  0
    7.4775   -5.1797   25.4664 H   0  0  0  0  0  0  0  0  0  0  0  0
    8.0705   -1.6178   21.0726 H   0  0  0  0  0  0  0  0  0  0  0  0
  1  2  1  0  0  0  0
  1  3  2  0  0  0  0
  2  4  2  0  0  0  0
  3 13  1  0  0  0  0
  4 15  1  0  0  0  0
  5  7  2  0  0  0  0
  5 16  1  0  0  0  0
  6  8  1  0  0  0  0
  6 16  2  0  0  0  0
  7 17  1  0  0  0  0
  8 17  2  0  0  0  0
  9 11  2  0  0  0  0
  9 14  1  0  0  0  0
 10 18  2  0  0  0  0
 10 24  1  0  0  0  0
 11 30  1  0  0  0  0
 12 14  2  0  0  0  0
 12 30  1  0  0  0  0
 13 15  2  0  0  0  0
 13 18  1  0  0  0  0
 14 22  1  0  0  0  0
 15 24  1  0  0  0  0
 16 25  1  0  0  0  0
 17 27  1  0  0  0  0
 18 26  1  0  0  0  0
 19 23  1  0  0  0  0
 19 25  1  0  0  0  0
 19 28  2  0  0  0  0
 20 26  1  0  0  0  0
 20 27  1  0  0  0  0
 20 29  2  0  0  0  0
 21 23  1  0  0  0  0
 22 27  1  0  0  0  0
  1 31  1  0  0  0  0
  2 32  1  0  0  0  0
  3 33  1  0  0  0  0
  4 34  1  0  0  0  0
  5 35  1  0  0  0  0
  6 36  1  0  0  0  0
  7 37  1  0  0  0  0
  8 38  1  0  0  0  0
  9 39  1  0  0  0  0
 10 40  1  0  0  0  0
 11 41  1  0  0  0  0
 12 42  1  0  0  0  0
 21 43  1  0  0  0  0
 21 44  1  0  0  0  0
 21 45  1  0  0  0  0
 22 46  1  0  0  0  0
 22 47  1  0  0  0  0
 23 48  1  0  0  0  0
 23 49  1  0  0  0  0
 24 50  1  0  0  0  0
 25 51  1  0  0  0  0
 26 52  1  0  0  0  0
M  END
> <clash_score>
0

> <docking_score>
-8.896661758422852

> <overlap_score>
0.9895419478416443

$$$$
BENZO_121_1
  -OEChem-08222022443D

 60 64  0     0  0  0  0  0  0999 V2000
   14.2642   -1.7450   23.4813 C   0  0  0  0  0  0  0  0  0  0  0  0
    4.2460    1.7520   20.8250 C   0  0  0  0  0  0  0  0  0  0  0  0
   14.0779   -0.6681   24.3480 C   0  0  0  0  0  0  0  0  0  0  0  0
   13.2991   -2.0403   22.5184 C   0  0  0  0  0  0  0  0  0  0  0  0
    3.8860    2.1050   19.5250 C   0  0  0  0  0  0  0  0  0  0  0  0
    5.3890    1.0010   21.0690 C   0  0  0  0  0  0  0  0  0  0  0  0
   12.9266    0.1135   24.2518 C   0  0  0  0  0  0  0  0  0  0  0  0
   12.1478   -1.2587   22.4222 C   0  0  0  0  0  0  0  0  0  0  0  0
    4.6610    1.7170   18.4380 C   0  0  0  0  0  0  0  0  0  0  0  0
    9.1890   -3.5540   24.0140 C   0  0  0  0  0  0  0  0  0  0  0  0
    7.8700   -2.0610   25.3550 C   0  0  0  0  0  0  0  0  0  0  0  0
    9.5890   -2.4950   23.2210 C   0  0  0  0  0  0  0  0  0  0  0  0
    8.2550   -1.0010   24.5520 C   0  0  0  0  0  0  0  0  0  0  0  0
    7.5840   -0.2700   18.5160 C   0  0  0  0  0  0  0  0  0  0  0  0
    6.1460    0.6070   19.9750 C   0  0  0  0  0  0  0  0  0  0  0  0
   11.9616   -0.1817   23.2889 C   0  0  0  0  0  0  0  0  0  0  0  0
    5.7970    0.9500   18.6730 C   0  0  0  0  0  0  0  0  0  0  0  0
    8.3450   -3.3440   25.0980 C   0  0  0  0  0  0  0  0  0  0  0  0
    9.1280   -1.2090   23.4870 C   0  0  0  0  0  0  0  0  0  0  0  0
    7.2710   -0.1460   19.8310 C   0  0  0  0  0  0  0  0  0  0  0  0
    9.0430    0.2380   21.4940 C   0  0  0  0  0  0  0  0  0  0  0  0
    7.3495   -6.6199   27.6701 C   0  0  0  0  0  0  0  0  0  0  0  0
    6.9542   -6.6348   26.1986 C   0  0  0  0  0  0  0  0  0  0  0  0
    7.3959   -5.1872   28.1871 C   0  0  0  0  0  0  0  0  0  0  0  0
    7.8834   -5.7613   25.3569 C   0  0  0  0  0  0  0  0  0  0  0  0
    8.3297   -4.3204   27.3453 C   0  0  0  0  0  0  0  0  0  0  0  0
   10.7220    0.6590   23.1850 C   0  0  0  0  0  0  0  0  0  0  0  0
    6.7100    0.3850   17.8100 N   0  0  0  0  0  0  0  0  0  0  0  0
    7.9745   -4.4101   25.9218 N   0  0  0  0  0  0  0  0  0  0  0  0
    8.0950   -0.7700   20.8440 N   0  0  0  0  0  0  0  0  0  0  0  0
    9.5820   -0.1080   22.7000 N   0  0  0  0  0  0  0  0  0  0  0  0
    9.2950    1.3000   20.9480 O   0  0  0  0  0  0  0  0  0  0  0  0
   15.1613   -2.3527   23.5555 H   0  0  0  0  0  0  0  0  0  0  0  0
    3.6208    2.0704   21.6579 H   0  0  0  0  0  0  0  0  0  0  0  0
   14.8297   -0.4373   25.0971 H   0  0  0  0  0  0  0  0  0  0  0  0
   13.4443   -2.8780   21.8427 H   0  0  0  0  0  0  0  0  0  0  0  0
    2.9857    2.6926   19.3615 H   0  0  0  0  0  0  0  0  0  0  0  0
    5.6664    0.7407   22.0807 H   0  0  0  0  0  0  0  0  0  0  0  0
   12.7899    0.9506   24.9315 H   0  0  0  0  0  0  0  0  0  0  0  0
   11.4013   -1.4963   21.6690 H   0  0  0  0  0  0  0  0  0  0  0  0
    4.3794    2.0106   17.4221 H   0  0  0  0  0  0  0  0  0  0  0  0
    9.5426   -4.5618   23.7797 H   0  0  0  0  0  0  0  0  0  0  0  0
    7.1914   -1.8824   26.1903 H   0  0  0  0  0  0  0  0  0  0  0  0
   10.2669   -2.6745   22.3854 H   0  0  0  0  0  0  0  0  0  0  0  0
    7.8690   -0.0020   24.7587 H   0  0  0  0  0  0  0  0  0  0  0  0
    8.4172   -0.8135   18.0384 H   0  0  0  0  0  0  0  0  0  0  0  0
    6.6275   -7.2030   28.2544 H   0  0  0  0  0  0  0  0  0  0  0  0
    8.3286   -7.0944   27.7981 H   0  0  0  0  0  0  0  0  0  0  0  0
    6.9785   -7.6646   25.8205 H   0  0  0  0  0  0  0  0  0  0  0  0
    5.9224   -6.2815   26.0912 H   0  0  0  0  0  0  0  0  0  0  0  0
    6.3874   -4.7586   28.1744 H   0  0  0  0  0  0  0  0  0  0  0  0
    7.7314   -5.1812   29.2316 H   0  0  0  0  0  0  0  0  0  0  0  0
    8.8752   -6.2297   25.3260 H   0  0  0  0  0  0  0  0  0  0  0  0
    7.5092   -5.7078   24.3260 H   0  0  0  0  0  0  0  0  0  0  0  0
    8.2703   -3.2761   27.6782 H   0  0  0  0  0  0  0  0  0  0  0  0
    9.3614   -4.6600   27.5015 H   0  0  0  0  0  0  0  0  0  0  0  0
   10.4561    1.0772   24.1620 H   0  0  0  0  0  0  0  0  0  0  0  0
   10.8743    1.5008   22.5014 H   0  0  0  0  0  0  0  0  0  0  0  0
    6.6715    0.4865   16.8044 H   0  0  0  0  0  0  0  0  0  0  0  0
    8.0897   -1.6082   21.0890 H   0  0  0  0  0  0  0  0  0  0  0  0
  1  3  1  0  0  0  0
  1  4  2  0  0  0  0
  2  5  1  0  0  0  0
  2  6  2  0  0  0  0
  3  7  2  0  0  0  0
  4  8  1  0  0  0  0
  5  9  2  0  0  0  0
  6 15  1  0  0  0  0
  7 16  1  0  0  0  0
  8 16  2  0  0  0  0
  9 17  1  0  0  0  0
 10 12  2  0  0  0  0
 10 18  1  0  0  0  0
 11 13  1  0  0  0  0
 11 18  2  0  0  0  0
 12 19  1  0  0  0  0
 13 19  2  0  0  0  0
 14 20  2  0  0  0  0
 14 28  1  0  0  0  0
 15 17  2  0  0  0  0
 15 20  1  0  0  0  0
 16 27  1  0  0  0  0
 17 28  1  0  0  0  0
 18 29  1  0  0  0  0
 19 31  1  0  0  0  0
 20 30  1  0  0  0  0
 21 30  1  0  0  0  0
 21 31  1  0  0  0  0
 21 32  2  0  0  0  0
 22 23  1  0  0  0  0
 22 24  1  0  0  0  0
 23 25  1  0  0  0  0
 24 26  1  0  0  0  0
 25 29  1  0  0  0  0
 26 29  1  0  0  0  0
 27 31  1  0  0  0  0
  1 33  1  0  0  0  0
  2 34  1  0  0  0  0
  3 35  1  0  0  0  0
  4 36  1  0  0  0  0
  5 37  1  0  0  0  0
  6 38  1  0  0  0  0
  7 39  1  0  0  0  0
  8 40  1  0  0  0  0
  9 41  1  0  0  0  0
 10 42  1  0  0  0  0
 11 43  1  0  0  0  0
 12 44  1  0  0  0  0
 13 45  1  0  0  0  0
 14 46  1  0  0  0  0
 22 47  1  0  0  0  0
 22 48  1  0  0  0  0
 23 49  1  0  0  0  0
 23 50  1  0  0  0  0
 24 51  1  0  0  0  0
 24 52  1  0  0  0  0
 25 53  1  0  0  0  0
 25 54  1  0  0  0  0
 26 55  1  0  0  0  0
 26 56  1  0  0  0  0
 27 57  1  0  0  0  0
 27 58  1  0  0  0  0
 28 59  1  0  0  0  0
 30 60  1  0  0  0  0
M  END
> <clash_score>
0

> <docking_score>
-8.690547943115234

> <overlap_score>
0.9952272772789001

$$$$
BENZO_120_1
  -OEChem-08222022443D

 57 61  0     0  0  0  0  0  0999 V2000
    4.2460    1.7520   20.8250 C   0  0  0  0  0  0  0  0  0  0  0  0
    3.8860    2.1050   19.5250 C   0  0  0  0  0  0  0  0  0  0  0  0
    5.3890    1.0010   21.0690 C   0  0  0  0  0  0  0  0  0  0  0  0
    4.6610    1.7170   18.4380 C   0  0  0  0  0  0  0  0  0  0  0  0
    9.1890   -3.5540   24.0140 C   0  0  0  0  0  0  0  0  0  0  0  0
    7.8700   -2.0610   25.3550 C   0  0  0  0  0  0  0  0  0  0  0  0
    9.5890   -2.4950   23.2210 C   0  0  0  0  0  0  0  0  0  0  0  0
    8.2550   -1.0010   24.5520 C   0  0  0  0  0  0  0  0  0  0  0  0
   12.6785   -0.3936   24.5018 C   0  0  0  0  0  0  0  0  0  0  0  0
    7.5840   -0.2700   18.5160 C   0  0  0  0  0  0  0  0  0  0  0  0
   13.7775   -1.2037   24.3186 C   0  0  0  0  0  0  0  0  0  0  0  0
   12.5401   -0.8378   22.2246 C   0  0  0  0  0  0  0  0  0  0  0  0
    6.1460    0.6070   19.9750 C   0  0  0  0  0  0  0  0  0  0  0  0
   11.9616   -0.1817   23.2889 C   0  0  0  0  0  0  0  0  0  0  0  0
    5.7970    0.9500   18.6730 C   0  0  0  0  0  0  0  0  0  0  0  0
    8.3450   -3.3440   25.0980 C   0  0  0  0  0  0  0  0  0  0  0  0
    9.1280   -1.2090   23.4870 C   0  0  0  0  0  0  0  0  0  0  0  0
    7.2710   -0.1460   19.8310 C   0  0  0  0  0  0  0  0  0  0  0  0
    9.0430    0.2380   21.4940 C   0  0  0  0  0  0  0  0  0  0  0  0
    7.5748   -4.8280   28.7278 C   0  0  0  0  0  0  0  0  0  0  0  0
    8.9776   -4.7555   28.1204 C   0  0  0  0  0  0  0  0  0  0  0  0
    6.5554   -4.0713   27.8732 C   0  0  0  0  0  0  0  0  0  0  0  0
    8.9620   -5.1961   26.6568 C   0  0  0  0  0  0  0  0  0  0  0  0
    6.6009   -4.5253   26.4110 C   0  0  0  0  0  0  0  0  0  0  0  0
   10.7220    0.6590   23.1850 C   0  0  0  0  0  0  0  0  0  0  0  0
    6.7100    0.3850   17.8100 N   0  0  0  0  0  0  0  0  0  0  0  0
    7.9770   -4.4029   25.9162 N   0  0  0  0  0  0  0  0  0  0  0  0
    8.0950   -0.7700   20.8440 N   0  0  0  0  0  0  0  0  0  0  0  0
    9.5820   -0.1080   22.7000 N   0  0  0  0  0  0  0  0  0  0  0  0
    9.2950    1.3000   20.9480 O   0  0  0  0  0  0  0  0  0  0  0  0
   13.9416   -1.7051   22.6894 S   0  0  0  0  0  0  0  0  0  0  0  0
    3.6208    2.0704   21.6579 H   0  0  0  0  0  0  0  0  0  0  0  0
    2.9857    2.6926   19.3615 H   0  0  0  0  0  0  0  0  0  0  0  0
    5.6664    0.7407   22.0807 H   0  0  0  0  0  0  0  0  0  0  0  0
    4.3794    2.0106   17.4221 H   0  0  0  0  0  0  0  0  0  0  0  0
    9.5426   -4.5618   23.7797 H   0  0  0  0  0  0  0  0  0  0  0  0
    7.1914   -1.8824   26.1903 H   0  0  0  0  0  0  0  0  0  0  0  0
   10.2669   -2.6745   22.3854 H   0  0  0  0  0  0  0  0  0  0  0  0
    7.8690   -0.0020   24.7587 H   0  0  0  0  0  0  0  0  0  0  0  0
   12.4058    0.0253   25.4623 H   0  0  0  0  0  0  0  0  0  0  0  0
    8.4172   -0.8135   18.0384 H   0  0  0  0  0  0  0  0  0  0  0  0
   14.4923   -1.5246   25.0631 H   0  0  0  0  0  0  0  0  0  0  0  0
   12.2108   -0.8511   21.1948 H   0  0  0  0  0  0  0  0  0  0  0  0
    7.2681   -5.8807   28.8239 H   0  0  0  0  0  0  0  0  0  0  0  0
    7.5891   -4.4101   29.7448 H   0  0  0  0  0  0  0  0  0  0  0  0
    9.3554   -3.7320   28.1920 H   0  0  0  0  0  0  0  0  0  0  0  0
    9.6558   -5.3943   28.6900 H   0  0  0  0  0  0  0  0  0  0  0  0
    5.5496   -4.2322   28.2751 H   0  0  0  0  0  0  0  0  0  0  0  0
    6.7545   -2.9948   27.9293 H   0  0  0  0  0  0  0  0  0  0  0  0
    9.9612   -5.0560   26.2363 H   0  0  0  0  0  0  0  0  0  0  0  0
    8.7097   -6.2583   26.5922 H   0  0  0  0  0  0  0  0  0  0  0  0
    6.2649   -5.5600   26.3335 H   0  0  0  0  0  0  0  0  0  0  0  0
    5.9271   -3.8964   25.8283 H   0  0  0  0  0  0  0  0  0  0  0  0
   10.4561    1.0772   24.1620 H   0  0  0  0  0  0  0  0  0  0  0  0
   10.8743    1.5008   22.5014 H   0  0  0  0  0  0  0  0  0  0  0  0
    6.6715    0.4865   16.8044 H   0  0  0  0  0  0  0  0  0  0  0  0
    8.0897   -1.6082   21.0890 H   0  0  0  0  0  0  0  0  0  0  0  0
  1  2  1  0  0  0  0
  1  3  2  0  0  0  0
  2  4  2  0  0  0  0
  3 13  1  0  0  0  0
  4 15  1  0  0  0  0
  5  7  2  0  0  0  0
  5 16  1  0  0  0  0
  6  8  1  0  0  0  0
  6 16  2  0  0  0  0
  7 17  1  0  0  0  0
  8 17  2  0  0  0  0
  9 11  2  0  0  0  0
  9 14  1  0  0  0  0
 10 18  2  0  0  0  0
 10 26  1  0  0  0  0
 11 31  1  0  0  0  0
 12 14  2  0  0  0  0
 12 31  1  0  0  0  0
 13 15  2  0  0  0  0
 13 18  1  0  0  0  0
 14 25  1  0  0  0  0
 15 26  1  0  0  0  0
 16 27  1  0  0  0  0
 17 29  1  0  0  0  0
 18 28  1  0  0  0  0
 19 28  1  0  0  0  0
 19 29  1  0  0  0  0
 19 30  2  0  0  0  0
 20 21  1  0  0  0  0
 20 22  1  0  0  0  0
 21 23  1  0  0  0  0
 22 24  1  0  0  0  0
 23 27  1  0  0  0  0
 24 27  1  0  0  0  0
 25 29  1  0  0  0  0
  1 32  1  0  0  0  0
  2 33  1  0  0  0  0
  3 34  1  0  0  0  0
  4 35  1  0  0  0  0
  5 36  1  0  0  0  0
  6 37  1  0  0  0  0
  7 38  1  0  0  0  0
  8 39  1  0  0  0  0
  9 40  1  0  0  0  0
 10 41  1  0  0  0  0
 11 42  1  0  0  0  0
 12 43  1  0  0  0  0
 20 44  1  0  0  0  0
 20 45  1  0  0  0  0
 21 46  1  0  0  0  0
 21 47  1  0  0  0  0
 22 48  1  0  0  0  0
 22 49  1  0  0  0  0
 23 50  1  0  0  0  0
 23 51  1  0  0  0  0
 24 52  1  0  0  0  0
 24 53  1  0  0  0  0
 25 54  1  0  0  0  0
 25 55  1  0  0  0  0
 26 56  1  0  0  0  0
 28 57  1  0  0  0  0
M  END
> <clash_score>
0

> <docking_score>
-9.256303787231445

> <overlap_score>
0.9766672849655151

$$$$
BENZO_118_1
  -OEChem-08222022443D

 55 58  0     0  0  0  0  0  0999 V2000
    4.2460    1.7520   20.8250 C   0  0  0  0  0  0  0  0  0  0  0  0
    3.8860    2.1050   19.5250 C   0  0  0  0  0  0  0  0  0  0  0  0
   13.7501   -1.1157   24.6176 C   0  0  0  0  0  0  0  0  0  0  0  0
    5.3890    1.0010   21.0690 C   0  0  0  0  0  0  0  0  0  0  0  0
   12.5991   -0.3339   24.5202 C   0  0  0  0  0  0  0  0  0  0  0  0
    4.6610    1.7170   18.4380 C   0  0  0  0  0  0  0  0  0  0  0  0
    9.1890   -3.5540   24.0140 C   0  0  0  0  0  0  0  0  0  0  0  0
    7.8700   -2.0610   25.3550 C   0  0  0  0  0  0  0  0  0  0  0  0
    9.5890   -2.4950   23.2210 C   0  0  0  0  0  0  0  0  0  0  0  0
    8.2550   -1.0010   24.5520 C   0  0  0  0  0  0  0  0  0  0  0  0
   14.2636   -1.7454   23.4838 C   0  0  0  0  0  0  0  0  0  0  0  0
   12.4750   -0.8115   22.1551 C   0  0  0  0  0  0  0  0  0  0  0  0
    7.5840   -0.2700   18.5160 C   0  0  0  0  0  0  0  0  0  0  0  0
    6.1460    0.6070   19.9750 C   0  0  0  0  0  0  0  0  0  0  0  0
   11.9616   -0.1817   23.2889 C   0  0  0  0  0  0  0  0  0  0  0  0
    5.7970    0.9500   18.6730 C   0  0  0  0  0  0  0  0  0  0  0  0
    8.3450   -3.3440   25.0980 C   0  0  0  0  0  0  0  0  0  0  0  0
    9.1280   -1.2090   23.4870 C   0  0  0  0  0  0  0  0  0  0  0  0
    7.2710   -0.1460   19.8310 C   0  0  0  0  0  0  0  0  0  0  0  0
   13.6261   -1.5933   22.2526 C   0  0  0  0  0  0  0  0  0  0  0  0
    8.2013   -4.5560   27.2978 C   0  0  0  0  0  0  0  0  0  0  0  0
    9.0430    0.2380   21.4940 C   0  0  0  0  0  0  0  0  0  0  0  0
    7.8868   -6.0872   29.2883 C   0  0  0  0  0  0  0  0  0  0  0  0
   10.7220    0.6590   23.1850 C   0  0  0  0  0  0  0  0  0  0  0  0
    7.6336   -5.8726   27.8069 C   0  0  0  0  0  0  0  0  0  0  0  0
    6.7100    0.3850   17.8100 N   0  0  0  0  0  0  0  0  0  0  0  0
    7.9771   -4.4058   25.9196 N   0  0  0  0  0  0  0  0  0  0  0  0
    8.0950   -0.7700   20.8440 N   0  0  0  0  0  0  0  0  0  0  0  0
    9.5820   -0.1080   22.7000 N   0  0  0  0  0  0  0  0  0  0  0  0
    8.7721   -3.7635   28.0398 O   0  0  0  0  0  0  0  0  0  0  0  0
    9.2950    1.3000   20.9480 O   0  0  0  0  0  0  0  0  0  0  0  0
   14.2594   -2.3714   20.8543 Cl  0  0  0  0  0  0  0  0  0  0  0  0
    3.6208    2.0704   21.6579 H   0  0  0  0  0  0  0  0  0  0  0  0
    2.9857    2.6926   19.3615 H   0  0  0  0  0  0  0  0  0  0  0  0
   14.2462   -1.2340   25.5766 H   0  0  0  0  0  0  0  0  0  0  0  0
    5.6664    0.7407   22.0807 H   0  0  0  0  0  0  0  0  0  0  0  0
   12.2060    0.1530   25.4088 H   0  0  0  0  0  0  0  0  0  0  0  0
    4.3794    2.0106   17.4221 H   0  0  0  0  0  0  0  0  0  0  0  0
    9.5436   -4.5614   23.7799 H   0  0  0  0  0  0  0  0  0  0  0  0
    7.1918   -1.8823   26.1906 H   0  0  0  0  0  0  0  0  0  0  0  0
   10.2676   -2.6754   22.3861 H   0  0  0  0  0  0  0  0  0  0  0  0
    7.8686   -0.0026   24.7598 H   0  0  0  0  0  0  0  0  0  0  0  0
   15.1613   -2.3520   23.5747 H   0  0  0  0  0  0  0  0  0  0  0  0
   11.9745   -0.6893   21.1973 H   0  0  0  0  0  0  0  0  0  0  0  0
    8.4172   -0.8135   18.0384 H   0  0  0  0  0  0  0  0  0  0  0  0
    8.9593   -6.0816   29.5088 H   0  0  0  0  0  0  0  0  0  0  0  0
    7.4767   -7.0496   29.6095 H   0  0  0  0  0  0  0  0  0  0  0  0
    7.4172   -5.2988   29.8857 H   0  0  0  0  0  0  0  0  0  0  0  0
   10.4561    1.0772   24.1620 H   0  0  0  0  0  0  0  0  0  0  0  0
   10.8743    1.5008   22.5014 H   0  0  0  0  0  0  0  0  0  0  0  0
    6.5544   -5.8828   27.6154 H   0  0  0  0  0  0  0  0  0  0  0  0
    8.0875   -6.6908   27.2360 H   0  0  0  0  0  0  0  0  0  0  0  0
    6.6715    0.4865   16.8044 H   0  0  0  0  0  0  0  0  0  0  0  0
    7.4775   -5.1797   25.4664 H   0  0  0  0  0  0  0  0  0  0  0  0
    8.0705   -1.6178   21.0726 H   0  0  0  0  0  0  0  0  0  0  0  0
  1  2  1  0  0  0  0
  1  4  2  0  0  0  0
  2  6  2  0  0  0  0
  3  5  2  0  0  0  0
  3 11  1  0  0  0  0
  4 14  1  0  0  0  0
  5 15  1  0  0  0  0
  6 16  1  0  0  0  0
  7  9  2  0  0  0  0
  7 17  1  0  0  0  0
  8 10  1  0  0  0  0
  8 17  2  0  0  0  0
  9 18  1  0  0  0  0
 10 18  2  0  0  0  0
 11 20  2  0  0  0  0
 12 15  2  0  0  0  0
 12 20  1  0  0  0  0
 13 19  2  0  0  0  0
 13 26  1  0  0  0  0
 14 16  2  0  0  0  0
 14 19  1  0  0  0  0
 15 24  1  0  0  0  0
 16 26  1  0  0  0  0
 17 27  1  0  0  0  0
 18 29  1  0  0  0  0
 19 28  1  0  0  0  0
 20 32  1  0  0  0  0
 21 25  1  0  0  0  0
 21 27  1  0  0  0  0
 21 30  2  0  0  0  0
 22 28  1  0  0  0  0
 22 29  1  0  0  0  0
 22 31  2  0  0  0  0
 23 25  1  0  0  0  0
 24 29  1  0  0  0  0
  1 33  1  0  0  0  0
  2 34  1  0  0  0  0
  3 35  1  0  0  0  0
  4 36  1  0  0  0  0
  5 37  1  0  0  0  0
  6 38  1  0  0  0  0
  7 39  1  0  0  0  0
  8 40  1  0  0  0  0
  9 41  1  0  0  0  0
 10 42  1  0  0  0  0
 11 43  1  0  0  0  0
 12 44  1  0  0  0  0
 13 45  1  0  0  0  0
 23 46  1  0  0  0  0
 23 47  1  0  0  0  0
 23 48  1  0  0  0  0
 24 49  1  0  0  0  0
 24 50  1  0  0  0  0
 25 51  1  0  0  0  0
 25 52  1  0  0  0  0
 26 53  1  0  0  0  0
 27 54  1  0  0  0  0
 28 55  1  0  0  0  0
M  END
> <clash_score>
0

> <docking_score>
-8.409854888916016

> <overlap_score>
1.0106929540634155

$$$$
BENZO_119_1
  -OEChem-08222022443D

 55 58  0     0  0  0  0  0  0999 V2000
    4.2460    1.7520   20.8250 C   0  0  0  0  0  0  0  0  0  0  0  0
    3.8860    2.1050   19.5250 C   0  0  0  0  0  0  0  0  0  0  0  0
    5.3890    1.0010   21.0690 C   0  0  0  0  0  0  0  0  0  0  0  0
    4.6610    1.7170   18.4380 C   0  0  0  0  0  0  0  0  0  0  0  0
    9.1890   -3.5540   24.0140 C   0  0  0  0  0  0  0  0  0  0  0  0
    7.8700   -2.0610   25.3550 C   0  0  0  0  0  0  0  0  0  0  0  0
    9.5890   -2.4950   23.2210 C   0  0  0  0  0  0  0  0  0  0  0  0
    8.2550   -1.0010   24.5520 C   0  0  0  0  0  0  0  0  0  0  0  0
   12.7320   -0.4464   24.4370 C   0  0  0  0  0  0  0  0  0  0  0  0
   12.5970   -0.8682   22.2832 C   0  0  0  0  0  0  0  0  0  0  0  0
    7.5840   -0.2700   18.5160 C   0  0  0  0  0  0  0  0  0  0  0  0
    6.1460    0.6070   19.9750 C   0  0  0  0  0  0  0  0  0  0  0  0
   11.9616   -0.1817   23.2889 C   0  0  0  0  0  0  0  0  0  0  0  0
    5.7970    0.9500   18.6730 C   0  0  0  0  0  0  0  0  0  0  0  0
    8.3450   -3.3440   25.0980 C   0  0  0  0  0  0  0  0  0  0  0  0
    9.1280   -1.2090   23.4870 C   0  0  0  0  0  0  0  0  0  0  0  0
    7.2710   -0.1460   19.8310 C   0  0  0  0  0  0  0  0  0  0  0  0
    8.2013   -4.5560   27.2978 C   0  0  0  0  0  0  0  0  0  0  0  0
    9.0430    0.2380   21.4940 C   0  0  0  0  0  0  0  0  0  0  0  0
    7.8868   -6.0872   29.2883 C   0  0  0  0  0  0  0  0  0  0  0  0
   14.6393   -2.3180   22.2082 C   0  0  0  0  0  0  0  0  0  0  0  0
   10.7220    0.6590   23.1850 C   0  0  0  0  0  0  0  0  0  0  0  0
    7.6336   -5.8726   27.8069 C   0  0  0  0  0  0  0  0  0  0  0  0
   13.7770   -1.2393   24.1852 N   0  0  0  0  0  0  0  0  0  0  0  0
    6.7100    0.3850   17.8100 N   0  0  0  0  0  0  0  0  0  0  0  0
   13.6676   -1.4788   22.8673 N   0  0  0  0  0  0  0  0  0  0  0  0
    7.9771   -4.4058   25.9196 N   0  0  0  0  0  0  0  0  0  0  0  0
    8.0950   -0.7700   20.8440 N   0  0  0  0  0  0  0  0  0  0  0  0
    9.5820   -0.1080   22.7000 N   0  0  0  0  0  0  0  0  0  0  0  0
    8.7721   -3.7635   28.0398 O   0  0  0  0  0  0  0  0  0  0  0  0
    9.2950    1.3000   20.9480 O   0  0  0  0  0  0  0  0  0  0  0  0
    3.6208    2.0704   21.6579 H   0  0  0  0  0  0  0  0  0  0  0  0
    2.9857    2.6926   19.3615 H   0  0  0  0  0  0  0  0  0  0  0  0
    5.6664    0.7407   22.0807 H   0  0  0  0  0  0  0  0  0  0  0  0
    4.3794    2.0106   17.4221 H   0  0  0  0  0  0  0  0  0  0  0  0
    9.5436   -4.5614   23.7799 H   0  0  0  0  0  0  0  0  0  0  0  0
    7.1918   -1.8823   26.1906 H   0  0  0  0  0  0  0  0  0  0  0  0
   10.2676   -2.6754   22.3861 H   0  0  0  0  0  0  0  0  0  0  0  0
    7.8686   -0.0026   24.7598 H   0  0  0  0  0  0  0  0  0  0  0  0
   12.5771   -0.0965   25.4478 H   0  0  0  0  0  0  0  0  0  0  0  0
   12.3832   -0.9726   21.2281 H   0  0  0  0  0  0  0  0  0  0  0  0
    8.4172   -0.8135   18.0384 H   0  0  0  0  0  0  0  0  0  0  0  0
    8.9593   -6.0816   29.5088 H   0  0  0  0  0  0  0  0  0  0  0  0
    7.4767   -7.0496   29.6095 H   0  0  0  0  0  0  0  0  0  0  0  0
    7.4172   -5.2988   29.8857 H   0  0  0  0  0  0  0  0  0  0  0  0
   15.4522   -1.6787   21.8540 H   0  0  0  0  0  0  0  0  0  0  0  0
   15.0179   -3.0612   22.9154 H   0  0  0  0  0  0  0  0  0  0  0  0
   14.1626   -2.8324   21.3691 H   0  0  0  0  0  0  0  0  0  0  0  0
   10.4561    1.0772   24.1620 H   0  0  0  0  0  0  0  0  0  0  0  0
   10.8743    1.5008   22.5014 H   0  0  0  0  0  0  0  0  0  0  0  0
    6.5544   -5.8828   27.6154 H   0  0  0  0  0  0  0  0  0  0  0  0
    8.0875   -6.6908   27.2360 H   0  0  0  0  0  0  0  0  0  0  0  0
    6.6715    0.4865   16.8044 H   0  0  0  0  0  0  0  0  0  0  0  0
    7.4775   -5.1797   25.4664 H   0  0  0  0  0  0  0  0  0  0  0  0
    8.0705   -1.6178   21.0726 H   0  0  0  0  0  0  0  0  0  0  0  0
  1  2  1  0  0  0  0
  1  3  2  0  0  0  0
  2  4  2  0  0  0  0
  3 12  1  0  0  0  0
  4 14  1  0  0  0  0
  5  7  2  0  0  0  0
  5 15  1  0  0  0  0
  6  8  1  0  0  0  0
  6 15  2  0  0  0  0
  7 16  1  0  0  0  0
  8 16  2  0  0  0  0
  9 13  1  0  0  0  0
  9 24  2  0  0  0  0
 10 13  2  0  0  0  0
 10 26  1  0  0  0  0
 11 17  2  0  0  0  0
 11 25  1  0  0  0  0
 12 14  2  0  0  0  0
 12 17  1  0  0  0  0
 13 22  1  0  0  0  0
 14 25  1  0  0  0  0
 15 27  1  0  0  0  0
 16 29  1  0  0  0  0
 17 28  1  0  0  0  0
 18 23  1  0  0  0  0
 18 27  1  0  0  0  0
 18 30  2  0  0  0  0
 19 28  1  0  0  0  0
 19 29  1  0  0  0  0
 19 31  2  0  0  0  0
 20 23  1  0  0  0  0
 21 26  1  0  0  0  0
 22 29  1  0  0  0  0
 24 26  1  0  0  0  0
  1 32  1  0  0  0  0
  2 33  1  0  0  0  0
  3 34  1  0  0  0  0
  4 35  1  0  0  0  0
  5 36  1  0  0  0  0
  6 37  1  0  0  0  0
  7 38  1  0  0  0  0
  8 39  1  0  0  0  0
  9 40  1  0  0  0  0
 10 41  1  0  0  0  0
 11 42  1  0  0  0  0
 20 43  1  0  0  0  0
 20 44  1  0  0  0  0
 20 45  1  0  0  0  0
 21 46  1  0  0  0  0
 21 47  1  0  0  0  0
 21 48  1  0  0  0  0
 22 49  1  0  0  0  0
 22 50  1  0  0  0  0
 23 51  1  0  0  0  0
 23 52  1  0  0  0  0
 25 53  1  0  0  0  0
 27 54  1  0  0  0  0
 28 55  1  0  0  0  0
M  END
> <clash_score>
0

> <docking_score>
-7.645876407623291

> <overlap_score>
1.0061793327331543

$$$$
BENZO_125_1
  -OEChem-08222022443D

 48 51  0     0  0  0  0  0  0999 V2000
   14.2642   -1.7450   23.4813 C   0  0  0  0  0  0  0  0  0  0  0  0
    4.2460    1.7520   20.8250 C   0  0  0  0  0  0  0  0  0  0  0  0
   14.0779   -0.6681   24.3480 C   0  0  0  0  0  0  0  0  0  0  0  0
   13.2991   -2.0403   22.5184 C   0  0  0  0  0  0  0  0  0  0  0  0
    3.8860    2.1050   19.5250 C   0  0  0  0  0  0  0  0  0  0  0  0
    5.3890    1.0010   21.0690 C   0  0  0  0  0  0  0  0  0  0  0  0
   12.9266    0.1135   24.2518 C   0  0  0  0  0  0  0  0  0  0  0  0
   12.1478   -1.2587   22.4222 C   0  0  0  0  0  0  0  0  0  0  0  0
    9.1890   -3.5540   24.0140 C   0  0  0  0  0  0  0  0  0  0  0  0
    7.8700   -2.0610   25.3550 C   0  0  0  0  0  0  0  0  0  0  0  0
    4.6610    1.7170   18.4380 C   0  0  0  0  0  0  0  0  0  0  0  0
    9.5890   -2.4950   23.2210 C   0  0  0  0  0  0  0  0  0  0  0  0
    8.2550   -1.0010   24.5520 C   0  0  0  0  0  0  0  0  0  0  0  0
    7.5840   -0.2700   18.5160 C   0  0  0  0  0  0  0  0  0  0  0  0
    6.1460    0.6070   19.9750 C   0  0  0  0  0  0  0  0  0  0  0  0
    8.3450   -3.3440   25.0980 C   0  0  0  0  0  0  0  0  0  0  0  0
   11.9616   -0.1817   23.2889 C   0  0  0  0  0  0  0  0  0  0  0  0
    5.7970    0.9500   18.6730 C   0  0  0  0  0  0  0  0  0  0  0  0
    9.1280   -1.2090   23.4870 C   0  0  0  0  0  0  0  0  0  0  0  0
    7.2710   -0.1460   19.8310 C   0  0  0  0  0  0  0  0  0  0  0  0
    9.0430    0.2380   21.4940 C   0  0  0  0  0  0  0  0  0  0  0  0
    7.9522   -4.4794   25.9764 C   0  0  0  0  0  0  0  0  0  0  0  0
   10.7220    0.6590   23.1850 C   0  0  0  0  0  0  0  0  0  0  0  0
    6.7100    0.3850   17.8100 N   0  0  0  0  0  0  0  0  0  0  0  0
    8.0950   -0.7700   20.8440 N   0  0  0  0  0  0  0  0  0  0  0  0
    9.5820   -0.1080   22.7000 N   0  0  0  0  0  0  0  0  0  0  0  0
    9.2950    1.3000   20.9480 O   0  0  0  0  0  0  0  0  0  0  0  0
   15.1613   -2.3527   23.5555 H   0  0  0  0  0  0  0  0  0  0  0  0
    3.6208    2.0704   21.6579 H   0  0  0  0  0  0  0  0  0  0  0  0
   14.8297   -0.4373   25.0971 H   0  0  0  0  0  0  0  0  0  0  0  0
   13.4443   -2.8780   21.8427 H   0  0  0  0  0  0  0  0  0  0  0  0
    2.9857    2.6926   19.3615 H   0  0  0  0  0  0  0  0  0  0  0  0
    5.6664    0.7407   22.0807 H   0  0  0  0  0  0  0  0  0  0  0  0
   12.7899    0.9506   24.9315 H   0  0  0  0  0  0  0  0  0  0  0  0
   11.4013   -1.4963   21.6690 H   0  0  0  0  0  0  0  0  0  0  0  0
    9.5403   -4.5627   23.7809 H   0  0  0  0  0  0  0  0  0  0  0  0
    7.1911   -1.8848   26.1904 H   0  0  0  0  0  0  0  0  0  0  0  0
    4.3794    2.0106   17.4221 H   0  0  0  0  0  0  0  0  0  0  0  0
   10.2682   -2.6746   22.3865 H   0  0  0  0  0  0  0  0  0  0  0  0
    7.8684   -0.0022   24.7594 H   0  0  0  0  0  0  0  0  0  0  0  0
    8.4172   -0.8135   18.0384 H   0  0  0  0  0  0  0  0  0  0  0  0
    8.6668   -4.5891   26.8013 H   0  0  0  0  0  0  0  0  0  0  0  0
    6.9513   -4.3276   26.4010 H   0  0  0  0  0  0  0  0  0  0  0  0
    7.9196   -5.4231   25.4163 H   0  0  0  0  0  0  0  0  0  0  0  0
   10.4561    1.0772   24.1620 H   0  0  0  0  0  0  0  0  0  0  0  0
   10.8743    1.5008   22.5014 H   0  0  0  0  0  0  0  0  0  0  0  0
    6.6715    0.4865   16.8044 H   0  0  0  0  0  0  0  0  0  0  0  0
    8.0705   -1.6178   21.0726 H   0  0  0  0  0  0  0  0  0  0  0  0
  1  3  1  0  0  0  0
  1  4  2  0  0  0  0
  2  5  1  0  0  0  0
  2  6  2  0  0  0  0
  3  7  2  0  0  0  0
  4  8  1  0  0  0  0
  5 11  2  0  0  0  0
  6 15  1  0  0  0  0
  7 17  1  0  0  0  0
  8 17  2  0  0  0  0
  9 12  2  0  0  0  0
  9 16  1  0  0  0  0
 10 13  1  0  0  0  0
 10 16  2  0  0  0  0
 11 18  1  0  0  0  0
 12 19  1  0  0  0  0
 13 19  2  0  0  0  0
 14 20  2  0  0  0  0
 14 24  1  0  0  0  0
 15 18  2  0  0  0  0
 15 20  1  0  0  0  0
 16 22  1  0  0  0  0
 17 23  1  0  0  0  0
 18 24  1  0  0  0  0
 19 26  1  0  0  0  0
 20 25  1  0  0  0  0
 21 25  1  0  0  0  0
 21 26  1  0  0  0  0
 21 27  2  0  0  0  0
 23 26  1  0  0  0  0
  1 28  1  0  0  0  0
  2 29  1  0  0  0  0
  3 30  1  0  0  0  0
  4 31  1  0  0  0  0
  5 32  1  0  0  0  0
  6 33  1  0  0  0  0
  7 34  1  0  0  0  0
  8 35  1  0  0  0  0
  9 36  1  0  0  0  0
 10 37  1  0  0  0  0
 11 38  1  0  0  0  0
 12 39  1  0  0  0  0
 13 40  1  0  0  0  0
 14 41  1  0  0  0  0
 22 42  1  0  0  0  0
 22 43  1  0  0  0  0
 22 44  1  0  0  0  0
 23 45  1  0  0  0  0
 23 46  1  0  0  0  0
 24 47  1  0  0  0  0
 25 48  1  0  0  0  0
M  END
> <clash_score>
0

> <docking_score>
-8.914521217346191

> <overlap_score>
0.9021972417831421

$$$$
BENZO_124_1
  -OEChem-08222022443D

 45 48  0     0  0  0  0  0  0999 V2000
    4.2460    1.7520   20.8250 C   0  0  0  0  0  0  0  0  0  0  0  0
    3.8860    2.1050   19.5250 C   0  0  0  0  0  0  0  0  0  0  0  0
    5.3890    1.0010   21.0690 C   0  0  0  0  0  0  0  0  0  0  0  0
    9.1890   -3.5540   24.0140 C   0  0  0  0  0  0  0  0  0  0  0  0
    7.8700   -2.0610   25.3550 C   0  0  0  0  0  0  0  0  0  0  0  0
    4.6610    1.7170   18.4380 C   0  0  0  0  0  0  0  0  0  0  0  0
    9.5890   -2.4950   23.2210 C   0  0  0  0  0  0  0  0  0  0  0  0
    8.2550   -1.0010   24.5520 C   0  0  0  0  0  0  0  0  0  0  0  0
   12.6785   -0.3936   24.5018 C   0  0  0  0  0  0  0  0  0  0  0  0
    7.5840   -0.2700   18.5160 C   0  0  0  0  0  0  0  0  0  0  0  0
   13.7775   -1.2037   24.3186 C   0  0  0  0  0  0  0  0  0  0  0  0
   12.5401   -0.8378   22.2246 C   0  0  0  0  0  0  0  0  0  0  0  0
    6.1460    0.6070   19.9750 C   0  0  0  0  0  0  0  0  0  0  0  0
    8.3450   -3.3440   25.0980 C   0  0  0  0  0  0  0  0  0  0  0  0
   11.9616   -0.1817   23.2889 C   0  0  0  0  0  0  0  0  0  0  0  0
    5.7970    0.9500   18.6730 C   0  0  0  0  0  0  0  0  0  0  0  0
    9.1280   -1.2090   23.4870 C   0  0  0  0  0  0  0  0  0  0  0  0
    7.2710   -0.1460   19.8310 C   0  0  0  0  0  0  0  0  0  0  0  0
    9.0430    0.2380   21.4940 C   0  0  0  0  0  0  0  0  0  0  0  0
    7.9522   -4.4794   25.9764 C   0  0  0  0  0  0  0  0  0  0  0  0
   10.7220    0.6590   23.1850 C   0  0  0  0  0  0  0  0  0  0  0  0
    6.7100    0.3850   17.8100 N   0  0  0  0  0  0  0  0  0  0  0  0
    8.0950   -0.7700   20.8440 N   0  0  0  0  0  0  0  0  0  0  0  0
    9.5820   -0.1080   22.7000 N   0  0  0  0  0  0  0  0  0  0  0  0
    9.2950    1.3000   20.9480 O   0  0  0  0  0  0  0  0  0  0  0  0
   13.9416   -1.7050   22.6894 S   0  0  0  0  0  0  0  0  0  0  0  0
    3.6208    2.0704   21.6579 H   0  0  0  0  0  0  0  0  0  0  0  0
    2.9857    2.6926   19.3615 H   0  0  0  0  0  0  0  0  0  0  0  0
    5.6664    0.7407   22.0807 H   0  0  0  0  0  0  0  0  0  0  0  0
    9.5403   -4.5627   23.7809 H   0  0  0  0  0  0  0  0  0  0  0  0
    7.1911   -1.8848   26.1904 H   0  0  0  0  0  0  0  0  0  0  0  0
    4.3794    2.0106   17.4221 H   0  0  0  0  0  0  0  0  0  0  0  0
   10.2682   -2.6746   22.3865 H   0  0  0  0  0  0  0  0  0  0  0  0
    7.8684   -0.0022   24.7594 H   0  0  0  0  0  0  0  0  0  0  0  0
   12.4058    0.0253   25.4623 H   0  0  0  0  0  0  0  0  0  0  0  0
    8.4172   -0.8135   18.0384 H   0  0  0  0  0  0  0  0  0  0  0  0
   14.4923   -1.5245   25.0631 H   0  0  0  0  0  0  0  0  0  0  0  0
   12.2108   -0.8511   21.1948 H   0  0  0  0  0  0  0  0  0  0  0  0
    8.6668   -4.5891   26.8013 H   0  0  0  0  0  0  0  0  0  0  0  0
    6.9513   -4.3276   26.4010 H   0  0  0  0  0  0  0  0  0  0  0  0
    7.9196   -5.4231   25.4163 H   0  0  0  0  0  0  0  0  0  0  0  0
   10.4561    1.0772   24.1620 H   0  0  0  0  0  0  0  0  0  0  0  0
   10.8743    1.5008   22.5014 H   0  0  0  0  0  0  0  0  0  0  0  0
    6.6715    0.4865   16.8044 H   0  0  0  0  0  0  0  0  0  0  0  0
    8.0705   -1.6178   21.0726 H   0  0  0  0  0  0  0  0  0  0  0  0
  1  2  1  0  0  0  0
  1  3  2  0  0  0  0
  2  6  2  0  0  0  0
  3 13  1  0  0  0  0
  4  7  2  0  0  0  0
  4 14  1  0  0  0  0
  5  8  1  0  0  0  0
  5 14  2  0  0  0  0
  6 16  1  0  0  0  0
  7 17  1  0  0  0  0
  8 17  2  0  0  0  0
  9 11  2  0  0  0  0
  9 15  1  0  0  0  0
 10 18  2  0  0  0  0
 10 22  1  0  0  0  0
 11 26  1  0  0  0  0
 12 15  2  0  0  0  0
 12 26  1  0  0  0  0
 13 16  2  0  0  0  0
 13 18  1  0  0  0  0
 14 20  1  0  0  0  0
 15 21  1  0  0  0  0
 16 22  1  0  0  0  0
 17 24  1  0  0  0  0
 18 23  1  0  0  0  0
 19 23  1  0  0  0  0
 19 24  1  0  0  0  0
 19 25  2  0  0  0  0
 21 24  1  0  0  0  0
  1 27  1  0  0  0  0
  2 28  1  0  0  0  0
  3 29  1  0  0  0  0
  4 30  1  0  0  0  0
  5 31  1  0  0  0  0
  6 32  1  0  0  0  0
  7 33  1  0  0  0  0
  8 34  1  0  0  0  0
  9 35  1  0  0  0  0
 10 36  1  0  0  0  0
 11 37  1  0  0  0  0
 12 38  1  0  0  0  0
 20 39  1  0  0  0  0
 20 40  1  0  0  0  0
 20 41  1  0  0  0  0
 21 42  1  0  0  0  0
 21 43  1  0  0  0  0
 22 44  1  0  0  0  0
 23 45  1  0  0  0  0
M  END
> <clash_score>
0

> <docking_score>
-8.355205535888672

> <overlap_score>
0.8884325623512268

$$$$
BENZO_123_1
  -OEChem-08222022443D

 60 64  0     0  0  0  0  0  0999 V2000
    4.2460    1.7520   20.8250 C   0  0  0  0  0  0  0  0  0  0  0  0
    3.8860    2.1050   19.5250 C   0  0  0  0  0  0  0  0  0  0  0  0
    5.3890    1.0010   21.0690 C   0  0  0  0  0  0  0  0  0  0  0  0
    4.6610    1.7170   18.4380 C   0  0  0  0  0  0  0  0  0  0  0  0
    9.1890   -3.5540   24.0140 C   0  0  0  0  0  0  0  0  0  0  0  0
    7.8700   -2.0610   25.3550 C   0  0  0  0  0  0  0  0  0  0  0  0
    9.5890   -2.4950   23.2210 C   0  0  0  0  0  0  0  0  0  0  0  0
    8.2550   -1.0010   24.5520 C   0  0  0  0  0  0  0  0  0  0  0  0
   13.3010    0.2819   23.3762 C   0  0  0  0  0  0  0  0  0  0  0  0
   12.2469   -1.0164   21.9485 C   0  0  0  0  0  0  0  0  0  0  0  0
    7.5840   -0.2700   18.5160 C   0  0  0  0  0  0  0  0  0  0  0  0
    6.1460    0.6070   19.9750 C   0  0  0  0  0  0  0  0  0  0  0  0
   12.0277    0.0001   22.8458 C   0  0  0  0  0  0  0  0  0  0  0  0
    5.7970    0.9500   18.6730 C   0  0  0  0  0  0  0  0  0  0  0  0
    8.3450   -3.3440   25.0980 C   0  0  0  0  0  0  0  0  0  0  0  0
    9.1280   -1.2090   23.4870 C   0  0  0  0  0  0  0  0  0  0  0  0
    7.2710   -0.1460   19.8310 C   0  0  0  0  0  0  0  0  0  0  0  0
    9.0430    0.2380   21.4940 C   0  0  0  0  0  0  0  0  0  0  0  0
    7.5748   -4.8280   28.7278 C   0  0  0  0  0  0  0  0  0  0  0  0
    8.9776   -4.7555   28.1204 C   0  0  0  0  0  0  0  0  0  0  0  0
    6.5554   -4.0713   27.8732 C   0  0  0  0  0  0  0  0  0  0  0  0
    8.9620   -5.1961   26.6568 C   0  0  0  0  0  0  0  0  0  0  0  0
    6.6009   -4.5253   26.4110 C   0  0  0  0  0  0  0  0  0  0  0  0
   14.2950   -2.2646   21.2232 C   0  0  0  0  0  0  0  0  0  0  0  0
   10.7220    0.6590   23.1850 C   0  0  0  0  0  0  0  0  0  0  0  0
   14.2580   -0.4932   22.8591 N   0  0  0  0  0  0  0  0  0  0  0  0
    6.7100    0.3850   17.8100 N   0  0  0  0  0  0  0  0  0  0  0  0
   13.5858   -1.2720   21.9944 N   0  0  0  0  0  0  0  0  0  0  0  0
    7.9770   -4.4029   25.9162 N   0  0  0  0  0  0  0  0  0  0  0  0
    8.0950   -0.7700   20.8440 N   0  0  0  0  0  0  0  0  0  0  0  0
    9.5820   -0.1080   22.7000 N   0  0  0  0  0  0  0  0  0  0  0  0
    9.2950    1.3000   20.9480 O   0  0  0  0  0  0  0  0  0  0  0  0
    3.6208    2.0704   21.6579 H   0  0  0  0  0  0  0  0  0  0  0  0
    2.9857    2.6926   19.3615 H   0  0  0  0  0  0  0  0  0  0  0  0
    5.6664    0.7407   22.0807 H   0  0  0  0  0  0  0  0  0  0  0  0
    4.3794    2.0106   17.4221 H   0  0  0  0  0  0  0  0  0  0  0  0
    9.5426   -4.5618   23.7797 H   0  0  0  0  0  0  0  0  0  0  0  0
    7.1914   -1.8824   26.1903 H   0  0  0  0  0  0  0  0  0  0  0  0
   10.2669   -2.6745   22.3854 H   0  0  0  0  0  0  0  0  0  0  0  0
    7.8690   -0.0020   24.7587 H   0  0  0  0  0  0  0  0  0  0  0  0
   13.5736    1.0185   24.1187 H   0  0  0  0  0  0  0  0  0  0  0  0
   11.5805   -1.5669   21.2983 H   0  0  0  0  0  0  0  0  0  0  0  0
    8.4172   -0.8135   18.0384 H   0  0  0  0  0  0  0  0  0  0  0  0
    7.2681   -5.8807   28.8239 H   0  0  0  0  0  0  0  0  0  0  0  0
    7.5891   -4.4101   29.7448 H   0  0  0  0  0  0  0  0  0  0  0  0
    9.3554   -3.7320   28.1920 H   0  0  0  0  0  0  0  0  0  0  0  0
    9.6558   -5.3943   28.6900 H   0  0  0  0  0  0  0  0  0  0  0  0
    5.5496   -4.2322   28.2751 H   0  0  0  0  0  0  0  0  0  0  0  0
    6.7545   -2.9948   27.9293 H   0  0  0  0  0  0  0  0  0  0  0  0
    9.9612   -5.0560   26.2363 H   0  0  0  0  0  0  0  0  0  0  0  0
    8.7097   -6.2583   26.5922 H   0  0  0  0  0  0  0  0  0  0  0  0
    6.2649   -5.5600   26.3335 H   0  0  0  0  0  0  0  0  0  0  0  0
    5.9271   -3.8964   25.8283 H   0  0  0  0  0  0  0  0  0  0  0  0
   14.6200   -1.7975   20.2898 H   0  0  0  0  0  0  0  0  0  0  0  0
   15.1576   -2.6206   21.7932 H   0  0  0  0  0  0  0  0  0  0  0  0
   13.6285   -3.1071   21.0185 H   0  0  0  0  0  0  0  0  0  0  0  0
   10.6163    0.7710   24.2696 H   0  0  0  0  0  0  0  0  0  0  0  0
   10.6620    1.6610   22.7472 H   0  0  0  0  0  0  0  0  0  0  0  0
    6.6715    0.4865   16.8044 H   0  0  0  0  0  0  0  0  0  0  0  0
    8.0897   -1.6082   21.0890 H   0  0  0  0  0  0  0  0  0  0  0  0
  1  2  1  0  0  0  0
  1  3  2  0  0  0  0
  2  4  2  0  0  0  0
  3 12  1  0  0  0  0
  4 14  1  0  0  0  0
  5  7  2  0  0  0  0
  5 15  1  0  0  0  0
  6  8  1  0  0  0  0
  6 15  2  0  0  0  0
  7 16  1  0  0  0  0
  8 16  2  0  0  0  0
  9 13  1  0  0  0  0
  9 26  2  0  0  0  0
 10 13  2  0  0  0  0
 10 28  1  0  0  0  0
 11 17  2  0  0  0  0
 11 27  1  0  0  0  0
 12 14  2  0  0  0  0
 12 17  1  0  0  0  0
 13 25  1  0  0  0  0
 14 27  1  0  0  0  0
 15 29  1  0  0  0  0
 16 31  1  0  0  0  0
 17 30  1  0  0  0  0
 18 30  1  0  0  0  0
 18 31  1  0  0  0  0
 18 32  2  0  0  0  0
 19 20  1  0  0  0  0
 19 21  1  0  0  0  0
 20 22  1  0  0  0  0
 21 23  1  0  0  0  0
 22 29  1  0  0  0  0
 23 29  1  0  0  0  0
 24 28  1  0  0  0  0
 25 31  1  0  0  0  0
 26 28  1  0  0  0  0
  1 33  1  0  0  0  0
  2 34  1  0  0  0  0
  3 35  1  0  0  0  0
  4 36  1  0  0  0  0
  5 37  1  0  0  0  0
  6 38  1  0  0  0  0
  7 39  1  0  0  0  0
  8 40  1  0  0  0  0
  9 41  1  0  0  0  0
 10 42  1  0  0  0  0
 11 43  1  0  0  0  0
 19 44  1  0  0  0  0
 19 45  1  0  0  0  0
 20 46  1  0  0  0  0
 20 47  1  0  0  0  0
 21 48  1  0  0  0  0
 21 49  1  0  0  0  0
 22 50  1  0  0  0  0
 22 51  1  0  0  0  0
 23 52  1  0  0  0  0
 23 53  1  0  0  0  0
 24 54  1  0  0  0  0
 24 55  1  0  0  0  0
 24 56  1  0  0  0  0
 25 57  1  0  0  0  0
 25 58  1  0  0  0  0
 27 59  1  0  0  0  0
 30 60  1  0  0  0  0
M  END
> <clash_score>
0

> <docking_score>
-9.259577751159668

> <overlap_score>
0.9690294861793518

$$$$
BENZO_122_1
  -OEChem-08222022443D

 60 64  0     0  0  0  0  0  0999 V2000
    4.2460    1.7520   20.8250 C   0  0  0  0  0  0  0  0  0  0  0  0
    3.8860    2.1050   19.5250 C   0  0  0  0  0  0  0  0  0  0  0  0
   13.7501   -1.1157   24.6176 C   0  0  0  0  0  0  0  0  0  0  0  0
    5.3890    1.0010   21.0690 C   0  0  0  0  0  0  0  0  0  0  0  0
   12.5991   -0.3339   24.5202 C   0  0  0  0  0  0  0  0  0  0  0  0
    4.6610    1.7170   18.4380 C   0  0  0  0  0  0  0  0  0  0  0  0
    9.1890   -3.5540   24.0140 C   0  0  0  0  0  0  0  0  0  0  0  0
    7.8700   -2.0610   25.3550 C   0  0  0  0  0  0  0  0  0  0  0  0
    9.5890   -2.4950   23.2210 C   0  0  0  0  0  0  0  0  0  0  0  0
    8.2550   -1.0010   24.5520 C   0  0  0  0  0  0  0  0  0  0  0  0
   14.2636   -1.7454   23.4838 C   0  0  0  0  0  0  0  0  0  0  0  0
   12.4750   -0.8115   22.1551 C   0  0  0  0  0  0  0  0  0  0  0  0
    7.5840   -0.2700   18.5160 C   0  0  0  0  0  0  0  0  0  0  0  0
    6.1460    0.6070   19.9750 C   0  0  0  0  0  0  0  0  0  0  0  0
   11.9616   -0.1817   23.2889 C   0  0  0  0  0  0  0  0  0  0  0  0
    5.7970    0.9500   18.6730 C   0  0  0  0  0  0  0  0  0  0  0  0
    8.3450   -3.3440   25.0980 C   0  0  0  0  0  0  0  0  0  0  0  0
    9.1280   -1.2090   23.4870 C   0  0  0  0  0  0  0  0  0  0  0  0
    7.2710   -0.1460   19.8310 C   0  0  0  0  0  0  0  0  0  0  0  0
   13.6260   -1.5933   22.2526 C   0  0  0  0  0  0  0  0  0  0  0  0
    9.0430    0.2380   21.4940 C   0  0  0  0  0  0  0  0  0  0  0  0
    7.5748   -4.8280   28.7278 C   0  0  0  0  0  0  0  0  0  0  0  0
    8.9776   -4.7555   28.1204 C   0  0  0  0  0  0  0  0  0  0  0  0
    6.5554   -4.0713   27.8732 C   0  0  0  0  0  0  0  0  0  0  0  0
    8.9620   -5.1961   26.6568 C   0  0  0  0  0  0  0  0  0  0  0  0
    6.6009   -4.5253   26.4110 C   0  0  0  0  0  0  0  0  0  0  0  0
   10.7220    0.6590   23.1850 C   0  0  0  0  0  0  0  0  0  0  0  0
    6.7100    0.3850   17.8100 N   0  0  0  0  0  0  0  0  0  0  0  0
    7.9770   -4.4029   25.9162 N   0  0  0  0  0  0  0  0  0  0  0  0
    8.0950   -0.7700   20.8440 N   0  0  0  0  0  0  0  0  0  0  0  0
    9.5820   -0.1080   22.7000 N   0  0  0  0  0  0  0  0  0  0  0  0
    9.2950    1.3000   20.9480 O   0  0  0  0  0  0  0  0  0  0  0  0
   14.2594   -2.3714   20.8543 Cl  0  0  0  0  0  0  0  0  0  0  0  0
    3.6208    2.0704   21.6579 H   0  0  0  0  0  0  0  0  0  0  0  0
    2.9857    2.6926   19.3615 H   0  0  0  0  0  0  0  0  0  0  0  0
   14.2462   -1.2340   25.5766 H   0  0  0  0  0  0  0  0  0  0  0  0
    5.6664    0.7407   22.0807 H   0  0  0  0  0  0  0  0  0  0  0  0
   12.2060    0.1530   25.4088 H   0  0  0  0  0  0  0  0  0  0  0  0
    4.3794    2.0106   17.4221 H   0  0  0  0  0  0  0  0  0  0  0  0
    9.5426   -4.5618   23.7797 H   0  0  0  0  0  0  0  0  0  0  0  0
    7.1914   -1.8824   26.1903 H   0  0  0  0  0  0  0  0  0  0  0  0
   10.2669   -2.6745   22.3854 H   0  0  0  0  0  0  0  0  0  0  0  0
    7.8690   -0.0020   24.7587 H   0  0  0  0  0  0  0  0  0  0  0  0
   15.1613   -2.3520   23.5747 H   0  0  0  0  0  0  0  0  0  0  0  0
   11.9745   -0.6893   21.1973 H   0  0  0  0  0  0  0  0  0  0  0  0
    8.4172   -0.8135   18.0384 H   0  0  0  0  0  0  0  0  0  0  0  0
    7.2681   -5.8807   28.8239 H   0  0  0  0  0  0  0  0  0  0  0  0
    7.5891   -4.4101   29.7448 H   0  0  0  0  0  0  0  0  0  0  0  0
    9.3554   -3.7320   28.1920 H   0  0  0  0  0  0  0  0  0  0  0  0
    9.6558   -5.3943   28.6900 H   0  0  0  0  0  0  0  0  0  0  0  0
    5.5496   -4.2322   28.2751 H   0  0  0  0  0  0  0  0  0  0  0  0
    6.7545   -2.9948   27.9293 H   0  0  0  0  0  0  0  0  0  0  0  0
    9.9612   -5.0560   26.2363 H   0  0  0  0  0  0  0  0  0  0  0  0
    8.7097   -6.2583   26.5922 H   0  0  0  0  0  0  0  0  0  0  0  0
    6.2649   -5.5600   26.3335 H   0  0  0  0  0  0  0  0  0  0  0  0
    5.9271   -3.8964   25.8283 H   0  0  0  0  0  0  0  0  0  0  0  0
   10.4561    1.0772   24.1620 H   0  0  0  0  0  0  0  0  0  0  0  0
   10.8743    1.5008   22.5014 H   0  0  0  0  0  0  0  0  0  0  0  0
    6.6715    0.4865   16.8044 H   0  0  0  0  0  0  0  0  0  0  0  0
    8.0897   -1.6082   21.0890 H   0  0  0  0  0  0  0  0  0  0  0  0
  1  2  1  0  0  0  0
  1  4  2  0  0  0  0
  2  6  2  0  0  0  0
  3  5  2  0  0  0  0
  3 11  1  0  0  0  0
  4 14  1  0  0  0  0
  5 15  1  0  0  0  0
  6 16  1  0  0  0  0
  7  9  2  0  0  0  0
  7 17  1  0  0  0  0
  8 10  1  0  0  0  0
  8 17  2  0  0  0  0
  9 18  1  0  0  0  0
 10 18  2  0  0  0  0
 11 20  2  0  0  0  0
 12 15  2  0  0  0  0
 12 20  1  0  0  0  0
 13 19  2  0  0  0  0
 13 28  1  0  0  0  0
 14 16  2  0  0  0  0
 14 19  1  0  0  0  0
 15 27  1  0  0  0  0
 16 28  1  0  0  0  0
 17 29  1  0  0  0  0
 18 31  1  0  0  0  0
 19 30  1  0  0  0  0
 20 33  1  0  0  0  0
 21 30  1  0  0  0  0
 21 31  1  0  0  0  0
 21 32  2  0  0  0  0
 22 23  1  0  0  0  0
 22 24  1  0  0  0  0
 23 25  1  0  0  0  0
 24 26  1  0  0  0  0
 25 29  1  0  0  0  0
 26 29  1  0  0  0  0
 27 31  1  0  0  0  0
  1 34  1  0  0  0  0
  2 35  1  0  0  0  0
  3 36  1  0  0  0  0
  4 37  1  0  0  0  0
  5 38  1  0  0  0  0
  6 39  1  0  0  0  0
  7 40  1  0  0  0  0
  8 41  1  0  0  0  0
  9 42  1  0  0  0  0
 10 43  1  0  0  0  0
 11 44  1  0  0  0  0
 12 45  1  0  0  0  0
 13 46  1  0  0  0  0
 22 47  1  0  0  0  0
 22 48  1  0  0  0  0
 23 49  1  0  0  0  0
 23 50  1  0  0  0  0
 24 51  1  0  0  0  0
 24 52  1  0  0  0  0
 25 53  1  0  0  0  0
 25 54  1  0  0  0  0
 26 55  1  0  0  0  0
 26 56  1  0  0  0  0
 27 57  1  0  0  0  0
 27 58  1  0  0  0  0
 28 59  1  0  0  0  0
 30 60  1  0  0  0  0
M  END
> <clash_score>
0

> <docking_score>
-8.76950740814209

> <overlap_score>
0.9978207945823669

$$$$
BENZO_126_1
  -OEChem-08222022443D

 48 51  0     0  0  0  0  0  0999 V2000
    4.2460    1.7520   20.8250 C   0  0  0  0  0  0  0  0  0  0  0  0
    3.8860    2.1050   19.5250 C   0  0  0  0  0  0  0  0  0  0  0  0
   13.7501   -1.1157   24.6176 C   0  0  0  0  0  0  0  0  0  0  0  0
    5.3890    1.0010   21.0690 C   0  0  0  0  0  0  0  0  0  0  0  0
   12.5991   -0.3339   24.5202 C   0  0  0  0  0  0  0  0  0  0  0  0
    9.1890   -3.5540   24.0140 C   0  0  0  0  0  0  0  0  0  0  0  0
    7.8700   -2.0610   25.3550 C   0  0  0  0  0  0  0  0  0  0  0  0
    4.6610    1.7170   18.4380 C   0  0  0  0  0  0  0  0  0  0  0  0
    9.5890   -2.4950   23.2210 C   0  0  0  0  0  0  0  0  0  0  0  0
    8.2550   -1.0010   24.5520 C   0  0  0  0  0  0  0  0  0  0  0  0
   14.2636   -1.7454   23.4838 C   0  0  0  0  0  0  0  0  0  0  0  0
   12.4750   -0.8115   22.1551 C   0  0  0  0  0  0  0  0  0  0  0  0
    7.5840   -0.2700   18.5160 C   0  0  0  0  0  0  0  0  0  0  0  0
    6.1460    0.6070   19.9750 C   0  0  0  0  0  0  0  0  0  0  0  0
    8.3450   -3.3440   25.0980 C   0  0  0  0  0  0  0  0  0  0  0  0
   11.9616   -0.1817   23.2889 C   0  0  0  0  0  0  0  0  0  0  0  0
    5.7970    0.9500   18.6730 C   0  0  0  0  0  0  0  0  0  0  0  0
    9.1280   -1.2090   23.4870 C   0  0  0  0  0  0  0  0  0  0  0  0
    7.2710   -0.1460   19.8310 C   0  0  0  0  0  0  0  0  0  0  0  0
   13.6261   -1.5933   22.2526 C   0  0  0  0  0  0  0  0  0  0  0  0
    9.0430    0.2380   21.4940 C   0  0  0  0  0  0  0  0  0  0  0  0
    7.9522   -4.4794   25.9764 C   0  0  0  0  0  0  0  0  0  0  0  0
   10.7220    0.6590   23.1850 C   0  0  0  0  0  0  0  0  0  0  0  0
    6.7100    0.3850   17.8100 N   0  0  0  0  0  0  0  0  0  0  0  0
    8.0950   -0.7700   20.8440 N   0  0  0  0  0  0  0  0  0  0  0  0
    9.5820   -0.1080   22.7000 N   0  0  0  0  0  0  0  0  0  0  0  0
    9.2950    1.3000   20.9480 O   0  0  0  0  0  0  0  0  0  0  0  0
   14.2594   -2.3714   20.8543 Cl  0  0  0  0  0  0  0  0  0  0  0  0
    3.6208    2.0704   21.6579 H   0  0  0  0  0  0  0  0  0  0  0  0
    2.9857    2.6926   19.3615 H   0  0  0  0  0  0  0  0  0  0  0  0
   14.2462   -1.2340   25.5766 H   0  0  0  0  0  0  0  0  0  0  0  0
    5.6664    0.7407   22.0807 H   0  0  0  0  0  0  0  0  0  0  0  0
   12.2060    0.1530   25.4088 H   0  0  0  0  0  0  0  0  0  0  0  0
    9.5403   -4.5627   23.7809 H   0  0  0  0  0  0  0  0  0  0  0  0
    7.1911   -1.8848   26.1904 H   0  0  0  0  0  0  0  0  0  0  0  0
    4.3794    2.0106   17.4221 H   0  0  0  0  0  0  0  0  0  0  0  0
   10.2682   -2.6746   22.3865 H   0  0  0  0  0  0  0  0  0  0  0  0
    7.8684   -0.0022   24.7594 H   0  0  0  0  0  0  0  0  0  0  0  0
   15.1613   -2.3520   23.5747 H   0  0  0  0  0  0  0  0  0  0  0  0
   11.9745   -0.6893   21.1973 H   0  0  0  0  0  0  0  0  0  0  0  0
    8.4172   -0.8135   18.0384 H   0  0  0  0  0  0  0  0  0  0  0  0
    8.6668   -4.5891   26.8013 H   0  0  0  0  0  0  0  0  0  0  0  0
    6.9513   -4.3276   26.4010 H   0  0  0  0  0  0  0  0  0  0  0  0
    7.9196   -5.4231   25.4163 H   0  0  0  0  0  0  0  0  0  0  0  0
   10.4561    1.0772   24.1620 H   0  0  0  0  0  0  0  0  0  0  0  0
   10.8743    1.5008   22.5014 H   0  0  0  0  0  0  0  0  0  0  0  0
    6.6715    0.4865   16.8044 H   0  0  0  0  0  0  0  0  0  0  0  0
    8.0705   -1.6178   21.0726 H   0  0  0  0  0  0  0  0  0  0  0  0
  1  2  1  0  0  0  0
  1  4  2  0  0  0  0
  2  8  2  0  0  0  0
  3  5  2  0  0  0  0
  3 11  1  0  0  0  0
  4 14  1  0  0  0  0
  5 16  1  0  0  0  0
  6  9  2  0  0  0  0
  6 15  1  0  0  0  0
  7 10  1  0  0  0  0
  7 15  2  0  0  0  0
  8 17  1  0  0  0  0
  9 18  1  0  0  0  0
 10 18  2  0  0  0  0
 11 20  2  0  0  0  0
 12 16  2  0  0  0  0
 12 20  1  0  0  0  0
 13 19  2  0  0  0  0
 13 24  1  0  0  0  0
 14 17  2  0  0  0  0
 14 19  1  0  0  0  0
 15 22  1  0  0  0  0
 16 23  1  0  0  0  0
 17 24  1  0  0  0  0
 18 26  1  0  0  0  0
 19 25  1  0  0  0  0
 20 28  1  0  0  0  0
 21 25  1  0  0  0  0
 21 26  1  0  0  0  0
 21 27  2  0  0  0  0
 23 26  1  0  0  0  0
  1 29  1  0  0  0  0
  2 30  1  0  0  0  0
  3 31  1  0  0  0  0
  4 32  1  0  0  0  0
  5 33  1  0  0  0  0
  6 34  1  0  0  0  0
  7 35  1  0  0  0  0
  8 36  1  0  0  0  0
  9 37  1  0  0  0  0
 10 38  1  0  0  0  0
 11 39  1  0  0  0  0
 12 40  1  0  0  0  0
 13 41  1  0  0  0  0
 22 42  1  0  0  0  0
 22 43  1  0  0  0  0
 22 44  1  0  0  0  0
 23 45  1  0  0  0  0
 23 46  1  0  0  0  0
 24 47  1  0  0  0  0
 25 48  1  0  0  0  0
M  END
> <clash_score>
0

> <docking_score>
-7.868398666381836

> <overlap_score>
0.9100707769393921

$$$$
BENZO_129_1
  -OEChem-08222022443D

 49 52  0     0  0  0  0  0  0999 V2000
   14.2642   -1.7450   23.4813 C   0  0  0  0  0  0  0  0  0  0  0  0
    4.2460    1.7520   20.8250 C   0  0  0  0  0  0  0  0  0  0  0  0
   14.0779   -0.6681   24.3480 C   0  0  0  0  0  0  0  0  0  0  0  0
   13.2991   -2.0403   22.5184 C   0  0  0  0  0  0  0  0  0  0  0  0
    3.8860    2.1050   19.5250 C   0  0  0  0  0  0  0  0  0  0  0  0
    5.3890    1.0010   21.0690 C   0  0  0  0  0  0  0  0  0  0  0  0
   12.9266    0.1135   24.2518 C   0  0  0  0  0  0  0  0  0  0  0  0
   12.1478   -1.2587   22.4222 C   0  0  0  0  0  0  0  0  0  0  0  0
    4.6610    1.7170   18.4380 C   0  0  0  0  0  0  0  0  0  0  0  0
    9.5890   -2.4950   23.2210 C   0  0  0  0  0  0  0  0  0  0  0  0
    8.2550   -1.0010   24.5520 C   0  0  0  0  0  0  0  0  0  0  0  0
    9.1890   -3.5540   24.0140 C   0  0  0  0  0  0  0  0  0  0  0  0
    7.8700   -2.0610   25.3550 C   0  0  0  0  0  0  0  0  0  0  0  0
    7.5840   -0.2700   18.5160 C   0  0  0  0  0  0  0  0  0  0  0  0
    6.1460    0.6070   19.9750 C   0  0  0  0  0  0  0  0  0  0  0  0
   11.9616   -0.1817   23.2889 C   0  0  0  0  0  0  0  0  0  0  0  0
    5.7970    0.9500   18.6730 C   0  0  0  0  0  0  0  0  0  0  0  0
    9.1280   -1.2090   23.4870 C   0  0  0  0  0  0  0  0  0  0  0  0
    7.2710   -0.1460   19.8310 C   0  0  0  0  0  0  0  0  0  0  0  0
    8.3450   -3.3440   25.0980 C   0  0  0  0  0  0  0  0  0  0  0  0
    9.0430    0.2380   21.4940 C   0  0  0  0  0  0  0  0  0  0  0  0
    8.5123   -5.6657   25.5744 C   0  0  0  0  0  0  0  0  0  0  0  0
   10.7220    0.6590   23.1850 C   0  0  0  0  0  0  0  0  0  0  0  0
    6.7100    0.3850   17.8100 N   0  0  0  0  0  0  0  0  0  0  0  0
    8.0950   -0.7700   20.8440 N   0  0  0  0  0  0  0  0  0  0  0  0
    9.5820   -0.1080   22.7000 N   0  0  0  0  0  0  0  0  0  0  0  0
    9.2950    1.3000   20.9480 O   0  0  0  0  0  0  0  0  0  0  0  0
    7.9864   -4.3799   25.8996 O   0  0  0  0  0  0  0  0  0  0  0  0
   15.1613   -2.3527   23.5555 H   0  0  0  0  0  0  0  0  0  0  0  0
    3.6208    2.0704   21.6579 H   0  0  0  0  0  0  0  0  0  0  0  0
   14.8297   -0.4373   25.0971 H   0  0  0  0  0  0  0  0  0  0  0  0
   13.4443   -2.8780   21.8427 H   0  0  0  0  0  0  0  0  0  0  0  0
    2.9857    2.6926   19.3615 H   0  0  0  0  0  0  0  0  0  0  0  0
    5.6664    0.7407   22.0807 H   0  0  0  0  0  0  0  0  0  0  0  0
   12.7899    0.9506   24.9315 H   0  0  0  0  0  0  0  0  0  0  0  0
   11.4013   -1.4963   21.6690 H   0  0  0  0  0  0  0  0  0  0  0  0
    4.3794    2.0106   17.4221 H   0  0  0  0  0  0  0  0  0  0  0  0
   10.2678   -2.6746   22.3862 H   0  0  0  0  0  0  0  0  0  0  0  0
    7.8691   -0.0023   24.7606 H   0  0  0  0  0  0  0  0  0  0  0  0
    9.5404   -4.5633   23.7846 H   0  0  0  0  0  0  0  0  0  0  0  0
    7.1920   -1.8875   26.1914 H   0  0  0  0  0  0  0  0  0  0  0  0
    8.4172   -0.8135   18.0384 H   0  0  0  0  0  0  0  0  0  0  0  0
    8.1469   -6.4023   26.2941 H   0  0  0  0  0  0  0  0  0  0  0  0
    9.6044   -5.6298   25.5962 H   0  0  0  0  0  0  0  0  0  0  0  0
    8.1788   -5.9428   24.5716 H   0  0  0  0  0  0  0  0  0  0  0  0
   10.4561    1.0772   24.1620 H   0  0  0  0  0  0  0  0  0  0  0  0
   10.8743    1.5008   22.5014 H   0  0  0  0  0  0  0  0  0  0  0  0
    6.6715    0.4865   16.8044 H   0  0  0  0  0  0  0  0  0  0  0  0
    8.0705   -1.6178   21.0726 H   0  0  0  0  0  0  0  0  0  0  0  0
  1  3  1  0  0  0  0
  1  4  2  0  0  0  0
  2  5  1  0  0  0  0
  2  6  2  0  0  0  0
  3  7  2  0  0  0  0
  4  8  1  0  0  0  0
  5  9  2  0  0  0  0
  6 15  1  0  0  0  0
  7 16  1  0  0  0  0
  8 16  2  0  0  0  0
  9 17  1  0  0  0  0
 10 12  2  0  0  0  0
 10 18  1  0  0  0  0
 11 13  1  0  0  0  0
 11 18  2  0  0  0  0
 12 20  1  0  0  0  0
 13 20  2  0  0  0  0
 14 19  2  0  0  0  0
 14 24  1  0  0  0  0
 15 17  2  0  0  0  0
 15 19  1  0  0  0  0
 16 23  1  0  0  0  0
 17 24  1  0  0  0  0
 18 26  1  0  0  0  0
 19 25  1  0  0  0  0
 20 28  1  0  0  0  0
 21 25  1  0  0  0  0
 21 26  1  0  0  0  0
 21 27  2  0  0  0  0
 22 28  1  0  0  0  0
 23 26  1  0  0  0  0
  1 29  1  0  0  0  0
  2 30  1  0  0  0  0
  3 31  1  0  0  0  0
  4 32  1  0  0  0  0
  5 33  1  0  0  0  0
  6 34  1  0  0  0  0
  7 35  1  0  0  0  0
  8 36  1  0  0  0  0
  9 37  1  0  0  0  0
 10 38  1  0  0  0  0
 11 39  1  0  0  0  0
 12 40  1  0  0  0  0
 13 41  1  0  0  0  0
 14 42  1  0  0  0  0
 22 43  1  0  0  0  0
 22 44  1  0  0  0  0
 22 45  1  0  0  0  0
 23 46  1  0  0  0  0
 23 47  1  0  0  0  0
 24 48  1  0  0  0  0
 25 49  1  0  0  0  0
M  END
> <clash_score>
0

> <docking_score>
-9.03470230102539

> <overlap_score>
0.9154636263847351

$$$$
BENZO_127_1
  -OEChem-08222022443D

 48 51  0     0  0  0  0  0  0999 V2000
    4.2460    1.7520   20.8250 C   0  0  0  0  0  0  0  0  0  0  0  0
    3.8860    2.1050   19.5250 C   0  0  0  0  0  0  0  0  0  0  0  0
    5.3890    1.0010   21.0690 C   0  0  0  0  0  0  0  0  0  0  0  0
    9.1890   -3.5540   24.0140 C   0  0  0  0  0  0  0  0  0  0  0  0
    7.8700   -2.0610   25.3550 C   0  0  0  0  0  0  0  0  0  0  0  0
    4.6610    1.7170   18.4380 C   0  0  0  0  0  0  0  0  0  0  0  0
    9.5890   -2.4950   23.2210 C   0  0  0  0  0  0  0  0  0  0  0  0
    8.2550   -1.0010   24.5520 C   0  0  0  0  0  0  0  0  0  0  0  0
   12.7320   -0.4464   24.4370 C   0  0  0  0  0  0  0  0  0  0  0  0
   12.5970   -0.8682   22.2832 C   0  0  0  0  0  0  0  0  0  0  0  0
    7.5840   -0.2700   18.5160 C   0  0  0  0  0  0  0  0  0  0  0  0
    6.1460    0.6070   19.9750 C   0  0  0  0  0  0  0  0  0  0  0  0
    8.3450   -3.3440   25.0980 C   0  0  0  0  0  0  0  0  0  0  0  0
   11.9616   -0.1817   23.2889 C   0  0  0  0  0  0  0  0  0  0  0  0
    5.7970    0.9500   18.6730 C   0  0  0  0  0  0  0  0  0  0  0  0
    9.1280   -1.2090   23.4870 C   0  0  0  0  0  0  0  0  0  0  0  0
    7.2710   -0.1460   19.8310 C   0  0  0  0  0  0  0  0  0  0  0  0
    9.0430    0.2380   21.4940 C   0  0  0  0  0  0  0  0  0  0  0  0
    7.9522   -4.4794   25.9764 C   0  0  0  0  0  0  0  0  0  0  0  0
   14.6393   -2.3180   22.2082 C   0  0  0  0  0  0  0  0  0  0  0  0
   10.7220    0.6590   23.1850 C   0  0  0  0  0  0  0  0  0  0  0  0
   13.7770   -1.2393   24.1852 N   0  0  0  0  0  0  0  0  0  0  0  0
    6.7100    0.3850   17.8100 N   0  0  0  0  0  0  0  0  0  0  0  0
   13.6676   -1.4788   22.8673 N   0  0  0  0  0  0  0  0  0  0  0  0
    8.0950   -0.7700   20.8440 N   0  0  0  0  0  0  0  0  0  0  0  0
    9.5820   -0.1080   22.7000 N   0  0  0  0  0  0  0  0  0  0  0  0
    9.2950    1.3000   20.9480 O   0  0  0  0  0  0  0  0  0  0  0  0
    3.6208    2.0704   21.6579 H   0  0  0  0  0  0  0  0  0  0  0  0
    2.9857    2.6926   19.3615 H   0  0  0  0  0  0  0  0  0  0  0  0
    5.6664    0.7407   22.0807 H   0  0  0  0  0  0  0  0  0  0  0  0
    9.5403   -4.5627   23.7809 H   0  0  0  0  0  0  0  0  0  0  0  0
    7.1911   -1.8848   26.1904 H   0  0  0  0  0  0  0  0  0  0  0  0
    4.3794    2.0106   17.4221 H   0  0  0  0  0  0  0  0  0  0  0  0
   10.2682   -2.6746   22.3865 H   0  0  0  0  0  0  0  0  0  0  0  0
    7.8684   -0.0022   24.7594 H   0  0  0  0  0  0  0  0  0  0  0  0
   12.5771   -0.0965   25.4478 H   0  0  0  0  0  0  0  0  0  0  0  0
   12.3832   -0.9726   21.2281 H   0  0  0  0  0  0  0  0  0  0  0  0
    8.4172   -0.8135   18.0384 H   0  0  0  0  0  0  0  0  0  0  0  0
    8.6668   -4.5891   26.8013 H   0  0  0  0  0  0  0  0  0  0  0  0
    6.9513   -4.3276   26.4010 H   0  0  0  0  0  0  0  0  0  0  0  0
    7.9196   -5.4231   25.4163 H   0  0  0  0  0  0  0  0  0  0  0  0
   15.4522   -1.6787   21.8540 H   0  0  0  0  0  0  0  0  0  0  0  0
   15.0179   -3.0612   22.9154 H   0  0  0  0  0  0  0  0  0  0  0  0
   14.1626   -2.8324   21.3691 H   0  0  0  0  0  0  0  0  0  0  0  0
   10.4561    1.0772   24.1620 H   0  0  0  0  0  0  0  0  0  0  0  0
   10.8743    1.5008   22.5014 H   0  0  0  0  0  0  0  0  0  0  0  0
    6.6715    0.4865   16.8044 H   0  0  0  0  0  0  0  0  0  0  0  0
    8.0705   -1.6178   21.0726 H   0  0  0  0  0  0  0  0  0  0  0  0
  1  2  1  0  0  0  0
  1  3  2  0  0  0  0
  2  6  2  0  0  0  0
  3 12  1  0  0  0  0
  4  7  2  0  0  0  0
  4 13  1  0  0  0  0
  5  8  1  0  0  0  0
  5 13  2  0  0  0  0
  6 15  1  0  0  0  0
  7 16  1  0  0  0  0
  8 16  2  0  0  0  0
  9 14  1  0  0  0  0
  9 22  2  0  0  0  0
 10 14  2  0  0  0  0
 10 24  1  0  0  0  0
 11 17  2  0  0  0  0
 11 23  1  0  0  0  0
 12 15  2  0  0  0  0
 12 17  1  0  0  0  0
 13 19  1  0  0  0  0
 14 21  1  0  0  0  0
 15 23  1  0  0  0  0
 16 26  1  0  0  0  0
 17 25  1  0  0  0  0
 18 25  1  0  0  0  0
 18 26  1  0  0  0  0
 18 27  2  0  0  0  0
 20 24  1  0  0  0  0
 21 26  1  0  0  0  0
 22 24  1  0  0  0  0
  1 28  1  0  0  0  0
  2 29  1  0  0  0  0
  3 30  1  0  0  0  0
  4 31  1  0  0  0  0
  5 32  1  0  0  0  0
  6 33  1  0  0  0  0
  7 34  1  0  0  0  0
  8 35  1  0  0  0  0
  9 36  1  0  0  0  0
 10 37  1  0  0  0  0
 11 38  1  0  0  0  0
 19 39  1  0  0  0  0
 19 40  1  0  0  0  0
 19 41  1  0  0  0  0
 20 42  1  0  0  0  0
 20 43  1  0  0  0  0
 20 44  1  0  0  0  0
 21 45  1  0  0  0  0
 21 46  1  0  0  0  0
 23 47  1  0  0  0  0
 25 48  1  0  0  0  0
M  END
> <clash_score>
0

> <docking_score>
-7.1044206619262695

> <overlap_score>
0.9054274559020996

$$$$
BENZO_128_1
  -OEChem-08222022443D

 46 49  0     0  0  0  0  0  0999 V2000
    4.2460    1.7520   20.8250 C   0  0  0  0  0  0  0  0  0  0  0  0
    3.8860    2.1050   19.5250 C   0  0  0  0  0  0  0  0  0  0  0  0
    5.3890    1.0010   21.0690 C   0  0  0  0  0  0  0  0  0  0  0  0
    4.6610    1.7170   18.4380 C   0  0  0  0  0  0  0  0  0  0  0  0
    9.5890   -2.4950   23.2210 C   0  0  0  0  0  0  0  0  0  0  0  0
    8.2550   -1.0010   24.5520 C   0  0  0  0  0  0  0  0  0  0  0  0
    9.1890   -3.5540   24.0140 C   0  0  0  0  0  0  0  0  0  0  0  0
    7.8700   -2.0610   25.3550 C   0  0  0  0  0  0  0  0  0  0  0  0
   12.5566   -0.8597   22.1860 C   0  0  0  0  0  0  0  0  0  0  0  0
    7.5840   -0.2700   18.5160 C   0  0  0  0  0  0  0  0  0  0  0  0
   13.6839   -1.5596   22.5559 C   0  0  0  0  0  0  0  0  0  0  0  0
   12.6568   -0.3896   24.4600 C   0  0  0  0  0  0  0  0  0  0  0  0
    6.1460    0.6070   19.9750 C   0  0  0  0  0  0  0  0  0  0  0  0
   11.9616   -0.1817   23.2889 C   0  0  0  0  0  0  0  0  0  0  0  0
    5.7970    0.9500   18.6730 C   0  0  0  0  0  0  0  0  0  0  0  0
    9.1280   -1.2090   23.4870 C   0  0  0  0  0  0  0  0  0  0  0  0
    7.2710   -0.1460   19.8310 C   0  0  0  0  0  0  0  0  0  0  0  0
    8.3450   -3.3440   25.0980 C   0  0  0  0  0  0  0  0  0  0  0  0
    9.0430    0.2380   21.4940 C   0  0  0  0  0  0  0  0  0  0  0  0
    8.5123   -5.6657   25.5744 C   0  0  0  0  0  0  0  0  0  0  0  0
   10.7220    0.6590   23.1850 C   0  0  0  0  0  0  0  0  0  0  0  0
    6.7100    0.3850   17.8100 N   0  0  0  0  0  0  0  0  0  0  0  0
    8.0950   -0.7700   20.8440 N   0  0  0  0  0  0  0  0  0  0  0  0
    9.5820   -0.1080   22.7000 N   0  0  0  0  0  0  0  0  0  0  0  0
    9.2950    1.3000   20.9480 O   0  0  0  0  0  0  0  0  0  0  0  0
    7.9864   -4.3799   25.8996 O   0  0  0  0  0  0  0  0  0  0  0  0
   14.0209   -1.3981   24.2270 S   0  0  0  0  0  0  0  0  0  0  0  0
    3.6208    2.0704   21.6579 H   0  0  0  0  0  0  0  0  0  0  0  0
    2.9857    2.6926   19.3615 H   0  0  0  0  0  0  0  0  0  0  0  0
    5.6664    0.7407   22.0807 H   0  0  0  0  0  0  0  0  0  0  0  0
    4.3794    2.0106   17.4221 H   0  0  0  0  0  0  0  0  0  0  0  0
   10.2678   -2.6746   22.3862 H   0  0  0  0  0  0  0  0  0  0  0  0
    7.8691   -0.0023   24.7606 H   0  0  0  0  0  0  0  0  0  0  0  0
    9.5404   -4.5633   23.7846 H   0  0  0  0  0  0  0  0  0  0  0  0
    7.1920   -1.8875   26.1914 H   0  0  0  0  0  0  0  0  0  0  0  0
   12.1799   -0.8381   21.1711 H   0  0  0  0  0  0  0  0  0  0  0  0
    8.4172   -0.8135   18.0384 H   0  0  0  0  0  0  0  0  0  0  0  0
   14.3253   -2.1586   21.9250 H   0  0  0  0  0  0  0  0  0  0  0  0
   12.4317   -0.0003   25.4433 H   0  0  0  0  0  0  0  0  0  0  0  0
    8.1469   -6.4023   26.2941 H   0  0  0  0  0  0  0  0  0  0  0  0
    9.6044   -5.6298   25.5962 H   0  0  0  0  0  0  0  0  0  0  0  0
    8.1788   -5.9428   24.5716 H   0  0  0  0  0  0  0  0  0  0  0  0
   10.4561    1.0772   24.1620 H   0  0  0  0  0  0  0  0  0  0  0  0
   10.8743    1.5008   22.5014 H   0  0  0  0  0  0  0  0  0  0  0  0
    6.6715    0.4865   16.8044 H   0  0  0  0  0  0  0  0  0  0  0  0
    8.0705   -1.6178   21.0726 H   0  0  0  0  0  0  0  0  0  0  0  0
  1  2  1  0  0  0  0
  1  3  2  0  0  0  0
  2  4  2  0  0  0  0
  3 13  1  0  0  0  0
  4 15  1  0  0  0  0
  5  7  2  0  0  0  0
  5 16  1  0  0  0  0
  6  8  1  0  0  0  0
  6 16  2  0  0  0  0
  7 18  1  0  0  0  0
  8 18  2  0  0  0  0
  9 11  2  0  0  0  0
  9 14  1  0  0  0  0
 10 17  2  0  0  0  0
 10 22  1  0  0  0  0
 11 27  1  0  0  0  0
 12 14  2  0  0  0  0
 12 27  1  0  0  0  0
 13 15  2  0  0  0  0
 13 17  1  0  0  0  0
 14 21  1  0  0  0  0
 15 22  1  0  0  0  0
 16 24  1  0  0  0  0
 17 23  1  0  0  0  0
 18 26  1  0  0  0  0
 19 23  1  0  0  0  0
 19 24  1  0  0  0  0
 19 25  2  0  0  0  0
 20 26  1  0  0  0  0
 21 24  1  0  0  0  0
  1 28  1  0  0  0  0
  2 29  1  0  0  0  0
  3 30  1  0  0  0  0
  4 31  1  0  0  0  0
  5 32  1  0  0  0  0
  6 33  1  0  0  0  0
  7 34  1  0  0  0  0
  8 35  1  0  0  0  0
  9 36  1  0  0  0  0
 10 37  1  0  0  0  0
 11 38  1  0  0  0  0
 12 39  1  0  0  0  0
 20 40  1  0  0  0  0
 20 41  1  0  0  0  0
 20 42  1  0  0  0  0
 21 43  1  0  0  0  0
 21 44  1  0  0  0  0
 22 45  1  0  0  0  0
 23 46  1  0  0  0  0
M  END
> <clash_score>
0

> <docking_score>
-8.423416137695312

> <overlap_score>
0.9034129977226257

$$$$
BENZO_131_1
  -OEChem-08222022443D

 49 52  0     0  0  0  0  0  0999 V2000
    4.2460    1.7520   20.8250 C   0  0  0  0  0  0  0  0  0  0  0  0
    3.8860    2.1050   19.5250 C   0  0  0  0  0  0  0  0  0  0  0  0
    5.3890    1.0010   21.0690 C   0  0  0  0  0  0  0  0  0  0  0  0
    4.6610    1.7170   18.4380 C   0  0  0  0  0  0  0  0  0  0  0  0
    9.5890   -2.4950   23.2210 C   0  0  0  0  0  0  0  0  0  0  0  0
    8.2550   -1.0010   24.5520 C   0  0  0  0  0  0  0  0  0  0  0  0
    9.1890   -3.5540   24.0140 C   0  0  0  0  0  0  0  0  0  0  0  0
    7.8700   -2.0610   25.3550 C   0  0  0  0  0  0  0  0  0  0  0  0
   12.7320   -0.4464   24.4370 C   0  0  0  0  0  0  0  0  0  0  0  0
   12.5970   -0.8682   22.2832 C   0  0  0  0  0  0  0  0  0  0  0  0
    7.5840   -0.2700   18.5160 C   0  0  0  0  0  0  0  0  0  0  0  0
    6.1460    0.6070   19.9750 C   0  0  0  0  0  0  0  0  0  0  0  0
   11.9616   -0.1817   23.2889 C   0  0  0  0  0  0  0  0  0  0  0  0
    5.7970    0.9500   18.6730 C   0  0  0  0  0  0  0  0  0  0  0  0
    9.1280   -1.2090   23.4870 C   0  0  0  0  0  0  0  0  0  0  0  0
    7.2710   -0.1460   19.8310 C   0  0  0  0  0  0  0  0  0  0  0  0
    8.3450   -3.3440   25.0980 C   0  0  0  0  0  0  0  0  0  0  0  0
    9.0430    0.2380   21.4940 C   0  0  0  0  0  0  0  0  0  0  0  0
   14.6393   -2.3180   22.2082 C   0  0  0  0  0  0  0  0  0  0  0  0
    8.5123   -5.6657   25.5744 C   0  0  0  0  0  0  0  0  0  0  0  0
   10.7220    0.6590   23.1850 C   0  0  0  0  0  0  0  0  0  0  0  0
   13.7770   -1.2393   24.1852 N   0  0  0  0  0  0  0  0  0  0  0  0
    6.7100    0.3850   17.8100 N   0  0  0  0  0  0  0  0  0  0  0  0
   13.6676   -1.4788   22.8673 N   0  0  0  0  0  0  0  0  0  0  0  0
    8.0950   -0.7700   20.8440 N   0  0  0  0  0  0  0  0  0  0  0  0
    9.5820   -0.1080   22.7000 N   0  0  0  0  0  0  0  0  0  0  0  0
    9.2950    1.3000   20.9480 O   0  0  0  0  0  0  0  0  0  0  0  0
    7.9864   -4.3799   25.8996 O   0  0  0  0  0  0  0  0  0  0  0  0
    3.6208    2.0704   21.6579 H   0  0  0  0  0  0  0  0  0  0  0  0
    2.9857    2.6926   19.3615 H   0  0  0  0  0  0  0  0  0  0  0  0
    5.6664    0.7407   22.0807 H   0  0  0  0  0  0  0  0  0  0  0  0
    4.3794    2.0106   17.4221 H   0  0  0  0  0  0  0  0  0  0  0  0
   10.2678   -2.6746   22.3862 H   0  0  0  0  0  0  0  0  0  0  0  0
    7.8691   -0.0023   24.7606 H   0  0  0  0  0  0  0  0  0  0  0  0
    9.5404   -4.5633   23.7846 H   0  0  0  0  0  0  0  0  0  0  0  0
    7.1920   -1.8875   26.1914 H   0  0  0  0  0  0  0  0  0  0  0  0
   12.5771   -0.0965   25.4478 H   0  0  0  0  0  0  0  0  0  0  0  0
   12.3832   -0.9726   21.2281 H   0  0  0  0  0  0  0  0  0  0  0  0
    8.4172   -0.8135   18.0384 H   0  0  0  0  0  0  0  0  0  0  0  0
   15.4522   -1.6787   21.8540 H   0  0  0  0  0  0  0  0  0  0  0  0
   15.0179   -3.0612   22.9154 H   0  0  0  0  0  0  0  0  0  0  0  0
   14.1626   -2.8324   21.3691 H   0  0  0  0  0  0  0  0  0  0  0  0
    8.1469   -6.4023   26.2941 H   0  0  0  0  0  0  0  0  0  0  0  0
    9.6044   -5.6298   25.5962 H   0  0  0  0  0  0  0  0  0  0  0  0
    8.1788   -5.9428   24.5716 H   0  0  0  0  0  0  0  0  0  0  0  0
   10.4561    1.0772   24.1620 H   0  0  0  0  0  0  0  0  0  0  0  0
   10.8743    1.5008   22.5014 H   0  0  0  0  0  0  0  0  0  0  0  0
    6.6715    0.4865   16.8044 H   0  0  0  0  0  0  0  0  0  0  0  0
    8.0705   -1.6178   21.0726 H   0  0  0  0  0  0  0  0  0  0  0  0
  1  2  1  0  0  0  0
  1  3  2  0  0  0  0
  2  4  2  0  0  0  0
  3 12  1  0  0  0  0
  4 14  1  0  0  0  0
  5  7  2  0  0  0  0
  5 15  1  0  0  0  0
  6  8  1  0  0  0  0
  6 15  2  0  0  0  0
  7 17  1  0  0  0  0
  8 17  2  0  0  0  0
  9 13  1  0  0  0  0
  9 22  2  0  0  0  0
 10 13  2  0  0  0  0
 10 24  1  0  0  0  0
 11 16  2  0  0  0  0
 11 23  1  0  0  0  0
 12 14  2  0  0  0  0
 12 16  1  0  0  0  0
 13 21  1  0  0  0  0
 14 23  1  0  0  0  0
 15 26  1  0  0  0  0
 16 25  1  0  0  0  0
 17 28  1  0  0  0  0
 18 25  1  0  0  0  0
 18 26  1  0  0  0  0
 18 27  2  0  0  0  0
 19 24  1  0  0  0  0
 20 28  1  0  0  0  0
 21 26  1  0  0  0  0
 22 24  1  0  0  0  0
  1 29  1  0  0  0  0
  2 30  1  0  0  0  0
  3 31  1  0  0  0  0
  4 32  1  0  0  0  0
  5 33  1  0  0  0  0
  6 34  1  0  0  0  0
  7 35  1  0  0  0  0
  8 36  1  0  0  0  0
  9 37  1  0  0  0  0
 10 38  1  0  0  0  0
 11 39  1  0  0  0  0
 19 40  1  0  0  0  0
 19 41  1  0  0  0  0
 19 42  1  0  0  0  0
 20 43  1  0  0  0  0
 20 44  1  0  0  0  0
 20 45  1  0  0  0  0
 21 46  1  0  0  0  0
 21 47  1  0  0  0  0
 23 48  1  0  0  0  0
 25 49  1  0  0  0  0
M  END
> <clash_score>
0

> <docking_score>
-7.224602699279785

> <overlap_score>
0.9186850786209106

$$$$
BENZO_130_1
  -OEChem-08222022443D

 49 52  0     0  0  0  0  0  0999 V2000
    4.2460    1.7520   20.8250 C   0  0  0  0  0  0  0  0  0  0  0  0
    3.8860    2.1050   19.5250 C   0  0  0  0  0  0  0  0  0  0  0  0
   13.7501   -1.1157   24.6176 C   0  0  0  0  0  0  0  0  0  0  0  0
    5.3890    1.0010   21.0690 C   0  0  0  0  0  0  0  0  0  0  0  0
   12.5991   -0.3339   24.5202 C   0  0  0  0  0  0  0  0  0  0  0  0
    4.6610    1.7170   18.4380 C   0  0  0  0  0  0  0  0  0  0  0  0
    9.5890   -2.4950   23.2210 C   0  0  0  0  0  0  0  0  0  0  0  0
    8.2550   -1.0010   24.5520 C   0  0  0  0  0  0  0  0  0  0  0  0
    9.1890   -3.5540   24.0140 C   0  0  0  0  0  0  0  0  0  0  0  0
    7.8700   -2.0610   25.3550 C   0  0  0  0  0  0  0  0  0  0  0  0
   14.2636   -1.7454   23.4838 C   0  0  0  0  0  0  0  0  0  0  0  0
   12.4750   -0.8115   22.1551 C   0  0  0  0  0  0  0  0  0  0  0  0
    7.5840   -0.2700   18.5160 C   0  0  0  0  0  0  0  0  0  0  0  0
    6.1460    0.6070   19.9750 C   0  0  0  0  0  0  0  0  0  0  0  0
   11.9616   -0.1817   23.2889 C   0  0  0  0  0  0  0  0  0  0  0  0
    5.7970    0.9500   18.6730 C   0  0  0  0  0  0  0  0  0  0  0  0
    9.1280   -1.2090   23.4870 C   0  0  0  0  0  0  0  0  0  0  0  0
    7.2710   -0.1460   19.8310 C   0  0  0  0  0  0  0  0  0  0  0  0
    8.3450   -3.3440   25.0980 C   0  0  0  0  0  0  0  0  0  0  0  0
   13.6261   -1.5933   22.2526 C   0  0  0  0  0  0  0  0  0  0  0  0
    9.0430    0.2380   21.4940 C   0  0  0  0  0  0  0  0  0  0  0  0
    8.5123   -5.6657   25.5744 C   0  0  0  0  0  0  0  0  0  0  0  0
   10.7220    0.6590   23.1850 C   0  0  0  0  0  0  0  0  0  0  0  0
    6.7100    0.3850   17.8100 N   0  0  0  0  0  0  0  0  0  0  0  0
    8.0950   -0.7700   20.8440 N   0  0  0  0  0  0  0  0  0  0  0  0
    9.5820   -0.1080   22.7000 N   0  0  0  0  0  0  0  0  0  0  0  0
    9.2950    1.3000   20.9480 O   0  0  0  0  0  0  0  0  0  0  0  0
    7.9864   -4.3799   25.8996 O   0  0  0  0  0  0  0  0  0  0  0  0
   14.2594   -2.3714   20.8543 Cl  0  0  0  0  0  0  0  0  0  0  0  0
    3.6208    2.0704   21.6579 H   0  0  0  0  0  0  0  0  0  0  0  0
    2.9857    2.6926   19.3615 H   0  0  0  0  0  0  0  0  0  0  0  0
   14.2462   -1.2340   25.5766 H   0  0  0  0  0  0  0  0  0  0  0  0
    5.6664    0.7407   22.0807 H   0  0  0  0  0  0  0  0  0  0  0  0
   12.2060    0.1530   25.4088 H   0  0  0  0  0  0  0  0  0  0  0  0
    4.3794    2.0106   17.4221 H   0  0  0  0  0  0  0  0  0  0  0  0
   10.2678   -2.6746   22.3862 H   0  0  0  0  0  0  0  0  0  0  0  0
    7.8691   -0.0023   24.7606 H   0  0  0  0  0  0  0  0  0  0  0  0
    9.5404   -4.5633   23.7846 H   0  0  0  0  0  0  0  0  0  0  0  0
    7.1920   -1.8875   26.1914 H   0  0  0  0  0  0  0  0  0  0  0  0
   15.1613   -2.3520   23.5747 H   0  0  0  0  0  0  0  0  0  0  0  0
   11.9745   -0.6893   21.1973 H   0  0  0  0  0  0  0  0  0  0  0  0
    8.4172   -0.8135   18.0384 H   0  0  0  0  0  0  0  0  0  0  0  0
    8.1469   -6.4023   26.2941 H   0  0  0  0  0  0  0  0  0  0  0  0
    9.6044   -5.6298   25.5962 H   0  0  0  0  0  0  0  0  0  0  0  0
    8.1788   -5.9428   24.5716 H   0  0  0  0  0  0  0  0  0  0  0  0
   10.4561    1.0772   24.1620 H   0  0  0  0  0  0  0  0  0  0  0  0
   10.8743    1.5008   22.5014 H   0  0  0  0  0  0  0  0  0  0  0  0
    6.6715    0.4865   16.8044 H   0  0  0  0  0  0  0  0  0  0  0  0
    8.0705   -1.6178   21.0726 H   0  0  0  0  0  0  0  0  0  0  0  0
  1  2  1  0  0  0  0
  1  4  2  0  0  0  0
  2  6  2  0  0  0  0
  3  5  2  0  0  0  0
  3 11  1  0  0  0  0
  4 14  1  0  0  0  0
  5 15  1  0  0  0  0
  6 16  1  0  0  0  0
  7  9  2  0  0  0  0
  7 17  1  0  0  0  0
  8 10  1  0  0  0  0
  8 17  2  0  0  0  0
  9 19  1  0  0  0  0
 10 19  2  0  0  0  0
 11 20  2  0  0  0  0
 12 15  2  0  0  0  0
 12 20  1  0  0  0  0
 13 18  2  0  0  0  0
 13 24  1  0  0  0  0
 14 16  2  0  0  0  0
 14 18  1  0  0  0  0
 15 23  1  0  0  0  0
 16 24  1  0  0  0  0
 17 26  1  0  0  0  0
 18 25  1  0  0  0  0
 19 28  1  0  0  0  0
 20 29  1  0  0  0  0
 21 25  1  0  0  0  0
 21 26  1  0  0  0  0
 21 27  2  0  0  0  0
 22 28  1  0  0  0  0
 23 26  1  0  0  0  0
  1 30  1  0  0  0  0
  2 31  1  0  0  0  0
  3 32  1  0  0  0  0
  4 33  1  0  0  0  0
  5 34  1  0  0  0  0
  6 35  1  0  0  0  0
  7 36  1  0  0  0  0
  8 37  1  0  0  0  0
  9 38  1  0  0  0  0
 10 39  1  0  0  0  0
 11 40  1  0  0  0  0
 12 41  1  0  0  0  0
 13 42  1  0  0  0  0
 22 43  1  0  0  0  0
 22 44  1  0  0  0  0
 22 45  1  0  0  0  0
 23 46  1  0  0  0  0
 23 47  1  0  0  0  0
 24 48  1  0  0  0  0
 25 49  1  0  0  0  0
M  END
> <clash_score>
0

> <docking_score>
-7.988581657409668

> <overlap_score>
0.9233071804046631

$$$$
BENZO_133_1
  -OEChem-08222022443D

 59 63  0     0  0  0  0  0  0999 V2000
   14.2641   -1.7450   23.4813 C   0  0  0  0  0  0  0  0  0  0  0  0
    4.2460    1.7520   20.8250 C   0  0  0  0  0  0  0  0  0  0  0  0
   14.0779   -0.6681   24.3480 C   0  0  0  0  0  0  0  0  0  0  0  0
   13.2991   -2.0403   22.5184 C   0  0  0  0  0  0  0  0  0  0  0  0
    3.8860    2.1050   19.5250 C   0  0  0  0  0  0  0  0  0  0  0  0
    5.3890    1.0010   21.0690 C   0  0  0  0  0  0  0  0  0  0  0  0
   12.9266    0.1135   24.2518 C   0  0  0  0  0  0  0  0  0  0  0  0
   12.1478   -1.2587   22.4222 C   0  0  0  0  0  0  0  0  0  0  0  0
    4.6610    1.7170   18.4380 C   0  0  0  0  0  0  0  0  0  0  0  0
    9.1890   -3.5540   24.0140 C   0  0  0  0  0  0  0  0  0  0  0  0
    7.8700   -2.0610   25.3550 C   0  0  0  0  0  0  0  0  0  0  0  0
    9.5890   -2.4950   23.2210 C   0  0  0  0  0  0  0  0  0  0  0  0
    8.2550   -1.0010   24.5520 C   0  0  0  0  0  0  0  0  0  0  0  0
    7.5840   -0.2700   18.5160 C   0  0  0  0  0  0  0  0  0  0  0  0
    6.1460    0.6070   19.9750 C   0  0  0  0  0  0  0  0  0  0  0  0
   11.9616   -0.1817   23.2889 C   0  0  0  0  0  0  0  0  0  0  0  0
    5.7970    0.9500   18.6730 C   0  0  0  0  0  0  0  0  0  0  0  0
    8.3450   -3.3440   25.0980 C   0  0  0  0  0  0  0  0  0  0  0  0
    9.1280   -1.2090   23.4870 C   0  0  0  0  0  0  0  0  0  0  0  0
    7.2710   -0.1460   19.8310 C   0  0  0  0  0  0  0  0  0  0  0  0
    7.8687   -5.7518   25.4384 C   0  0  0  0  0  0  0  0  0  0  0  0
    9.0430    0.2380   21.4940 C   0  0  0  0  0  0  0  0  0  0  0  0
    7.7614   -6.8724   26.4584 C   0  0  0  0  0  0  0  0  0  0  0  0
    7.0004   -6.5095   27.7148 C   0  0  0  0  0  0  0  0  0  0  0  0
    7.6035   -5.2531   28.3027 C   0  0  0  0  0  0  0  0  0  0  0  0
    7.4713   -4.1195   27.2996 C   0  0  0  0  0  0  0  0  0  0  0  0
   10.7220    0.6590   23.1850 C   0  0  0  0  0  0  0  0  0  0  0  0
    6.7100    0.3850   17.8100 N   0  0  0  0  0  0  0  0  0  0  0  0
    7.9635   -4.4452   25.9501 N   0  0  0  0  0  0  0  0  0  0  0  0
    8.0950   -0.7700   20.8440 N   0  0  0  0  0  0  0  0  0  0  0  0
    9.5820   -0.1080   22.7000 N   0  0  0  0  0  0  0  0  0  0  0  0
    7.9246   -6.0590   24.2445 O   0  0  0  0  0  0  0  0  0  0  0  0
    9.2950    1.3000   20.9480 O   0  0  0  0  0  0  0  0  0  0  0  0
   15.1613   -2.3527   23.5555 H   0  0  0  0  0  0  0  0  0  0  0  0
    3.6208    2.0704   21.6579 H   0  0  0  0  0  0  0  0  0  0  0  0
   14.8297   -0.4373   25.0971 H   0  0  0  0  0  0  0  0  0  0  0  0
   13.4443   -2.8780   21.8427 H   0  0  0  0  0  0  0  0  0  0  0  0
    2.9857    2.6926   19.3615 H   0  0  0  0  0  0  0  0  0  0  0  0
    5.6664    0.7407   22.0807 H   0  0  0  0  0  0  0  0  0  0  0  0
   12.7899    0.9506   24.9315 H   0  0  0  0  0  0  0  0  0  0  0  0
   11.4013   -1.4963   21.6690 H   0  0  0  0  0  0  0  0  0  0  0  0
    4.3794    2.0106   17.4221 H   0  0  0  0  0  0  0  0  0  0  0  0
    9.5436   -4.5614   23.7799 H   0  0  0  0  0  0  0  0  0  0  0  0
    7.1918   -1.8823   26.1906 H   0  0  0  0  0  0  0  0  0  0  0  0
   10.2676   -2.6754   22.3861 H   0  0  0  0  0  0  0  0  0  0  0  0
    7.8686   -0.0026   24.7598 H   0  0  0  0  0  0  0  0  0  0  0  0
    8.4172   -0.8135   18.0384 H   0  0  0  0  0  0  0  0  0  0  0  0
    7.2713   -7.7257   25.9758 H   0  0  0  0  0  0  0  0  0  0  0  0
    8.7837   -7.1790   26.7111 H   0  0  0  0  0  0  0  0  0  0  0  0
    5.9406   -6.3476   27.4837 H   0  0  0  0  0  0  0  0  0  0  0  0
    7.0566   -7.3314   28.4368 H   0  0  0  0  0  0  0  0  0  0  0  0
    7.0858   -4.9863   29.2307 H   0  0  0  0  0  0  0  0  0  0  0  0
    8.6585   -5.4140   28.5554 H   0  0  0  0  0  0  0  0  0  0  0  0
    6.4149   -3.8417   27.1934 H   0  0  0  0  0  0  0  0  0  0  0  0
    8.0152   -3.2408   27.6666 H   0  0  0  0  0  0  0  0  0  0  0  0
   10.4561    1.0772   24.1620 H   0  0  0  0  0  0  0  0  0  0  0  0
   10.8743    1.5008   22.5014 H   0  0  0  0  0  0  0  0  0  0  0  0
    6.6715    0.4865   16.8044 H   0  0  0  0  0  0  0  0  0  0  0  0
    8.0897   -1.6082   21.0890 H   0  0  0  0  0  0  0  0  0  0  0  0
  1  3  1  0  0  0  0
  1  4  2  0  0  0  0
  2  5  1  0  0  0  0
  2  6  2  0  0  0  0
  3  7  2  0  0  0  0
  4  8  1  0  0  0  0
  5  9  2  0  0  0  0
  6 15  1  0  0  0  0
  7 16  1  0  0  0  0
  8 16  2  0  0  0  0
  9 17  1  0  0  0  0
 10 12  2  0  0  0  0
 10 18  1  0  0  0  0
 11 13  1  0  0  0  0
 11 18  2  0  0  0  0
 12 19  1  0  0  0  0
 13 19  2  0  0  0  0
 14 20  2  0  0  0  0
 14 28  1  0  0  0  0
 15 17  2  0  0  0  0
 15 20  1  0  0  0  0
 16 27  1  0  0  0  0
 17 28  1  0  0  0  0
 18 29  1  0  0  0  0
 19 31  1  0  0  0  0
 20 30  1  0  0  0  0
 21 23  1  0  0  0  0
 21 29  1  0  0  0  0
 21 32  2  0  0  0  0
 22 30  1  0  0  0  0
 22 31  1  0  0  0  0
 22 33  2  0  0  0  0
 23 24  1  0  0  0  0
 24 25  1  0  0  0  0
 25 26  1  0  0  0  0
 26 29  1  0  0  0  0
 27 31  1  0  0  0  0
  1 34  1  0  0  0  0
  2 35  1  0  0  0  0
  3 36  1  0  0  0  0
  4 37  1  0  0  0  0
  5 38  1  0  0  0  0
  6 39  1  0  0  0  0
  7 40  1  0  0  0  0
  8 41  1  0  0  0  0
  9 42  1  0  0  0  0
 10 43  1  0  0  0  0
 11 44  1  0  0  0  0
 12 45  1  0  0  0  0
 13 46  1  0  0  0  0
 14 47  1  0  0  0  0
 23 48  1  0  0  0  0
 23 49  1  0  0  0  0
 24 50  1  0  0  0  0
 24 51  1  0  0  0  0
 25 52  1  0  0  0  0
 25 53  1  0  0  0  0
 26 54  1  0  0  0  0
 26 55  1  0  0  0  0
 27 56  1  0  0  0  0
 27 57  1  0  0  0  0
 28 58  1  0  0  0  0
 30 59  1  0  0  0  0
M  END
> <clash_score>
0

> <docking_score>
-7.871147155761719

> <overlap_score>
0.9891777038574219

$$$$
BENZO_132_1
  -OEChem-08222022443D

 56 60  0     0  0  0  0  0  0999 V2000
    4.2460    1.7520   20.8250 C   0  0  0  0  0  0  0  0  0  0  0  0
    3.8860    2.1050   19.5250 C   0  0  0  0  0  0  0  0  0  0  0  0
    5.3890    1.0010   21.0690 C   0  0  0  0  0  0  0  0  0  0  0  0
    4.6610    1.7170   18.4380 C   0  0  0  0  0  0  0  0  0  0  0  0
    9.1890   -3.5540   24.0140 C   0  0  0  0  0  0  0  0  0  0  0  0
    7.8700   -2.0610   25.3550 C   0  0  0  0  0  0  0  0  0  0  0  0
    9.5890   -2.4950   23.2210 C   0  0  0  0  0  0  0  0  0  0  0  0
    8.2550   -1.0010   24.5520 C   0  0  0  0  0  0  0  0  0  0  0  0
   12.6785   -0.3937   24.5018 C   0  0  0  0  0  0  0  0  0  0  0  0
    7.5840   -0.2700   18.5160 C   0  0  0  0  0  0  0  0  0  0  0  0
   13.7775   -1.2037   24.3186 C   0  0  0  0  0  0  0  0  0  0  0  0
   12.5401   -0.8378   22.2246 C   0  0  0  0  0  0  0  0  0  0  0  0
    6.1460    0.6070   19.9750 C   0  0  0  0  0  0  0  0  0  0  0  0
   11.9616   -0.1817   23.2889 C   0  0  0  0  0  0  0  0  0  0  0  0
    5.7970    0.9500   18.6730 C   0  0  0  0  0  0  0  0  0  0  0  0
    8.3450   -3.3440   25.0980 C   0  0  0  0  0  0  0  0  0  0  0  0
    9.1280   -1.2090   23.4870 C   0  0  0  0  0  0  0  0  0  0  0  0
    7.2710   -0.1460   19.8310 C   0  0  0  0  0  0  0  0  0  0  0  0
    7.2752   -5.5548   25.4273 C   0  0  0  0  0  0  0  0  0  0  0  0
    9.0430    0.2380   21.4940 C   0  0  0  0  0  0  0  0  0  0  0  0
    7.1880   -6.7800   26.3209 C   0  0  0  0  0  0  0  0  0  0  0  0
    7.0916   -6.4753   27.7999 C   0  0  0  0  0  0  0  0  0  0  0  0
    8.2362   -5.5641   28.1841 C   0  0  0  0  0  0  0  0  0  0  0  0
    8.1241   -4.2655   27.4032 C   0  0  0  0  0  0  0  0  0  0  0  0
   10.7220    0.6590   23.1850 C   0  0  0  0  0  0  0  0  0  0  0  0
    6.7100    0.3850   17.8100 N   0  0  0  0  0  0  0  0  0  0  0  0
    7.9635   -4.4452   25.9501 N   0  0  0  0  0  0  0  0  0  0  0  0
    8.0950   -0.7700   20.8440 N   0  0  0  0  0  0  0  0  0  0  0  0
    9.5820   -0.1080   22.7000 N   0  0  0  0  0  0  0  0  0  0  0  0
    6.7947   -5.6299   24.2931 O   0  0  0  0  0  0  0  0  0  0  0  0
    9.2950    1.3000   20.9480 O   0  0  0  0  0  0  0  0  0  0  0  0
   13.9416   -1.7051   22.6894 S   0  0  0  0  0  0  0  0  0  0  0  0
    3.6208    2.0704   21.6579 H   0  0  0  0  0  0  0  0  0  0  0  0
    2.9857    2.6926   19.3615 H   0  0  0  0  0  0  0  0  0  0  0  0
    5.6664    0.7407   22.0807 H   0  0  0  0  0  0  0  0  0  0  0  0
    4.3794    2.0106   17.4221 H   0  0  0  0  0  0  0  0  0  0  0  0
    9.5436   -4.5614   23.7799 H   0  0  0  0  0  0  0  0  0  0  0  0
    7.1918   -1.8823   26.1906 H   0  0  0  0  0  0  0  0  0  0  0  0
   10.2676   -2.6754   22.3861 H   0  0  0  0  0  0  0  0  0  0  0  0
    7.8686   -0.0026   24.7598 H   0  0  0  0  0  0  0  0  0  0  0  0
   12.4058    0.0253   25.4623 H   0  0  0  0  0  0  0  0  0  0  0  0
    8.4172   -0.8135   18.0384 H   0  0  0  0  0  0  0  0  0  0  0  0
   14.4923   -1.5246   25.0631 H   0  0  0  0  0  0  0  0  0  0  0  0
   12.2108   -0.8511   21.1948 H   0  0  0  0  0  0  0  0  0  0  0  0
    6.3101   -7.3613   26.0164 H   0  0  0  0  0  0  0  0  0  0  0  0
    8.0752   -7.3922   26.1183 H   0  0  0  0  0  0  0  0  0  0  0  0
    6.1328   -5.9938   28.0269 H   0  0  0  0  0  0  0  0  0  0  0  0
    7.1363   -7.4051   28.3772 H   0  0  0  0  0  0  0  0  0  0  0  0
    8.2035   -5.3520   29.2586 H   0  0  0  0  0  0  0  0  0  0  0  0
    9.1990   -6.0474   27.9788 H   0  0  0  0  0  0  0  0  0  0  0  0
    7.2505   -3.6996   27.7511 H   0  0  0  0  0  0  0  0  0  0  0  0
    9.0155   -3.6525   27.5824 H   0  0  0  0  0  0  0  0  0  0  0  0
   10.4561    1.0772   24.1620 H   0  0  0  0  0  0  0  0  0  0  0  0
   10.8743    1.5008   22.5014 H   0  0  0  0  0  0  0  0  0  0  0  0
    6.6715    0.4865   16.8044 H   0  0  0  0  0  0  0  0  0  0  0  0
    8.0897   -1.6082   21.0890 H   0  0  0  0  0  0  0  0  0  0  0  0
  1  2  1  0  0  0  0
  1  3  2  0  0  0  0
  2  4  2  0  0  0  0
  3 13  1  0  0  0  0
  4 15  1  0  0  0  0
  5  7  2  0  0  0  0
  5 16  1  0  0  0  0
  6  8  1  0  0  0  0
  6 16  2  0  0  0  0
  7 17  1  0  0  0  0
  8 17  2  0  0  0  0
  9 11  2  0  0  0  0
  9 14  1  0  0  0  0
 10 18  2  0  0  0  0
 10 26  1  0  0  0  0
 11 32  1  0  0  0  0
 12 14  2  0  0  0  0
 12 32  1  0  0  0  0
 13 15  2  0  0  0  0
 13 18  1  0  0  0  0
 14 25  1  0  0  0  0
 15 26  1  0  0  0  0
 16 27  1  0  0  0  0
 17 29  1  0  0  0  0
 18 28  1  0  0  0  0
 19 21  1  0  0  0  0
 19 27  1  0  0  0  0
 19 30  2  0  0  0  0
 20 28  1  0  0  0  0
 20 29  1  0  0  0  0
 20 31  2  0  0  0  0
 21 22  1  0  0  0  0
 22 23  1  0  0  0  0
 23 24  1  0  0  0  0
 24 27  1  0  0  0  0
 25 29  1  0  0  0  0
  1 33  1  0  0  0  0
  2 34  1  0  0  0  0
  3 35  1  0  0  0  0
  4 36  1  0  0  0  0
  5 37  1  0  0  0  0
  6 38  1  0  0  0  0
  7 39  1  0  0  0  0
  8 40  1  0  0  0  0
  9 41  1  0  0  0  0
 10 42  1  0  0  0  0
 11 43  1  0  0  0  0
 12 44  1  0  0  0  0
 21 45  1  0  0  0  0
 21 46  1  0  0  0  0
 22 47  1  0  0  0  0
 22 48  1  0  0  0  0
 23 49  1  0  0  0  0
 23 50  1  0  0  0  0
 24 51  1  0  0  0  0
 24 52  1  0  0  0  0
 25 53  1  0  0  0  0
 25 54  1  0  0  0  0
 26 55  1  0  0  0  0
 28 56  1  0  0  0  0
M  END
> <clash_score>
0

> <docking_score>
-8.268272399902344

> <overlap_score>
0.9828841090202332

$$$$
BENZO_137_1
  -OEChem-08222022443D

 58 62  0     0  0  0  0  0  0999 V2000
   14.2642   -1.7450   23.4813 C   0  0  0  0  0  0  0  0  0  0  0  0
    4.2460    1.7520   20.8250 C   0  0  0  0  0  0  0  0  0  0  0  0
   14.0779   -0.6681   24.3480 C   0  0  0  0  0  0  0  0  0  0  0  0
   13.2991   -2.0403   22.5184 C   0  0  0  0  0  0  0  0  0  0  0  0
    3.8860    2.1050   19.5250 C   0  0  0  0  0  0  0  0  0  0  0  0
    5.3890    1.0010   21.0690 C   0  0  0  0  0  0  0  0  0  0  0  0
   12.9266    0.1135   24.2518 C   0  0  0  0  0  0  0  0  0  0  0  0
   12.1478   -1.2587   22.4222 C   0  0  0  0  0  0  0  0  0  0  0  0
    4.6610    1.7170   18.4380 C   0  0  0  0  0  0  0  0  0  0  0  0
    9.1890   -3.5540   24.0140 C   0  0  0  0  0  0  0  0  0  0  0  0
    7.8700   -2.0610   25.3550 C   0  0  0  0  0  0  0  0  0  0  0  0
    9.5890   -2.4950   23.2210 C   0  0  0  0  0  0  0  0  0  0  0  0
    8.2550   -1.0010   24.5520 C   0  0  0  0  0  0  0  0  0  0  0  0
    7.5840   -0.2700   18.5160 C   0  0  0  0  0  0  0  0  0  0  0  0
    6.1460    0.6070   19.9750 C   0  0  0  0  0  0  0  0  0  0  0  0
   11.9616   -0.1817   23.2889 C   0  0  0  0  0  0  0  0  0  0  0  0
    5.7970    0.9500   18.6730 C   0  0  0  0  0  0  0  0  0  0  0  0
    8.3450   -3.3440   25.0980 C   0  0  0  0  0  0  0  0  0  0  0  0
    9.1280   -1.2090   23.4870 C   0  0  0  0  0  0  0  0  0  0  0  0
    7.2710   -0.1460   19.8310 C   0  0  0  0  0  0  0  0  0  0  0  0
    9.0430    0.2380   21.4940 C   0  0  0  0  0  0  0  0  0  0  0  0
    7.2567   -5.5376   25.3133 C   0  0  0  0  0  0  0  0  0  0  0  0
    7.6783   -4.1694   27.3374 C   0  0  0  0  0  0  0  0  0  0  0  0
    7.3927   -6.7709   26.1990 C   0  0  0  0  0  0  0  0  0  0  0  0
    7.7912   -5.4759   28.1152 C   0  0  0  0  0  0  0  0  0  0  0  0
   10.7220    0.6590   23.1850 C   0  0  0  0  0  0  0  0  0  0  0  0
    6.7100    0.3850   17.8100 N   0  0  0  0  0  0  0  0  0  0  0  0
    7.9750   -4.4088   25.9208 N   0  0  0  0  0  0  0  0  0  0  0  0
    8.0950   -0.7700   20.8440 N   0  0  0  0  0  0  0  0  0  0  0  0
    9.5820   -0.1080   22.7000 N   0  0  0  0  0  0  0  0  0  0  0  0
    9.2950    1.3000   20.9480 O   0  0  0  0  0  0  0  0  0  0  0  0
    6.9636   -6.4800   27.5290 O   0  0  0  0  0  0  0  0  0  0  0  0
   15.1613   -2.3527   23.5555 H   0  0  0  0  0  0  0  0  0  0  0  0
    3.6208    2.0704   21.6579 H   0  0  0  0  0  0  0  0  0  0  0  0
   14.8297   -0.4373   25.0971 H   0  0  0  0  0  0  0  0  0  0  0  0
   13.4443   -2.8780   21.8427 H   0  0  0  0  0  0  0  0  0  0  0  0
    2.9857    2.6926   19.3615 H   0  0  0  0  0  0  0  0  0  0  0  0
    5.6664    0.7407   22.0807 H   0  0  0  0  0  0  0  0  0  0  0  0
   12.7899    0.9506   24.9315 H   0  0  0  0  0  0  0  0  0  0  0  0
   11.4013   -1.4963   21.6690 H   0  0  0  0  0  0  0  0  0  0  0  0
    4.3794    2.0106   17.4221 H   0  0  0  0  0  0  0  0  0  0  0  0
    9.5426   -4.5618   23.7797 H   0  0  0  0  0  0  0  0  0  0  0  0
    7.1914   -1.8824   26.1903 H   0  0  0  0  0  0  0  0  0  0  0  0
   10.2669   -2.6745   22.3854 H   0  0  0  0  0  0  0  0  0  0  0  0
    7.8690   -0.0020   24.7587 H   0  0  0  0  0  0  0  0  0  0  0  0
    8.4172   -0.8135   18.0384 H   0  0  0  0  0  0  0  0  0  0  0  0
    7.6488   -5.7591   24.3107 H   0  0  0  0  0  0  0  0  0  0  0  0
    6.1939   -5.2724   25.2096 H   0  0  0  0  0  0  0  0  0  0  0  0
    6.6561   -3.7721   27.4286 H   0  0  0  0  0  0  0  0  0  0  0  0
    8.3667   -3.4263   27.7641 H   0  0  0  0  0  0  0  0  0  0  0  0
    6.7581   -7.5752   25.8132 H   0  0  0  0  0  0  0  0  0  0  0  0
    8.4238   -7.1440   26.2143 H   0  0  0  0  0  0  0  0  0  0  0  0
    8.8287   -5.8289   28.1606 H   0  0  0  0  0  0  0  0  0  0  0  0
    7.4508   -5.3235   29.1445 H   0  0  0  0  0  0  0  0  0  0  0  0
   10.4561    1.0772   24.1620 H   0  0  0  0  0  0  0  0  0  0  0  0
   10.8743    1.5008   22.5014 H   0  0  0  0  0  0  0  0  0  0  0  0
    6.6715    0.4865   16.8044 H   0  0  0  0  0  0  0  0  0  0  0  0
    8.0705   -1.6178   21.0726 H   0  0  0  0  0  0  0  0  0  0  0  0
  1  3  1  0  0  0  0
  1  4  2  0  0  0  0
  2  5  1  0  0  0  0
  2  6  2  0  0  0  0
  3  7  2  0  0  0  0
  4  8  1  0  0  0  0
  5  9  2  0  0  0  0
  6 15  1  0  0  0  0
  7 16  1  0  0  0  0
  8 16  2  0  0  0  0
  9 17  1  0  0  0  0
 10 12  2  0  0  0  0
 10 18  1  0  0  0  0
 11 13  1  0  0  0  0
 11 18  2  0  0  0  0
 12 19  1  0  0  0  0
 13 19  2  0  0  0  0
 14 20  2  0  0  0  0
 14 27  1  0  0  0  0
 15 17  2  0  0  0  0
 15 20  1  0  0  0  0
 16 26  1  0  0  0  0
 17 27  1  0  0  0  0
 18 28  1  0  0  0  0
 19 30  1  0  0  0  0
 20 29  1  0  0  0  0
 21 29  1  0  0  0  0
 21 30  1  0  0  0  0
 21 31  2  0  0  0  0
 22 24  1  0  0  0  0
 22 28  1  0  0  0  0
 23 25  1  0  0  0  0
 23 28  1  0  0  0  0
 24 32  1  0  0  0  0
 25 32  1  0  0  0  0
 26 30  1  0  0  0  0
  1 33  1  0  0  0  0
  2 34  1  0  0  0  0
  3 35  1  0  0  0  0
  4 36  1  0  0  0  0
  5 37  1  0  0  0  0
  6 38  1  0  0  0  0
  7 39  1  0  0  0  0
  8 40  1  0  0  0  0
  9 41  1  0  0  0  0
 10 42  1  0  0  0  0
 11 43  1  0  0  0  0
 12 44  1  0  0  0  0
 13 45  1  0  0  0  0
 14 46  1  0  0  0  0
 22 47  1  0  0  0  0
 22 48  1  0  0  0  0
 23 49  1  0  0  0  0
 23 50  1  0  0  0  0
 24 51  1  0  0  0  0
 24 52  1  0  0  0  0
 25 53  1  0  0  0  0
 25 54  1  0  0  0  0
 26 55  1  0  0  0  0
 26 56  1  0  0  0  0
 27 57  1  0  0  0  0
 29 58  1  0  0  0  0
M  END
> <clash_score>
0

> <docking_score>
-9.130759239196777

> <overlap_score>
0.9890499114990234

$$$$
BENZO_135_1
  -OEChem-08222022443D

 59 63  0     0  0  0  0  0  0999 V2000
    4.2460    1.7520   20.8250 C   0  0  0  0  0  0  0  0  0  0  0  0
    3.8860    2.1050   19.5250 C   0  0  0  0  0  0  0  0  0  0  0  0
    5.3890    1.0010   21.0690 C   0  0  0  0  0  0  0  0  0  0  0  0
    4.6610    1.7170   18.4380 C   0  0  0  0  0  0  0  0  0  0  0  0
    9.1890   -3.5540   24.0140 C   0  0  0  0  0  0  0  0  0  0  0  0
    7.8700   -2.0610   25.3550 C   0  0  0  0  0  0  0  0  0  0  0  0
    9.5890   -2.4950   23.2210 C   0  0  0  0  0  0  0  0  0  0  0  0
    8.2550   -1.0010   24.5520 C   0  0  0  0  0  0  0  0  0  0  0  0
   12.7320   -0.4464   24.4370 C   0  0  0  0  0  0  0  0  0  0  0  0
   12.5970   -0.8682   22.2832 C   0  0  0  0  0  0  0  0  0  0  0  0
    7.5840   -0.2700   18.5160 C   0  0  0  0  0  0  0  0  0  0  0  0
    6.1460    0.6070   19.9750 C   0  0  0  0  0  0  0  0  0  0  0  0
   11.9616   -0.1817   23.2889 C   0  0  0  0  0  0  0  0  0  0  0  0
    5.7970    0.9500   18.6730 C   0  0  0  0  0  0  0  0  0  0  0  0
    8.3450   -3.3440   25.0980 C   0  0  0  0  0  0  0  0  0  0  0  0
    9.1280   -1.2090   23.4870 C   0  0  0  0  0  0  0  0  0  0  0  0
    7.2710   -0.1460   19.8310 C   0  0  0  0  0  0  0  0  0  0  0  0
    7.2752   -5.5548   25.4273 C   0  0  0  0  0  0  0  0  0  0  0  0
    9.0430    0.2380   21.4940 C   0  0  0  0  0  0  0  0  0  0  0  0
    7.1880   -6.7800   26.3209 C   0  0  0  0  0  0  0  0  0  0  0  0
    7.0916   -6.4753   27.7999 C   0  0  0  0  0  0  0  0  0  0  0  0
    8.2362   -5.5641   28.1841 C   0  0  0  0  0  0  0  0  0  0  0  0
    8.1241   -4.2655   27.4032 C   0  0  0  0  0  0  0  0  0  0  0  0
   14.6393   -2.3180   22.2082 C   0  0  0  0  0  0  0  0  0  0  0  0
   10.7220    0.6590   23.1850 C   0  0  0  0  0  0  0  0  0  0  0  0
   13.7770   -1.2393   24.1852 N   0  0  0  0  0  0  0  0  0  0  0  0
    6.7100    0.3850   17.8100 N   0  0  0  0  0  0  0  0  0  0  0  0
   13.6676   -1.4788   22.8673 N   0  0  0  0  0  0  0  0  0  0  0  0
    7.9635   -4.4452   25.9501 N   0  0  0  0  0  0  0  0  0  0  0  0
    8.0950   -0.7700   20.8440 N   0  0  0  0  0  0  0  0  0  0  0  0
    9.5820   -0.1080   22.7000 N   0  0  0  0  0  0  0  0  0  0  0  0
    6.7947   -5.6299   24.2931 O   0  0  0  0  0  0  0  0  0  0  0  0
    9.2950    1.3000   20.9480 O   0  0  0  0  0  0  0  0  0  0  0  0
    3.6208    2.0704   21.6579 H   0  0  0  0  0  0  0  0  0  0  0  0
    2.9857    2.6926   19.3615 H   0  0  0  0  0  0  0  0  0  0  0  0
    5.6664    0.7407   22.0807 H   0  0  0  0  0  0  0  0  0  0  0  0
    4.3794    2.0106   17.4221 H   0  0  0  0  0  0  0  0  0  0  0  0
    9.5436   -4.5614   23.7799 H   0  0  0  0  0  0  0  0  0  0  0  0
    7.1918   -1.8823   26.1906 H   0  0  0  0  0  0  0  0  0  0  0  0
   10.2676   -2.6754   22.3861 H   0  0  0  0  0  0  0  0  0  0  0  0
    7.8686   -0.0026   24.7598 H   0  0  0  0  0  0  0  0  0  0  0  0
   12.5771   -0.0965   25.4478 H   0  0  0  0  0  0  0  0  0  0  0  0
   12.3832   -0.9726   21.2281 H   0  0  0  0  0  0  0  0  0  0  0  0
    8.4172   -0.8135   18.0384 H   0  0  0  0  0  0  0  0  0  0  0  0
    6.3101   -7.3613   26.0164 H   0  0  0  0  0  0  0  0  0  0  0  0
    8.0752   -7.3922   26.1183 H   0  0  0  0  0  0  0  0  0  0  0  0
    6.1328   -5.9938   28.0269 H   0  0  0  0  0  0  0  0  0  0  0  0
    7.1363   -7.4051   28.3772 H   0  0  0  0  0  0  0  0  0  0  0  0
    8.2035   -5.3520   29.2586 H   0  0  0  0  0  0  0  0  0  0  0  0
    9.1990   -6.0474   27.9788 H   0  0  0  0  0  0  0  0  0  0  0  0
    7.2505   -3.6996   27.7511 H   0  0  0  0  0  0  0  0  0  0  0  0
    9.0155   -3.6525   27.5824 H   0  0  0  0  0  0  0  0  0  0  0  0
   15.4522   -1.6787   21.8540 H   0  0  0  0  0  0  0  0  0  0  0  0
   15.0179   -3.0613   22.9154 H   0  0  0  0  0  0  0  0  0  0  0  0
   14.1626   -2.8324   21.3691 H   0  0  0  0  0  0  0  0  0  0  0  0
   10.4561    1.0772   24.1620 H   0  0  0  0  0  0  0  0  0  0  0  0
   10.8743    1.5008   22.5014 H   0  0  0  0  0  0  0  0  0  0  0  0
    6.6715    0.4865   16.8044 H   0  0  0  0  0  0  0  0  0  0  0  0
    8.0897   -1.6082   21.0890 H   0  0  0  0  0  0  0  0  0  0  0  0
  1  2  1  0  0  0  0
  1  3  2  0  0  0  0
  2  4  2  0  0  0  0
  3 12  1  0  0  0  0
  4 14  1  0  0  0  0
  5  7  2  0  0  0  0
  5 15  1  0  0  0  0
  6  8  1  0  0  0  0
  6 15  2  0  0  0  0
  7 16  1  0  0  0  0
  8 16  2  0  0  0  0
  9 13  1  0  0  0  0
  9 26  2  0  0  0  0
 10 13  2  0  0  0  0
 10 28  1  0  0  0  0
 11 17  2  0  0  0  0
 11 27  1  0  0  0  0
 12 14  2  0  0  0  0
 12 17  1  0  0  0  0
 13 25  1  0  0  0  0
 14 27  1  0  0  0  0
 15 29  1  0  0  0  0
 16 31  1  0  0  0  0
 17 30  1  0  0  0  0
 18 20  1  0  0  0  0
 18 29  1  0  0  0  0
 18 32  2  0  0  0  0
 19 30  1  0  0  0  0
 19 31  1  0  0  0  0
 19 33  2  0  0  0  0
 20 21  1  0  0  0  0
 21 22  1  0  0  0  0
 22 23  1  0  0  0  0
 23 29  1  0  0  0  0
 24 28  1  0  0  0  0
 25 31  1  0  0  0  0
 26 28  1  0  0  0  0
  1 34  1  0  0  0  0
  2 35  1  0  0  0  0
  3 36  1  0  0  0  0
  4 37  1  0  0  0  0
  5 38  1  0  0  0  0
  6 39  1  0  0  0  0
  7 40  1  0  0  0  0
  8 41  1  0  0  0  0
  9 42  1  0  0  0  0
 10 43  1  0  0  0  0
 11 44  1  0  0  0  0
 20 45  1  0  0  0  0
 20 46  1  0  0  0  0
 21 47  1  0  0  0  0
 21 48  1  0  0  0  0
 22 49  1  0  0  0  0
 22 50  1  0  0  0  0
 23 51  1  0  0  0  0
 23 52  1  0  0  0  0
 24 53  1  0  0  0  0
 24 54  1  0  0  0  0
 24 55  1  0  0  0  0
 25 56  1  0  0  0  0
 25 57  1  0  0  0  0
 27 58  1  0  0  0  0
 30 59  1  0  0  0  0
M  END
> <clash_score>
0

> <docking_score>
-7.017491817474365

> <overlap_score>
0.9994744658470154

$$$$
BENZO_136_1
  -OEChem-08222022443D

 55 59  0     0  0  0  0  0  0999 V2000
    4.2460    1.7520   20.8250 C   0  0  0  0  0  0  0  0  0  0  0  0
    3.8860    2.1050   19.5250 C   0  0  0  0  0  0  0  0  0  0  0  0
    5.3890    1.0010   21.0690 C   0  0  0  0  0  0  0  0  0  0  0  0
    4.6610    1.7170   18.4380 C   0  0  0  0  0  0  0  0  0  0  0  0
    9.1890   -3.5540   24.0140 C   0  0  0  0  0  0  0  0  0  0  0  0
    7.8700   -2.0610   25.3550 C   0  0  0  0  0  0  0  0  0  0  0  0
    9.5890   -2.4950   23.2210 C   0  0  0  0  0  0  0  0  0  0  0  0
    8.2550   -1.0010   24.5520 C   0  0  0  0  0  0  0  0  0  0  0  0
   12.6785   -0.3936   24.5018 C   0  0  0  0  0  0  0  0  0  0  0  0
    7.5840   -0.2700   18.5160 C   0  0  0  0  0  0  0  0  0  0  0  0
   13.7775   -1.2037   24.3186 C   0  0  0  0  0  0  0  0  0  0  0  0
   12.5401   -0.8378   22.2246 C   0  0  0  0  0  0  0  0  0  0  0  0
    6.1460    0.6070   19.9750 C   0  0  0  0  0  0  0  0  0  0  0  0
   11.9616   -0.1817   23.2889 C   0  0  0  0  0  0  0  0  0  0  0  0
    5.7970    0.9500   18.6730 C   0  0  0  0  0  0  0  0  0  0  0  0
    8.3450   -3.3440   25.0980 C   0  0  0  0  0  0  0  0  0  0  0  0
    9.1280   -1.2090   23.4870 C   0  0  0  0  0  0  0  0  0  0  0  0
    7.2710   -0.1460   19.8310 C   0  0  0  0  0  0  0  0  0  0  0  0
    9.0430    0.2380   21.4940 C   0  0  0  0  0  0  0  0  0  0  0  0
    8.9519   -5.2016   26.6602 C   0  0  0  0  0  0  0  0  0  0  0  0
    6.6111   -4.5061   26.4377 C   0  0  0  0  0  0  0  0  0  0  0  0
    8.9032   -4.7846   28.1262 C   0  0  0  0  0  0  0  0  0  0  0  0
    6.6372   -4.1235   27.9182 C   0  0  0  0  0  0  0  0  0  0  0  0
   10.7220    0.6590   23.1850 C   0  0  0  0  0  0  0  0  0  0  0  0
    6.7100    0.3850   17.8100 N   0  0  0  0  0  0  0  0  0  0  0  0
    7.9775   -4.4014   25.9151 N   0  0  0  0  0  0  0  0  0  0  0  0
    8.0950   -0.7700   20.8440 N   0  0  0  0  0  0  0  0  0  0  0  0
    9.5820   -0.1080   22.7000 N   0  0  0  0  0  0  0  0  0  0  0  0
    9.2950    1.3000   20.9480 O   0  0  0  0  0  0  0  0  0  0  0  0
    7.5722   -4.9386   28.6338 O   0  0  0  0  0  0  0  0  0  0  0  0
   13.9416   -1.7050   22.6894 S   0  0  0  0  0  0  0  0  0  0  0  0
    3.6208    2.0704   21.6579 H   0  0  0  0  0  0  0  0  0  0  0  0
    2.9857    2.6926   19.3615 H   0  0  0  0  0  0  0  0  0  0  0  0
    5.6664    0.7407   22.0807 H   0  0  0  0  0  0  0  0  0  0  0  0
    4.3794    2.0106   17.4221 H   0  0  0  0  0  0  0  0  0  0  0  0
    9.5426   -4.5618   23.7797 H   0  0  0  0  0  0  0  0  0  0  0  0
    7.1914   -1.8824   26.1903 H   0  0  0  0  0  0  0  0  0  0  0  0
   10.2669   -2.6745   22.3854 H   0  0  0  0  0  0  0  0  0  0  0  0
    7.8690   -0.0020   24.7587 H   0  0  0  0  0  0  0  0  0  0  0  0
   12.4058    0.0253   25.4623 H   0  0  0  0  0  0  0  0  0  0  0  0
    8.4172   -0.8135   18.0384 H   0  0  0  0  0  0  0  0  0  0  0  0
   14.4923   -1.5245   25.0631 H   0  0  0  0  0  0  0  0  0  0  0  0
   12.2108   -0.8511   21.1948 H   0  0  0  0  0  0  0  0  0  0  0  0
    9.9646   -5.0565   26.2705 H   0  0  0  0  0  0  0  0  0  0  0  0
    8.6931   -6.2628   26.5702 H   0  0  0  0  0  0  0  0  0  0  0  0
    6.2606   -5.5364   26.3305 H   0  0  0  0  0  0  0  0  0  0  0  0
    5.9292   -3.8442   25.9001 H   0  0  0  0  0  0  0  0  0  0  0  0
    9.5588   -5.4279   28.7169 H   0  0  0  0  0  0  0  0  0  0  0  0
    9.2344   -3.7514   28.2637 H   0  0  0  0  0  0  0  0  0  0  0  0
    6.8876   -3.0650   28.0550 H   0  0  0  0  0  0  0  0  0  0  0  0
    5.6491   -4.2880   28.3587 H   0  0  0  0  0  0  0  0  0  0  0  0
   10.4561    1.0772   24.1620 H   0  0  0  0  0  0  0  0  0  0  0  0
   10.8743    1.5008   22.5014 H   0  0  0  0  0  0  0  0  0  0  0  0
    6.6715    0.4865   16.8044 H   0  0  0  0  0  0  0  0  0  0  0  0
    8.0705   -1.6178   21.0726 H   0  0  0  0  0  0  0  0  0  0  0  0
  1  2  1  0  0  0  0
  1  3  2  0  0  0  0
  2  4  2  0  0  0  0
  3 13  1  0  0  0  0
  4 15  1  0  0  0  0
  5  7  2  0  0  0  0
  5 16  1  0  0  0  0
  6  8  1  0  0  0  0
  6 16  2  0  0  0  0
  7 17  1  0  0  0  0
  8 17  2  0  0  0  0
  9 11  2  0  0  0  0
  9 14  1  0  0  0  0
 10 18  2  0  0  0  0
 10 25  1  0  0  0  0
 11 31  1  0  0  0  0
 12 14  2  0  0  0  0
 12 31  1  0  0  0  0
 13 15  2  0  0  0  0
 13 18  1  0  0  0  0
 14 24  1  0  0  0  0
 15 25  1  0  0  0  0
 16 26  1  0  0  0  0
 17 28  1  0  0  0  0
 18 27  1  0  0  0  0
 19 27  1  0  0  0  0
 19 28  1  0  0  0  0
 19 29  2  0  0  0  0
 20 22  1  0  0  0  0
 20 26  1  0  0  0  0
 21 23  1  0  0  0  0
 21 26  1  0  0  0  0
 22 30  1  0  0  0  0
 23 30  1  0  0  0  0
 24 28  1  0  0  0  0
  1 32  1  0  0  0  0
  2 33  1  0  0  0  0
  3 34  1  0  0  0  0
  4 35  1  0  0  0  0
  5 36  1  0  0  0  0
  6 37  1  0  0  0  0
  7 38  1  0  0  0  0
  8 39  1  0  0  0  0
  9 40  1  0  0  0  0
 10 41  1  0  0  0  0
 11 42  1  0  0  0  0
 12 43  1  0  0  0  0
 20 44  1  0  0  0  0
 20 45  1  0  0  0  0
 21 46  1  0  0  0  0
 21 47  1  0  0  0  0
 22 48  1  0  0  0  0
 22 49  1  0  0  0  0
 23 50  1  0  0  0  0
 23 51  1  0  0  0  0
 24 52  1  0  0  0  0
 24 53  1  0  0  0  0
 25 54  1  0  0  0  0
 27 55  1  0  0  0  0
M  END
> <clash_score>
0

> <docking_score>
-9.4063720703125

> <overlap_score>
0.9805697202682495

$$$$
BENZO_134_1
  -OEChem-08222022443D

 59 63  0     0  0  0  0  0  0999 V2000
    4.2460    1.7520   20.8250 C   0  0  0  0  0  0  0  0  0  0  0  0
    3.8860    2.1050   19.5250 C   0  0  0  0  0  0  0  0  0  0  0  0
   13.7501   -1.1157   24.6177 C   0  0  0  0  0  0  0  0  0  0  0  0
    5.3890    1.0010   21.0690 C   0  0  0  0  0  0  0  0  0  0  0  0
   12.5991   -0.3339   24.5202 C   0  0  0  0  0  0  0  0  0  0  0  0
    4.6610    1.7170   18.4380 C   0  0  0  0  0  0  0  0  0  0  0  0
    9.1890   -3.5540   24.0140 C   0  0  0  0  0  0  0  0  0  0  0  0
    7.8700   -2.0610   25.3550 C   0  0  0  0  0  0  0  0  0  0  0  0
    9.5890   -2.4950   23.2210 C   0  0  0  0  0  0  0  0  0  0  0  0
    8.2550   -1.0010   24.5520 C   0  0  0  0  0  0  0  0  0  0  0  0
   14.2636   -1.7454   23.4838 C   0  0  0  0  0  0  0  0  0  0  0  0
   12.4750   -0.8115   22.1551 C   0  0  0  0  0  0  0  0  0  0  0  0
    7.5840   -0.2700   18.5160 C   0  0  0  0  0  0  0  0  0  0  0  0
    6.1460    0.6070   19.9750 C   0  0  0  0  0  0  0  0  0  0  0  0
   11.9616   -0.1817   23.2889 C   0  0  0  0  0  0  0  0  0  0  0  0
    5.7970    0.9500   18.6730 C   0  0  0  0  0  0  0  0  0  0  0  0
    8.3450   -3.3440   25.0980 C   0  0  0  0  0  0  0  0  0  0  0  0
    9.1280   -1.2090   23.4870 C   0  0  0  0  0  0  0  0  0  0  0  0
    7.2710   -0.1460   19.8310 C   0  0  0  0  0  0  0  0  0  0  0  0
   13.6261   -1.5933   22.2526 C   0  0  0  0  0  0  0  0  0  0  0  0
    7.2757   -5.5631   25.4492 C   0  0  0  0  0  0  0  0  0  0  0  0
    9.0430    0.2380   21.4940 C   0  0  0  0  0  0  0  0  0  0  0  0
    6.9626   -6.6001   26.5133 C   0  0  0  0  0  0  0  0  0  0  0  0
    6.3764   -5.9422   27.7501 C   0  0  0  0  0  0  0  0  0  0  0  0
    7.2660   -4.8258   28.2881 C   0  0  0  0  0  0  0  0  0  0  0  0
    8.4098   -4.4623   27.3426 C   0  0  0  0  0  0  0  0  0  0  0  0
   10.7220    0.6590   23.1850 C   0  0  0  0  0  0  0  0  0  0  0  0
    6.7100    0.3850   17.8100 N   0  0  0  0  0  0  0  0  0  0  0  0
    7.9658   -4.4384   25.9449 N   0  0  0  0  0  0  0  0  0  0  0  0
    8.0950   -0.7700   20.8440 N   0  0  0  0  0  0  0  0  0  0  0  0
    9.5820   -0.1080   22.7000 N   0  0  0  0  0  0  0  0  0  0  0  0
    6.9858   -5.7908   24.2753 O   0  0  0  0  0  0  0  0  0  0  0  0
    9.2950    1.3000   20.9480 O   0  0  0  0  0  0  0  0  0  0  0  0
   14.2594   -2.3714   20.8543 Cl  0  0  0  0  0  0  0  0  0  0  0  0
    3.6208    2.0704   21.6579 H   0  0  0  0  0  0  0  0  0  0  0  0
    2.9857    2.6926   19.3615 H   0  0  0  0  0  0  0  0  0  0  0  0
   14.2462   -1.2340   25.5766 H   0  0  0  0  0  0  0  0  0  0  0  0
    5.6664    0.7407   22.0807 H   0  0  0  0  0  0  0  0  0  0  0  0
   12.2060    0.1530   25.4088 H   0  0  0  0  0  0  0  0  0  0  0  0
    4.3794    2.0106   17.4221 H   0  0  0  0  0  0  0  0  0  0  0  0
    9.5436   -4.5614   23.7799 H   0  0  0  0  0  0  0  0  0  0  0  0
    7.1918   -1.8823   26.1906 H   0  0  0  0  0  0  0  0  0  0  0  0
   10.2676   -2.6754   22.3861 H   0  0  0  0  0  0  0  0  0  0  0  0
    7.8686   -0.0026   24.7598 H   0  0  0  0  0  0  0  0  0  0  0  0
   15.1613   -2.3520   23.5747 H   0  0  0  0  0  0  0  0  0  0  0  0
   11.9745   -0.6893   21.1973 H   0  0  0  0  0  0  0  0  0  0  0  0
    8.4172   -0.8135   18.0384 H   0  0  0  0  0  0  0  0  0  0  0  0
    6.2500   -7.3027   26.1097 H   0  0  0  0  0  0  0  0  0  0  0  0
    7.8838   -7.1078   26.7574 H   0  0  0  0  0  0  0  0  0  0  0  0
    5.3690   -5.5363   27.5214 H   0  0  0  0  0  0  0  0  0  0  0  0
    6.2178   -6.7054   28.5384 H   0  0  0  0  0  0  0  0  0  0  0  0
    6.6498   -3.9225   28.4807 H   0  0  0  0  0  0  0  0  0  0  0  0
    7.6764   -5.1138   29.2803 H   0  0  0  0  0  0  0  0  0  0  0  0
    8.7796   -3.4700   27.5826 H   0  0  0  0  0  0  0  0  0  0  0  0
    9.2112   -5.1853   27.4497 H   0  0  0  0  0  0  0  0  0  0  0  0
   10.4561    1.0772   24.1620 H   0  0  0  0  0  0  0  0  0  0  0  0
   10.8743    1.5008   22.5014 H   0  0  0  0  0  0  0  0  0  0  0  0
    6.6715    0.4865   16.8044 H   0  0  0  0  0  0  0  0  0  0  0  0
    8.0897   -1.6082   21.0890 H   0  0  0  0  0  0  0  0  0  0  0  0
  1  2  1  0  0  0  0
  1  4  2  0  0  0  0
  2  6  2  0  0  0  0
  3  5  2  0  0  0  0
  3 11  1  0  0  0  0
  4 14  1  0  0  0  0
  5 15  1  0  0  0  0
  6 16  1  0  0  0  0
  7  9  2  0  0  0  0
  7 17  1  0  0  0  0
  8 10  1  0  0  0  0
  8 17  2  0  0  0  0
  9 18  1  0  0  0  0
 10 18  2  0  0  0  0
 11 20  2  0  0  0  0
 12 15  2  0  0  0  0
 12 20  1  0  0  0  0
 13 19  2  0  0  0  0
 13 28  1  0  0  0  0
 14 16  2  0  0  0  0
 14 19  1  0  0  0  0
 15 27  1  0  0  0  0
 16 28  1  0  0  0  0
 17 29  1  0  0  0  0
 18 31  1  0  0  0  0
 19 30  1  0  0  0  0
 20 34  1  0  0  0  0
 21 23  1  0  0  0  0
 21 29  1  0  0  0  0
 21 32  2  0  0  0  0
 22 30  1  0  0  0  0
 22 31  1  0  0  0  0
 22 33  2  0  0  0  0
 23 24  1  0  0  0  0
 24 25  1  0  0  0  0
 25 26  1  0  0  0  0
 26 29  1  0  0  0  0
 27 31  1  0  0  0  0
  1 35  1  0  0  0  0
  2 36  1  0  0  0  0
  3 37  1  0  0  0  0
  4 38  1  0  0  0  0
  5 39  1  0  0  0  0
  6 40  1  0  0  0  0
  7 41  1  0  0  0  0
  8 42  1  0  0  0  0
  9 43  1  0  0  0  0
 10 44  1  0  0  0  0
 11 45  1  0  0  0  0
 12 46  1  0  0  0  0
 13 47  1  0  0  0  0
 23 48  1  0  0  0  0
 23 49  1  0  0  0  0
 24 50  1  0  0  0  0
 24 51  1  0  0  0  0
 25 52  1  0  0  0  0
 25 53  1  0  0  0  0
 26 54  1  0  0  0  0
 26 55  1  0  0  0  0
 27 56  1  0  0  0  0
 27 57  1  0  0  0  0
 28 58  1  0  0  0  0
 30 59  1  0  0  0  0
M  END
> <clash_score>
0

> <docking_score>
-7.860912322998047

> <overlap_score>
0.9984303712844849

$$$$
BENZO_139_1
  -OEChem-08222022443D

 58 62  0     0  0  0  0  0  0999 V2000
    4.2460    1.7520   20.8250 C   0  0  0  0  0  0  0  0  0  0  0  0
    3.8860    2.1050   19.5250 C   0  0  0  0  0  0  0  0  0  0  0  0
    5.3890    1.0010   21.0690 C   0  0  0  0  0  0  0  0  0  0  0  0
    4.6610    1.7170   18.4380 C   0  0  0  0  0  0  0  0  0  0  0  0
    9.1890   -3.5540   24.0140 C   0  0  0  0  0  0  0  0  0  0  0  0
    7.8700   -2.0610   25.3550 C   0  0  0  0  0  0  0  0  0  0  0  0
    9.5890   -2.4950   23.2210 C   0  0  0  0  0  0  0  0  0  0  0  0
    8.2550   -1.0010   24.5520 C   0  0  0  0  0  0  0  0  0  0  0  0
   12.7320   -0.4464   24.4370 C   0  0  0  0  0  0  0  0  0  0  0  0
   12.5970   -0.8682   22.2832 C   0  0  0  0  0  0  0  0  0  0  0  0
    7.5840   -0.2700   18.5160 C   0  0  0  0  0  0  0  0  0  0  0  0
    6.1460    0.6070   19.9750 C   0  0  0  0  0  0  0  0  0  0  0  0
   11.9616   -0.1817   23.2889 C   0  0  0  0  0  0  0  0  0  0  0  0
    5.7970    0.9500   18.6730 C   0  0  0  0  0  0  0  0  0  0  0  0
    8.3450   -3.3440   25.0980 C   0  0  0  0  0  0  0  0  0  0  0  0
    9.1280   -1.2090   23.4870 C   0  0  0  0  0  0  0  0  0  0  0  0
    7.2710   -0.1460   19.8310 C   0  0  0  0  0  0  0  0  0  0  0  0
    9.0430    0.2380   21.4940 C   0  0  0  0  0  0  0  0  0  0  0  0
    8.9519   -5.2016   26.6602 C   0  0  0  0  0  0  0  0  0  0  0  0
    6.6111   -4.5061   26.4377 C   0  0  0  0  0  0  0  0  0  0  0  0
    8.9032   -4.7846   28.1262 C   0  0  0  0  0  0  0  0  0  0  0  0
    6.6372   -4.1235   27.9182 C   0  0  0  0  0  0  0  0  0  0  0  0
   14.6393   -2.3180   22.2082 C   0  0  0  0  0  0  0  0  0  0  0  0
   10.7220    0.6590   23.1850 C   0  0  0  0  0  0  0  0  0  0  0  0
   13.7770   -1.2393   24.1852 N   0  0  0  0  0  0  0  0  0  0  0  0
    6.7100    0.3850   17.8100 N   0  0  0  0  0  0  0  0  0  0  0  0
   13.6676   -1.4788   22.8673 N   0  0  0  0  0  0  0  0  0  0  0  0
    7.9775   -4.4014   25.9151 N   0  0  0  0  0  0  0  0  0  0  0  0
    8.0950   -0.7700   20.8440 N   0  0  0  0  0  0  0  0  0  0  0  0
    9.5820   -0.1080   22.7000 N   0  0  0  0  0  0  0  0  0  0  0  0
    9.2950    1.3000   20.9480 O   0  0  0  0  0  0  0  0  0  0  0  0
    7.5722   -4.9386   28.6338 O   0  0  0  0  0  0  0  0  0  0  0  0
    3.6208    2.0704   21.6579 H   0  0  0  0  0  0  0  0  0  0  0  0
    2.9857    2.6926   19.3615 H   0  0  0  0  0  0  0  0  0  0  0  0
    5.6664    0.7407   22.0807 H   0  0  0  0  0  0  0  0  0  0  0  0
    4.3794    2.0106   17.4221 H   0  0  0  0  0  0  0  0  0  0  0  0
    9.5426   -4.5618   23.7797 H   0  0  0  0  0  0  0  0  0  0  0  0
    7.1914   -1.8824   26.1903 H   0  0  0  0  0  0  0  0  0  0  0  0
   10.2669   -2.6745   22.3854 H   0  0  0  0  0  0  0  0  0  0  0  0
    7.8690   -0.0020   24.7587 H   0  0  0  0  0  0  0  0  0  0  0  0
   12.5771   -0.0965   25.4478 H   0  0  0  0  0  0  0  0  0  0  0  0
   12.3832   -0.9726   21.2281 H   0  0  0  0  0  0  0  0  0  0  0  0
    8.4172   -0.8135   18.0384 H   0  0  0  0  0  0  0  0  0  0  0  0
    9.9646   -5.0565   26.2705 H   0  0  0  0  0  0  0  0  0  0  0  0
    8.6931   -6.2628   26.5702 H   0  0  0  0  0  0  0  0  0  0  0  0
    6.2606   -5.5364   26.3305 H   0  0  0  0  0  0  0  0  0  0  0  0
    5.9292   -3.8442   25.9001 H   0  0  0  0  0  0  0  0  0  0  0  0
    9.5588   -5.4279   28.7169 H   0  0  0  0  0  0  0  0  0  0  0  0
    9.2344   -3.7514   28.2637 H   0  0  0  0  0  0  0  0  0  0  0  0
    6.8876   -3.0650   28.0550 H   0  0  0  0  0  0  0  0  0  0  0  0
    5.6491   -4.2880   28.3587 H   0  0  0  0  0  0  0  0  0  0  0  0
   15.4522   -1.6787   21.8540 H   0  0  0  0  0  0  0  0  0  0  0  0
   15.0179   -3.0612   22.9154 H   0  0  0  0  0  0  0  0  0  0  0  0
   14.1626   -2.8324   21.3691 H   0  0  0  0  0  0  0  0  0  0  0  0
   10.4561    1.0772   24.1620 H   0  0  0  0  0  0  0  0  0  0  0  0
   10.8743    1.5008   22.5014 H   0  0  0  0  0  0  0  0  0  0  0  0
    6.6715    0.4865   16.8044 H   0  0  0  0  0  0  0  0  0  0  0  0
    8.0705   -1.6178   21.0726 H   0  0  0  0  0  0  0  0  0  0  0  0
  1  2  1  0  0  0  0
  1  3  2  0  0  0  0
  2  4  2  0  0  0  0
  3 12  1  0  0  0  0
  4 14  1  0  0  0  0
  5  7  2  0  0  0  0
  5 15  1  0  0  0  0
  6  8  1  0  0  0  0
  6 15  2  0  0  0  0
  7 16  1  0  0  0  0
  8 16  2  0  0  0  0
  9 13  1  0  0  0  0
  9 25  2  0  0  0  0
 10 13  2  0  0  0  0
 10 27  1  0  0  0  0
 11 17  2  0  0  0  0
 11 26  1  0  0  0  0
 12 14  2  0  0  0  0
 12 17  1  0  0  0  0
 13 24  1  0  0  0  0
 14 26  1  0  0  0  0
 15 28  1  0  0  0  0
 16 30  1  0  0  0  0
 17 29  1  0  0  0  0
 18 29  1  0  0  0  0
 18 30  1  0  0  0  0
 18 31  2  0  0  0  0
 19 21  1  0  0  0  0
 19 28  1  0  0  0  0
 20 22  1  0  0  0  0
 20 28  1  0  0  0  0
 21 32  1  0  0  0  0
 22 32  1  0  0  0  0
 23 27  1  0  0  0  0
 24 30  1  0  0  0  0
 25 27  1  0  0  0  0
  1 33  1  0  0  0  0
  2 34  1  0  0  0  0
  3 35  1  0  0  0  0
  4 36  1  0  0  0  0
  5 37  1  0  0  0  0
  6 38  1  0  0  0  0
  7 39  1  0  0  0  0
  8 40  1  0  0  0  0
  9 41  1  0  0  0  0
 10 42  1  0  0  0  0
 11 43  1  0  0  0  0
 19 44  1  0  0  0  0
 19 45  1  0  0  0  0
 20 46  1  0  0  0  0
 20 47  1  0  0  0  0
 21 48  1  0  0  0  0
 21 49  1  0  0  0  0
 22 50  1  0  0  0  0
 22 51  1  0  0  0  0
 23 52  1  0  0  0  0
 23 53  1  0  0  0  0
 23 54  1  0  0  0  0
 24 55  1  0  0  0  0
 24 56  1  0  0  0  0
 26 57  1  0  0  0  0
 29 58  1  0  0  0  0
M  END
> <clash_score>
0

> <docking_score>
-8.155591011047363

> <overlap_score>
0.997191846370697

$$$$
BENZO_138_1
  -OEChem-08222022443D

 58 62  0     0  0  0  0  0  0999 V2000
    4.2460    1.7520   20.8250 C   0  0  0  0  0  0  0  0  0  0  0  0
    3.8860    2.1050   19.5250 C   0  0  0  0  0  0  0  0  0  0  0  0
   13.7501   -1.1157   24.6176 C   0  0  0  0  0  0  0  0  0  0  0  0
    5.3890    1.0010   21.0690 C   0  0  0  0  0  0  0  0  0  0  0  0
   12.5991   -0.3339   24.5202 C   0  0  0  0  0  0  0  0  0  0  0  0
    4.6610    1.7170   18.4380 C   0  0  0  0  0  0  0  0  0  0  0  0
    9.1890   -3.5540   24.0140 C   0  0  0  0  0  0  0  0  0  0  0  0
    7.8700   -2.0610   25.3550 C   0  0  0  0  0  0  0  0  0  0  0  0
    9.5890   -2.4950   23.2210 C   0  0  0  0  0  0  0  0  0  0  0  0
    8.2550   -1.0010   24.5520 C   0  0  0  0  0  0  0  0  0  0  0  0
   14.2636   -1.7454   23.4838 C   0  0  0  0  0  0  0  0  0  0  0  0
   12.4750   -0.8115   22.1551 C   0  0  0  0  0  0  0  0  0  0  0  0
    7.5840   -0.2700   18.5160 C   0  0  0  0  0  0  0  0  0  0  0  0
    6.1460    0.6070   19.9750 C   0  0  0  0  0  0  0  0  0  0  0  0
   11.9616   -0.1817   23.2889 C   0  0  0  0  0  0  0  0  0  0  0  0
    5.7970    0.9500   18.6730 C   0  0  0  0  0  0  0  0  0  0  0  0
    8.3450   -3.3440   25.0980 C   0  0  0  0  0  0  0  0  0  0  0  0
    9.1280   -1.2090   23.4870 C   0  0  0  0  0  0  0  0  0  0  0  0
    7.2710   -0.1460   19.8310 C   0  0  0  0  0  0  0  0  0  0  0  0
   13.6261   -1.5933   22.2526 C   0  0  0  0  0  0  0  0  0  0  0  0
    9.0430    0.2380   21.4940 C   0  0  0  0  0  0  0  0  0  0  0  0
    8.9519   -5.2016   26.6602 C   0  0  0  0  0  0  0  0  0  0  0  0
    6.6111   -4.5061   26.4377 C   0  0  0  0  0  0  0  0  0  0  0  0
    8.9032   -4.7846   28.1262 C   0  0  0  0  0  0  0  0  0  0  0  0
    6.6372   -4.1235   27.9182 C   0  0  0  0  0  0  0  0  0  0  0  0
   10.7220    0.6590   23.1850 C   0  0  0  0  0  0  0  0  0  0  0  0
    6.7100    0.3850   17.8100 N   0  0  0  0  0  0  0  0  0  0  0  0
    7.9775   -4.4014   25.9151 N   0  0  0  0  0  0  0  0  0  0  0  0
    8.0950   -0.7700   20.8440 N   0  0  0  0  0  0  0  0  0  0  0  0
    9.5820   -0.1080   22.7000 N   0  0  0  0  0  0  0  0  0  0  0  0
    9.2950    1.3000   20.9480 O   0  0  0  0  0  0  0  0  0  0  0  0
    7.5722   -4.9386   28.6338 O   0  0  0  0  0  0  0  0  0  0  0  0
   14.2594   -2.3714   20.8543 Cl  0  0  0  0  0  0  0  0  0  0  0  0
    3.6208    2.0704   21.6579 H   0  0  0  0  0  0  0  0  0  0  0  0
    2.9857    2.6926   19.3615 H   0  0  0  0  0  0  0  0  0  0  0  0
   14.2462   -1.2340   25.5766 H   0  0  0  0  0  0  0  0  0  0  0  0
    5.6664    0.7407   22.0807 H   0  0  0  0  0  0  0  0  0  0  0  0
   12.2060    0.1530   25.4088 H   0  0  0  0  0  0  0  0  0  0  0  0
    4.3794    2.0106   17.4221 H   0  0  0  0  0  0  0  0  0  0  0  0
    9.5426   -4.5618   23.7797 H   0  0  0  0  0  0  0  0  0  0  0  0
    7.1914   -1.8824   26.1903 H   0  0  0  0  0  0  0  0  0  0  0  0
   10.2669   -2.6745   22.3854 H   0  0  0  0  0  0  0  0  0  0  0  0
    7.8690   -0.0020   24.7587 H   0  0  0  0  0  0  0  0  0  0  0  0
   15.1613   -2.3520   23.5747 H   0  0  0  0  0  0  0  0  0  0  0  0
   11.9745   -0.6893   21.1973 H   0  0  0  0  0  0  0  0  0  0  0  0
    8.4172   -0.8135   18.0384 H   0  0  0  0  0  0  0  0  0  0  0  0
    9.9646   -5.0565   26.2705 H   0  0  0  0  0  0  0  0  0  0  0  0
    8.6931   -6.2628   26.5702 H   0  0  0  0  0  0  0  0  0  0  0  0
    6.2606   -5.5364   26.3305 H   0  0  0  0  0  0  0  0  0  0  0  0
    5.9292   -3.8442   25.9001 H   0  0  0  0  0  0  0  0  0  0  0  0
    9.5588   -5.4279   28.7169 H   0  0  0  0  0  0  0  0  0  0  0  0
    9.2344   -3.7514   28.2637 H   0  0  0  0  0  0  0  0  0  0  0  0
    6.8876   -3.0650   28.0550 H   0  0  0  0  0  0  0  0  0  0  0  0
    5.6491   -4.2880   28.3587 H   0  0  0  0  0  0  0  0  0  0  0  0
   10.4561    1.0772   24.1620 H   0  0  0  0  0  0  0  0  0  0  0  0
   10.8743    1.5008   22.5014 H   0  0  0  0  0  0  0  0  0  0  0  0
    6.6715    0.4865   16.8044 H   0  0  0  0  0  0  0  0  0  0  0  0
    8.0705   -1.6178   21.0726 H   0  0  0  0  0  0  0  0  0  0  0  0
  1  2  1  0  0  0  0
  1  4  2  0  0  0  0
  2  6  2  0  0  0  0
  3  5  2  0  0  0  0
  3 11  1  0  0  0  0
  4 14  1  0  0  0  0
  5 15  1  0  0  0  0
  6 16  1  0  0  0  0
  7  9  2  0  0  0  0
  7 17  1  0  0  0  0
  8 10  1  0  0  0  0
  8 17  2  0  0  0  0
  9 18  1  0  0  0  0
 10 18  2  0  0  0  0
 11 20  2  0  0  0  0
 12 15  2  0  0  0  0
 12 20  1  0  0  0  0
 13 19  2  0  0  0  0
 13 27  1  0  0  0  0
 14 16  2  0  0  0  0
 14 19  1  0  0  0  0
 15 26  1  0  0  0  0
 16 27  1  0  0  0  0
 17 28  1  0  0  0  0
 18 30  1  0  0  0  0
 19 29  1  0  0  0  0
 20 33  1  0  0  0  0
 21 29  1  0  0  0  0
 21 30  1  0  0  0  0
 21 31  2  0  0  0  0
 22 24  1  0  0  0  0
 22 28  1  0  0  0  0
 23 25  1  0  0  0  0
 23 28  1  0  0  0  0
 24 32  1  0  0  0  0
 25 32  1  0  0  0  0
 26 30  1  0  0  0  0
  1 34  1  0  0  0  0
  2 35  1  0  0  0  0
  3 36  1  0  0  0  0
  4 37  1  0  0  0  0
  5 38  1  0  0  0  0
  6 39  1  0  0  0  0
  7 40  1  0  0  0  0
  8 41  1  0  0  0  0
  9 42  1  0  0  0  0
 10 43  1  0  0  0  0
 11 44  1  0  0  0  0
 12 45  1  0  0  0  0
 13 46  1  0  0  0  0
 22 47  1  0  0  0  0
 22 48  1  0  0  0  0
 23 49  1  0  0  0  0
 23 50  1  0  0  0  0
 24 51  1  0  0  0  0
 24 52  1  0  0  0  0
 25 53  1  0  0  0  0
 25 54  1  0  0  0  0
 26 55  1  0  0  0  0
 26 56  1  0  0  0  0
 27 57  1  0  0  0  0
 29 58  1  0  0  0  0
M  END
> <clash_score>
0

> <docking_score>
-8.919572830200195

> <overlap_score>
1.0017040967941284

$$$$
BENZO_141_1
  -OEChem-08222022443D

 51 54  0     0  0  0  0  0  0999 V2000
   14.2641   -1.7450   23.4813 C   0  0  0  0  0  0  0  0  0  0  0  0
   14.0779   -0.6681   24.3480 C   0  0  0  0  0  0  0  0  0  0  0  0
   13.2991   -2.0403   22.5184 C   0  0  0  0  0  0  0  0  0  0  0  0
   12.9266    0.1135   24.2518 C   0  0  0  0  0  0  0  0  0  0  0  0
   12.1478   -1.2587   22.4222 C   0  0  0  0  0  0  0  0  0  0  0  0
    9.5890   -2.4950   23.2210 C   0  0  0  0  0  0  0  0  0  0  0  0
    8.2550   -1.0010   24.5520 C   0  0  0  0  0  0  0  0  0  0  0  0
    9.1890   -3.5540   24.0140 C   0  0  0  0  0  0  0  0  0  0  0  0
    7.8700   -2.0610   25.3550 C   0  0  0  0  0  0  0  0  0  0  0  0
   11.9616   -0.1817   23.2889 C   0  0  0  0  0  0  0  0  0  0  0  0
    9.1280   -1.2090   23.4870 C   0  0  0  0  0  0  0  0  0  0  0  0
    8.3450   -3.3440   25.0980 C   0  0  0  0  0  0  0  0  0  0  0  0
    5.7970    0.9500   18.6730 C   0  0  0  0  0  0  0  0  0  0  0  0
    7.2710   -0.1460   19.8310 C   0  0  0  0  0  0  0  0  0  0  0  0
    4.6610    1.7170   18.4380 C   0  0  0  0  0  0  0  0  0  0  0  0
    3.8860    2.1050   19.5250 C   0  0  0  0  0  0  0  0  0  0  0  0
    4.2460    1.7520   20.8250 C   0  0  0  0  0  0  0  0  0  0  0  0
    5.3890    1.0010   21.0690 C   0  0  0  0  0  0  0  0  0  0  0  0
    9.0430    0.2380   21.4940 C   0  0  0  0  0  0  0  0  0  0  0  0
    8.4652   -5.7552   25.6625 C   0  0  0  0  0  0  0  0  0  0  0  0
    7.1048   -4.1983   27.0675 C   0  0  0  0  0  0  0  0  0  0  0  0
   10.7220    0.6590   23.1850 C   0  0  0  0  0  0  0  0  0  0  0  0
    6.7100    0.3850   17.8100 N   0  0  0  0  0  0  0  0  0  0  0  0
    7.5840   -0.2700   18.5160 N   0  0  0  0  0  0  0  0  0  0  0  0
    6.1460    0.6070   19.9750 N   0  0  0  0  0  0  0  0  0  0  0  0
    8.0950   -0.7700   20.8440 N   0  0  0  0  0  0  0  0  0  0  0  0
    9.5820   -0.1080   22.7000 N   0  0  0  0  0  0  0  0  0  0  0  0
    7.9731   -4.4180   25.9279 N   0  0  0  0  0  0  0  0  0  0  0  0
    9.2950    1.3000   20.9480 O   0  0  0  0  0  0  0  0  0  0  0  0
   15.1613   -2.3527   23.5555 H   0  0  0  0  0  0  0  0  0  0  0  0
   14.8297   -0.4373   25.0971 H   0  0  0  0  0  0  0  0  0  0  0  0
   13.4443   -2.8780   21.8427 H   0  0  0  0  0  0  0  0  0  0  0  0
   12.7899    0.9506   24.9315 H   0  0  0  0  0  0  0  0  0  0  0  0
   11.4013   -1.4963   21.6690 H   0  0  0  0  0  0  0  0  0  0  0  0
   10.2682   -2.6746   22.3864 H   0  0  0  0  0  0  0  0  0  0  0  0
    7.8692   -0.0022   24.7600 H   0  0  0  0  0  0  0  0  0  0  0  0
    9.5433   -4.5619   23.7809 H   0  0  0  0  0  0  0  0  0  0  0  0
    7.1923   -1.8829   26.1908 H   0  0  0  0  0  0  0  0  0  0  0  0
    4.3710    2.0145   17.4451 H   0  0  0  0  0  0  0  0  0  0  0  0
    2.9929    2.6891   19.3400 H   0  0  0  0  0  0  0  0  0  0  0  0
    3.6320    2.0596   21.6814 H   0  0  0  0  0  0  0  0  0  0  0  0
    5.6863    0.7288   22.0575 H   0  0  0  0  0  0  0  0  0  0  0  0
    8.0658   -6.4497   26.4163 H   0  0  0  0  0  0  0  0  0  0  0  0
    8.1393   -6.0738   24.6614 H   0  0  0  0  0  0  0  0  0  0  0  0
    9.5642   -5.7570   25.7082 H   0  0  0  0  0  0  0  0  0  0  0  0
    6.9322   -5.1525   27.5870 H   0  0  0  0  0  0  0  0  0  0  0  0
    7.5795   -3.4857   27.7580 H   0  0  0  0  0  0  0  0  0  0  0  0
    6.1435   -3.7898   26.7225 H   0  0  0  0  0  0  0  0  0  0  0  0
   10.4561    1.0772   24.1620 H   0  0  0  0  0  0  0  0  0  0  0  0
   10.8743    1.5008   22.5014 H   0  0  0  0  0  0  0  0  0  0  0  0
    8.0681   -1.6191   21.0706 H   0  0  0  0  0  0  0  0  0  0  0  0
  1  2  1  0  0  0  0
  1  3  2  0  0  0  0
  2  4  2  0  0  0  0
  3  5  1  0  0  0  0
  4 10  1  0  0  0  0
  5 10  2  0  0  0  0
  6  8  2  0  0  0  0
  6 11  1  0  0  0  0
  7  9  1  0  0  0  0
  7 11  2  0  0  0  0
  8 12  1  0  0  0  0
  9 12  2  0  0  0  0
 10 22  1  0  0  0  0
 11 27  1  0  0  0  0
 12 28  1  0  0  0  0
 13 15  1  0  0  0  0
 13 23  2  0  0  0  0
 13 25  1  0  0  0  0
 14 24  2  0  0  0  0
 14 25  1  0  0  0  0
 14 26  1  0  0  0  0
 15 16  2  0  0  0  0
 16 17  1  0  0  0  0
 17 18  2  0  0  0  0
 18 25  1  0  0  0  0
 19 26  1  0  0  0  0
 19 27  1  0  0  0  0
 19 29  2  0  0  0  0
 20 28  1  0  0  0  0
 21 28  1  0  0  0  0
 22 27  1  0  0  0  0
 23 24  1  0  0  0  0
  1 30  1  0  0  0  0
  2 31  1  0  0  0  0
  3 32  1  0  0  0  0
  4 33  1  0  0  0  0
  5 34  1  0  0  0  0
  6 35  1  0  0  0  0
  7 36  1  0  0  0  0
  8 37  1  0  0  0  0
  9 38  1  0  0  0  0
 15 39  1  0  0  0  0
 16 40  1  0  0  0  0
 17 41  1  0  0  0  0
 18 42  1  0  0  0  0
 20 43  1  0  0  0  0
 20 44  1  0  0  0  0
 20 45  1  0  0  0  0
 21 46  1  0  0  0  0
 21 47  1  0  0  0  0
 21 48  1  0  0  0  0
 22 49  1  0  0  0  0
 22 50  1  0  0  0  0
 26 51  1  0  0  0  0
M  END
> <clash_score>
0

> <docking_score>
-9.460983276367188

> <overlap_score>
0.9345059394836426

$$$$
BENZO_140_1
  -OEChem-08222022443D

 48 51  0     0  0  0  0  0  0999 V2000
    9.5890   -2.4950   23.2210 C   0  0  0  0  0  0  0  0  0  0  0  0
    8.2550   -1.0010   24.5520 C   0  0  0  0  0  0  0  0  0  0  0  0
    9.1890   -3.5540   24.0140 C   0  0  0  0  0  0  0  0  0  0  0  0
    7.8700   -2.0610   25.3550 C   0  0  0  0  0  0  0  0  0  0  0  0
   12.6785   -0.3937   24.5018 C   0  0  0  0  0  0  0  0  0  0  0  0
   13.7775   -1.2037   24.3186 C   0  0  0  0  0  0  0  0  0  0  0  0
   12.5401   -0.8378   22.2246 C   0  0  0  0  0  0  0  0  0  0  0  0
   11.9616   -0.1817   23.2889 C   0  0  0  0  0  0  0  0  0  0  0  0
    9.1280   -1.2090   23.4870 C   0  0  0  0  0  0  0  0  0  0  0  0
    8.3450   -3.3440   25.0980 C   0  0  0  0  0  0  0  0  0  0  0  0
    5.7970    0.9500   18.6730 C   0  0  0  0  0  0  0  0  0  0  0  0
    7.2710   -0.1460   19.8310 C   0  0  0  0  0  0  0  0  0  0  0  0
    4.6610    1.7170   18.4380 C   0  0  0  0  0  0  0  0  0  0  0  0
    3.8860    2.1050   19.5250 C   0  0  0  0  0  0  0  0  0  0  0  0
    4.2460    1.7520   20.8250 C   0  0  0  0  0  0  0  0  0  0  0  0
    5.3890    1.0010   21.0690 C   0  0  0  0  0  0  0  0  0  0  0  0
    9.0430    0.2380   21.4940 C   0  0  0  0  0  0  0  0  0  0  0  0
    7.2639   -5.5573   25.3803 C   0  0  0  0  0  0  0  0  0  0  0  0
    8.3073   -4.4056   27.3382 C   0  0  0  0  0  0  0  0  0  0  0  0
   10.7220    0.6590   23.1850 C   0  0  0  0  0  0  0  0  0  0  0  0
    6.7100    0.3850   17.8100 N   0  0  0  0  0  0  0  0  0  0  0  0
    7.5840   -0.2700   18.5160 N   0  0  0  0  0  0  0  0  0  0  0  0
    6.1460    0.6070   19.9750 N   0  0  0  0  0  0  0  0  0  0  0  0
    8.0950   -0.7700   20.8440 N   0  0  0  0  0  0  0  0  0  0  0  0
    9.5820   -0.1080   22.7000 N   0  0  0  0  0  0  0  0  0  0  0  0
    7.9731   -4.4180   25.9279 N   0  0  0  0  0  0  0  0  0  0  0  0
    9.2950    1.3000   20.9480 O   0  0  0  0  0  0  0  0  0  0  0  0
   13.9416   -1.7051   22.6894 S   0  0  0  0  0  0  0  0  0  0  0  0
   10.2682   -2.6746   22.3864 H   0  0  0  0  0  0  0  0  0  0  0  0
    7.8692   -0.0022   24.7600 H   0  0  0  0  0  0  0  0  0  0  0  0
    9.5433   -4.5619   23.7809 H   0  0  0  0  0  0  0  0  0  0  0  0
    7.1923   -1.8829   26.1908 H   0  0  0  0  0  0  0  0  0  0  0  0
   12.4058    0.0253   25.4623 H   0  0  0  0  0  0  0  0  0  0  0  0
   14.4923   -1.5246   25.0631 H   0  0  0  0  0  0  0  0  0  0  0  0
   12.2108   -0.8511   21.1948 H   0  0  0  0  0  0  0  0  0  0  0  0
    4.3710    2.0145   17.4451 H   0  0  0  0  0  0  0  0  0  0  0  0
    2.9929    2.6891   19.3400 H   0  0  0  0  0  0  0  0  0  0  0  0
    3.6320    2.0596   21.6814 H   0  0  0  0  0  0  0  0  0  0  0  0
    5.6863    0.7288   22.0575 H   0  0  0  0  0  0  0  0  0  0  0  0
    7.0649   -6.2852   26.1806 H   0  0  0  0  0  0  0  0  0  0  0  0
    6.3111   -5.2213   24.9452 H   0  0  0  0  0  0  0  0  0  0  0  0
    7.8773   -6.0299   24.5991 H   0  0  0  0  0  0  0  0  0  0  0  0
    7.9344   -5.3256   27.8121 H   0  0  0  0  0  0  0  0  0  0  0  0
    9.3996   -4.3497   27.4555 H   0  0  0  0  0  0  0  0  0  0  0  0
    7.8418   -3.5318   27.8176 H   0  0  0  0  0  0  0  0  0  0  0  0
   10.4561    1.0772   24.1620 H   0  0  0  0  0  0  0  0  0  0  0  0
   10.8743    1.5008   22.5014 H   0  0  0  0  0  0  0  0  0  0  0  0
    8.0681   -1.6191   21.0706 H   0  0  0  0  0  0  0  0  0  0  0  0
  1  3  2  0  0  0  0
  1  9  1  0  0  0  0
  2  4  1  0  0  0  0
  2  9  2  0  0  0  0
  3 10  1  0  0  0  0
  4 10  2  0  0  0  0
  5  6  2  0  0  0  0
  5  8  1  0  0  0  0
  6 28  1  0  0  0  0
  7  8  2  0  0  0  0
  7 28  1  0  0  0  0
  8 20  1  0  0  0  0
  9 25  1  0  0  0  0
 10 26  1  0  0  0  0
 11 13  1  0  0  0  0
 11 21  2  0  0  0  0
 11 23  1  0  0  0  0
 12 22  2  0  0  0  0
 12 23  1  0  0  0  0
 12 24  1  0  0  0  0
 13 14  2  0  0  0  0
 14 15  1  0  0  0  0
 15 16  2  0  0  0  0
 16 23  1  0  0  0  0
 17 24  1  0  0  0  0
 17 25  1  0  0  0  0
 17 27  2  0  0  0  0
 18 26  1  0  0  0  0
 19 26  1  0  0  0  0
 20 25  1  0  0  0  0
 21 22  1  0  0  0  0
  1 29  1  0  0  0  0
  2 30  1  0  0  0  0
  3 31  1  0  0  0  0
  4 32  1  0  0  0  0
  5 33  1  0  0  0  0
  6 34  1  0  0  0  0
  7 35  1  0  0  0  0
 13 36  1  0  0  0  0
 14 37  1  0  0  0  0
 15 38  1  0  0  0  0
 16 39  1  0  0  0  0
 18 40  1  0  0  0  0
 18 41  1  0  0  0  0
 18 42  1  0  0  0  0
 19 43  1  0  0  0  0
 19 44  1  0  0  0  0
 19 45  1  0  0  0  0
 20 46  1  0  0  0  0
 20 47  1  0  0  0  0
 24 48  1  0  0  0  0
M  END
> <clash_score>
0

> <docking_score>
-9.033832550048828

> <overlap_score>
0.9331575632095337

$$$$
BENZO_143_1
  -OEChem-08222022443D

 51 54  0     0  0  0  0  0  0999 V2000
    9.5890   -2.4950   23.2210 C   0  0  0  0  0  0  0  0  0  0  0  0
    8.2550   -1.0010   24.5520 C   0  0  0  0  0  0  0  0  0  0  0  0
    9.1890   -3.5540   24.0140 C   0  0  0  0  0  0  0  0  0  0  0  0
    7.8700   -2.0610   25.3550 C   0  0  0  0  0  0  0  0  0  0  0  0
   12.7320   -0.4464   24.4370 C   0  0  0  0  0  0  0  0  0  0  0  0
   12.5970   -0.8682   22.2832 C   0  0  0  0  0  0  0  0  0  0  0  0
   11.9616   -0.1817   23.2889 C   0  0  0  0  0  0  0  0  0  0  0  0
    9.1280   -1.2090   23.4870 C   0  0  0  0  0  0  0  0  0  0  0  0
    8.3450   -3.3440   25.0980 C   0  0  0  0  0  0  0  0  0  0  0  0
    5.7970    0.9500   18.6730 C   0  0  0  0  0  0  0  0  0  0  0  0
    7.2710   -0.1460   19.8310 C   0  0  0  0  0  0  0  0  0  0  0  0
    4.6610    1.7170   18.4380 C   0  0  0  0  0  0  0  0  0  0  0  0
    3.8860    2.1050   19.5250 C   0  0  0  0  0  0  0  0  0  0  0  0
    4.2460    1.7520   20.8250 C   0  0  0  0  0  0  0  0  0  0  0  0
    5.3890    1.0010   21.0690 C   0  0  0  0  0  0  0  0  0  0  0  0
    9.0430    0.2380   21.4940 C   0  0  0  0  0  0  0  0  0  0  0  0
   14.6393   -2.3180   22.2082 C   0  0  0  0  0  0  0  0  0  0  0  0
    7.2639   -5.5573   25.3803 C   0  0  0  0  0  0  0  0  0  0  0  0
    8.3073   -4.4056   27.3382 C   0  0  0  0  0  0  0  0  0  0  0  0
   10.7220    0.6590   23.1850 C   0  0  0  0  0  0  0  0  0  0  0  0
   13.7770   -1.2393   24.1852 N   0  0  0  0  0  0  0  0  0  0  0  0
    6.7100    0.3850   17.8100 N   0  0  0  0  0  0  0  0  0  0  0  0
    7.5840   -0.2700   18.5160 N   0  0  0  0  0  0  0  0  0  0  0  0
   13.6676   -1.4788   22.8673 N   0  0  0  0  0  0  0  0  0  0  0  0
    6.1460    0.6070   19.9750 N   0  0  0  0  0  0  0  0  0  0  0  0
    8.0950   -0.7700   20.8440 N   0  0  0  0  0  0  0  0  0  0  0  0
    9.5820   -0.1080   22.7000 N   0  0  0  0  0  0  0  0  0  0  0  0
    7.9731   -4.4180   25.9279 N   0  0  0  0  0  0  0  0  0  0  0  0
    9.2950    1.3000   20.9480 O   0  0  0  0  0  0  0  0  0  0  0  0
   10.2682   -2.6746   22.3864 H   0  0  0  0  0  0  0  0  0  0  0  0
    7.8692   -0.0022   24.7600 H   0  0  0  0  0  0  0  0  0  0  0  0
    9.5433   -4.5619   23.7809 H   0  0  0  0  0  0  0  0  0  0  0  0
    7.1923   -1.8829   26.1908 H   0  0  0  0  0  0  0  0  0  0  0  0
   12.5771   -0.0965   25.4478 H   0  0  0  0  0  0  0  0  0  0  0  0
   12.3832   -0.9726   21.2281 H   0  0  0  0  0  0  0  0  0  0  0  0
    4.3710    2.0145   17.4451 H   0  0  0  0  0  0  0  0  0  0  0  0
    2.9929    2.6891   19.3400 H   0  0  0  0  0  0  0  0  0  0  0  0
    3.6320    2.0596   21.6814 H   0  0  0  0  0  0  0  0  0  0  0  0
    5.6863    0.7288   22.0575 H   0  0  0  0  0  0  0  0  0  0  0  0
   15.4522   -1.6787   21.8540 H   0  0  0  0  0  0  0  0  0  0  0  0
   15.0179   -3.0613   22.9154 H   0  0  0  0  0  0  0  0  0  0  0  0
   14.1626   -2.8324   21.3691 H   0  0  0  0  0  0  0  0  0  0  0  0
    7.0649   -6.2852   26.1806 H   0  0  0  0  0  0  0  0  0  0  0  0
    6.3111   -5.2213   24.9452 H   0  0  0  0  0  0  0  0  0  0  0  0
    7.8773   -6.0299   24.5991 H   0  0  0  0  0  0  0  0  0  0  0  0
    7.9344   -5.3256   27.8121 H   0  0  0  0  0  0  0  0  0  0  0  0
    9.3996   -4.3497   27.4555 H   0  0  0  0  0  0  0  0  0  0  0  0
    7.8418   -3.5318   27.8176 H   0  0  0  0  0  0  0  0  0  0  0  0
   10.4561    1.0772   24.1620 H   0  0  0  0  0  0  0  0  0  0  0  0
   10.8743    1.5008   22.5014 H   0  0  0  0  0  0  0  0  0  0  0  0
    8.0681   -1.6191   21.0706 H   0  0  0  0  0  0  0  0  0  0  0  0
  1  3  2  0  0  0  0
  1  8  1  0  0  0  0
  2  4  1  0  0  0  0
  2  8  2  0  0  0  0
  3  9  1  0  0  0  0
  4  9  2  0  0  0  0
  5  7  1  0  0  0  0
  5 21  2  0  0  0  0
  6  7  2  0  0  0  0
  6 24  1  0  0  0  0
  7 20  1  0  0  0  0
  8 27  1  0  0  0  0
  9 28  1  0  0  0  0
 10 12  1  0  0  0  0
 10 22  2  0  0  0  0
 10 25  1  0  0  0  0
 11 23  2  0  0  0  0
 11 25  1  0  0  0  0
 11 26  1  0  0  0  0
 12 13  2  0  0  0  0
 13 14  1  0  0  0  0
 14 15  2  0  0  0  0
 15 25  1  0  0  0  0
 16 26  1  0  0  0  0
 16 27  1  0  0  0  0
 16 29  2  0  0  0  0
 17 24  1  0  0  0  0
 18 28  1  0  0  0  0
 19 28  1  0  0  0  0
 20 27  1  0  0  0  0
 21 24  1  0  0  0  0
 22 23  1  0  0  0  0
  1 30  1  0  0  0  0
  2 31  1  0  0  0  0
  3 32  1  0  0  0  0
  4 33  1  0  0  0  0
  5 34  1  0  0  0  0
  6 35  1  0  0  0  0
 12 36  1  0  0  0  0
 13 37  1  0  0  0  0
 14 38  1  0  0  0  0
 15 39  1  0  0  0  0
 17 40  1  0  0  0  0
 17 41  1  0  0  0  0
 17 42  1  0  0  0  0
 18 43  1  0  0  0  0
 18 44  1  0  0  0  0
 18 45  1  0  0  0  0
 19 46  1  0  0  0  0
 19 47  1  0  0  0  0
 19 48  1  0  0  0  0
 20 49  1  0  0  0  0
 20 50  1  0  0  0  0
 26 51  1  0  0  0  0
M  END
> <clash_score>
0

> <docking_score>
-7.783052444458008

> <overlap_score>
0.9499872922897339

$$$$
BENZO_142_1
  -OEChem-08222022443D

 51 54  0     0  0  0  0  0  0999 V2000
   13.7501   -1.1157   24.6176 C   0  0  0  0  0  0  0  0  0  0  0  0
   12.5991   -0.3339   24.5202 C   0  0  0  0  0  0  0  0  0  0  0  0
    9.5890   -2.4950   23.2210 C   0  0  0  0  0  0  0  0  0  0  0  0
    8.2550   -1.0010   24.5520 C   0  0  0  0  0  0  0  0  0  0  0  0
    9.1890   -3.5540   24.0140 C   0  0  0  0  0  0  0  0  0  0  0  0
    7.8700   -2.0610   25.3550 C   0  0  0  0  0  0  0  0  0  0  0  0
   14.2636   -1.7454   23.4838 C   0  0  0  0  0  0  0  0  0  0  0  0
   12.4750   -0.8115   22.1551 C   0  0  0  0  0  0  0  0  0  0  0  0
   11.9616   -0.1817   23.2889 C   0  0  0  0  0  0  0  0  0  0  0  0
    9.1280   -1.2090   23.4870 C   0  0  0  0  0  0  0  0  0  0  0  0
    8.3450   -3.3440   25.0980 C   0  0  0  0  0  0  0  0  0  0  0  0
   13.6260   -1.5933   22.2526 C   0  0  0  0  0  0  0  0  0  0  0  0
    5.7970    0.9500   18.6730 C   0  0  0  0  0  0  0  0  0  0  0  0
    7.2710   -0.1460   19.8310 C   0  0  0  0  0  0  0  0  0  0  0  0
    4.6610    1.7170   18.4380 C   0  0  0  0  0  0  0  0  0  0  0  0
    3.8860    2.1050   19.5250 C   0  0  0  0  0  0  0  0  0  0  0  0
    4.2460    1.7520   20.8250 C   0  0  0  0  0  0  0  0  0  0  0  0
    5.3890    1.0010   21.0690 C   0  0  0  0  0  0  0  0  0  0  0  0
    9.0430    0.2380   21.4940 C   0  0  0  0  0  0  0  0  0  0  0  0
    7.2639   -5.5573   25.3803 C   0  0  0  0  0  0  0  0  0  0  0  0
    8.3073   -4.4056   27.3382 C   0  0  0  0  0  0  0  0  0  0  0  0
   10.7220    0.6590   23.1850 C   0  0  0  0  0  0  0  0  0  0  0  0
    6.7100    0.3850   17.8100 N   0  0  0  0  0  0  0  0  0  0  0  0
    7.5840   -0.2700   18.5160 N   0  0  0  0  0  0  0  0  0  0  0  0
    6.1460    0.6070   19.9750 N   0  0  0  0  0  0  0  0  0  0  0  0
    8.0950   -0.7700   20.8440 N   0  0  0  0  0  0  0  0  0  0  0  0
    9.5820   -0.1080   22.7000 N   0  0  0  0  0  0  0  0  0  0  0  0
    7.9731   -4.4180   25.9279 N   0  0  0  0  0  0  0  0  0  0  0  0
    9.2950    1.3000   20.9480 O   0  0  0  0  0  0  0  0  0  0  0  0
   14.2594   -2.3714   20.8543 Cl  0  0  0  0  0  0  0  0  0  0  0  0
   14.2462   -1.2340   25.5766 H   0  0  0  0  0  0  0  0  0  0  0  0
   12.2060    0.1530   25.4088 H   0  0  0  0  0  0  0  0  0  0  0  0
   10.2682   -2.6746   22.3864 H   0  0  0  0  0  0  0  0  0  0  0  0
    7.8692   -0.0022   24.7600 H   0  0  0  0  0  0  0  0  0  0  0  0
    9.5433   -4.5619   23.7809 H   0  0  0  0  0  0  0  0  0  0  0  0
    7.1923   -1.8829   26.1908 H   0  0  0  0  0  0  0  0  0  0  0  0
   15.1613   -2.3520   23.5747 H   0  0  0  0  0  0  0  0  0  0  0  0
   11.9745   -0.6893   21.1973 H   0  0  0  0  0  0  0  0  0  0  0  0
    4.3710    2.0145   17.4451 H   0  0  0  0  0  0  0  0  0  0  0  0
    2.9929    2.6891   19.3400 H   0  0  0  0  0  0  0  0  0  0  0  0
    3.6320    2.0596   21.6814 H   0  0  0  0  0  0  0  0  0  0  0  0
    5.6863    0.7288   22.0575 H   0  0  0  0  0  0  0  0  0  0  0  0
    7.0649   -6.2852   26.1806 H   0  0  0  0  0  0  0  0  0  0  0  0
    6.3111   -5.2213   24.9452 H   0  0  0  0  0  0  0  0  0  0  0  0
    7.8773   -6.0299   24.5991 H   0  0  0  0  0  0  0  0  0  0  0  0
    7.9344   -5.3256   27.8121 H   0  0  0  0  0  0  0  0  0  0  0  0
    9.3996   -4.3497   27.4555 H   0  0  0  0  0  0  0  0  0  0  0  0
    7.8418   -3.5318   27.8176 H   0  0  0  0  0  0  0  0  0  0  0  0
   10.4561    1.0772   24.1620 H   0  0  0  0  0  0  0  0  0  0  0  0
   10.8743    1.5008   22.5014 H   0  0  0  0  0  0  0  0  0  0  0  0
    8.0681   -1.6191   21.0706 H   0  0  0  0  0  0  0  0  0  0  0  0
  1  2  2  0  0  0  0
  1  7  1  0  0  0  0
  2  9  1  0  0  0  0
  3  5  2  0  0  0  0
  3 10  1  0  0  0  0
  4  6  1  0  0  0  0
  4 10  2  0  0  0  0
  5 11  1  0  0  0  0
  6 11  2  0  0  0  0
  7 12  2  0  0  0  0
  8  9  2  0  0  0  0
  8 12  1  0  0  0  0
  9 22  1  0  0  0  0
 10 27  1  0  0  0  0
 11 28  1  0  0  0  0
 12 30  1  0  0  0  0
 13 15  1  0  0  0  0
 13 23  2  0  0  0  0
 13 25  1  0  0  0  0
 14 24  2  0  0  0  0
 14 25  1  0  0  0  0
 14 26  1  0  0  0  0
 15 16  2  0  0  0  0
 16 17  1  0  0  0  0
 17 18  2  0  0  0  0
 18 25  1  0  0  0  0
 19 26  1  0  0  0  0
 19 27  1  0  0  0  0
 19 29  2  0  0  0  0
 20 28  1  0  0  0  0
 21 28  1  0  0  0  0
 22 27  1  0  0  0  0
 23 24  1  0  0  0  0
  1 31  1  0  0  0  0
  2 32  1  0  0  0  0
  3 33  1  0  0  0  0
  4 34  1  0  0  0  0
  5 35  1  0  0  0  0
  6 36  1  0  0  0  0
  7 37  1  0  0  0  0
  8 38  1  0  0  0  0
 15 39  1  0  0  0  0
 16 40  1  0  0  0  0
 17 41  1  0  0  0  0
 18 42  1  0  0  0  0
 20 43  1  0  0  0  0
 20 44  1  0  0  0  0
 20 45  1  0  0  0  0
 21 46  1  0  0  0  0
 21 47  1  0  0  0  0
 21 48  1  0  0  0  0
 22 49  1  0  0  0  0
 22 50  1  0  0  0  0
 26 51  1  0  0  0  0
M  END
> <clash_score>
0

> <docking_score>
-8.547024726867676

> <overlap_score>
0.9545711278915405

$$$$
BENZO_145_1
  -OEChem-08222022443D

 53 56  0     0  0  0  0  0  0999 V2000
   14.2641   -1.7450   23.4813 C   0  0  0  0  0  0  0  0  0  0  0  0
   14.0779   -0.6681   24.3480 C   0  0  0  0  0  0  0  0  0  0  0  0
   13.2991   -2.0403   22.5184 C   0  0  0  0  0  0  0  0  0  0  0  0
   12.9266    0.1135   24.2518 C   0  0  0  0  0  0  0  0  0  0  0  0
   12.1478   -1.2587   22.4222 C   0  0  0  0  0  0  0  0  0  0  0  0
    9.1890   -3.5540   24.0140 C   0  0  0  0  0  0  0  0  0  0  0  0
    7.8700   -2.0610   25.3550 C   0  0  0  0  0  0  0  0  0  0  0  0
    9.5890   -2.4950   23.2210 C   0  0  0  0  0  0  0  0  0  0  0  0
    8.2550   -1.0010   24.5520 C   0  0  0  0  0  0  0  0  0  0  0  0
   11.9616   -0.1817   23.2889 C   0  0  0  0  0  0  0  0  0  0  0  0
    8.3450   -3.3440   25.0980 C   0  0  0  0  0  0  0  0  0  0  0  0
    9.1280   -1.2090   23.4870 C   0  0  0  0  0  0  0  0  0  0  0  0
    5.7970    0.9500   18.6730 C   0  0  0  0  0  0  0  0  0  0  0  0
    7.2710   -0.1460   19.8310 C   0  0  0  0  0  0  0  0  0  0  0  0
    4.6610    1.7170   18.4380 C   0  0  0  0  0  0  0  0  0  0  0  0
    3.8860    2.1050   19.5250 C   0  0  0  0  0  0  0  0  0  0  0  0
    4.2460    1.7520   20.8250 C   0  0  0  0  0  0  0  0  0  0  0  0
    5.3890    1.0010   21.0690 C   0  0  0  0  0  0  0  0  0  0  0  0
    7.1410   -4.3824   27.0476 C   0  0  0  0  0  0  0  0  0  0  0  0
    9.0430    0.2380   21.4940 C   0  0  0  0  0  0  0  0  0  0  0  0
    8.0779   -6.0692   28.6855 C   0  0  0  0  0  0  0  0  0  0  0  0
   10.7220    0.6590   23.1850 C   0  0  0  0  0  0  0  0  0  0  0  0
    7.0016   -5.7692   27.6576 C   0  0  0  0  0  0  0  0  0  0  0  0
    6.7100    0.3850   17.8100 N   0  0  0  0  0  0  0  0  0  0  0  0
    7.5840   -0.2700   18.5160 N   0  0  0  0  0  0  0  0  0  0  0  0
    6.1460    0.6070   19.9750 N   0  0  0  0  0  0  0  0  0  0  0  0
    7.9771   -4.4058   25.9196 N   0  0  0  0  0  0  0  0  0  0  0  0
    8.0950   -0.7700   20.8440 N   0  0  0  0  0  0  0  0  0  0  0  0
    9.5820   -0.1080   22.7000 N   0  0  0  0  0  0  0  0  0  0  0  0
    6.5731   -3.4036   27.5208 O   0  0  0  0  0  0  0  0  0  0  0  0
    9.2950    1.3000   20.9480 O   0  0  0  0  0  0  0  0  0  0  0  0
   15.1613   -2.3527   23.5555 H   0  0  0  0  0  0  0  0  0  0  0  0
   14.8297   -0.4373   25.0971 H   0  0  0  0  0  0  0  0  0  0  0  0
   13.4443   -2.8780   21.8427 H   0  0  0  0  0  0  0  0  0  0  0  0
   12.7899    0.9506   24.9315 H   0  0  0  0  0  0  0  0  0  0  0  0
   11.4013   -1.4963   21.6690 H   0  0  0  0  0  0  0  0  0  0  0  0
    9.5436   -4.5614   23.7799 H   0  0  0  0  0  0  0  0  0  0  0  0
    7.1918   -1.8823   26.1906 H   0  0  0  0  0  0  0  0  0  0  0  0
   10.2676   -2.6754   22.3861 H   0  0  0  0  0  0  0  0  0  0  0  0
    7.8686   -0.0026   24.7598 H   0  0  0  0  0  0  0  0  0  0  0  0
    4.3710    2.0145   17.4451 H   0  0  0  0  0  0  0  0  0  0  0  0
    2.9929    2.6891   19.3400 H   0  0  0  0  0  0  0  0  0  0  0  0
    3.6320    2.0596   21.6814 H   0  0  0  0  0  0  0  0  0  0  0  0
    5.6863    0.7288   22.0575 H   0  0  0  0  0  0  0  0  0  0  0  0
    9.0762   -6.0016   28.2408 H   0  0  0  0  0  0  0  0  0  0  0  0
    7.9502   -7.0790   29.0874 H   0  0  0  0  0  0  0  0  0  0  0  0
    8.0333   -5.3610   29.5194 H   0  0  0  0  0  0  0  0  0  0  0  0
   10.4561    1.0772   24.1620 H   0  0  0  0  0  0  0  0  0  0  0  0
   10.8743    1.5008   22.5014 H   0  0  0  0  0  0  0  0  0  0  0  0
    6.0150   -5.8439   28.1292 H   0  0  0  0  0  0  0  0  0  0  0  0
    7.0496   -6.5101   26.8512 H   0  0  0  0  0  0  0  0  0  0  0  0
    8.3623   -5.3253   25.6742 H   0  0  0  0  0  0  0  0  0  0  0  0
    8.0681   -1.6191   21.0706 H   0  0  0  0  0  0  0  0  0  0  0  0
  1  2  1  0  0  0  0
  1  3  2  0  0  0  0
  2  4  2  0  0  0  0
  3  5  1  0  0  0  0
  4 10  1  0  0  0  0
  5 10  2  0  0  0  0
  6  8  2  0  0  0  0
  6 11  1  0  0  0  0
  7  9  1  0  0  0  0
  7 11  2  0  0  0  0
  8 12  1  0  0  0  0
  9 12  2  0  0  0  0
 10 22  1  0  0  0  0
 11 27  1  0  0  0  0
 12 29  1  0  0  0  0
 13 15  1  0  0  0  0
 13 24  2  0  0  0  0
 13 26  1  0  0  0  0
 14 25  2  0  0  0  0
 14 26  1  0  0  0  0
 14 28  1  0  0  0  0
 15 16  2  0  0  0  0
 16 17  1  0  0  0  0
 17 18  2  0  0  0  0
 18 26  1  0  0  0  0
 19 23  1  0  0  0  0
 19 27  1  0  0  0  0
 19 30  2  0  0  0  0
 20 28  1  0  0  0  0
 20 29  1  0  0  0  0
 20 31  2  0  0  0  0
 21 23  1  0  0  0  0
 22 29  1  0  0  0  0
 24 25  1  0  0  0  0
  1 32  1  0  0  0  0
  2 33  1  0  0  0  0
  3 34  1  0  0  0  0
  4 35  1  0  0  0  0
  5 36  1  0  0  0  0
  6 37  1  0  0  0  0
  7 38  1  0  0  0  0
  8 39  1  0  0  0  0
  9 40  1  0  0  0  0
 15 41  1  0  0  0  0
 16 42  1  0  0  0  0
 17 43  1  0  0  0  0
 18 44  1  0  0  0  0
 21 45  1  0  0  0  0
 21 46  1  0  0  0  0
 21 47  1  0  0  0  0
 22 48  1  0  0  0  0
 22 49  1  0  0  0  0
 23 50  1  0  0  0  0
 23 51  1  0  0  0  0
 27 52  1  0  0  0  0
 28 53  1  0  0  0  0
M  END
> <clash_score>
0

> <docking_score>
-9.02126693725586

> <overlap_score>
0.9713020324707031

$$$$
BENZO_144_1
  -OEChem-08222022443D

 50 53  0     0  0  0  0  0  0999 V2000
    9.1890   -3.5540   24.0140 C   0  0  0  0  0  0  0  0  0  0  0  0
    7.8700   -2.0610   25.3550 C   0  0  0  0  0  0  0  0  0  0  0  0
    9.5890   -2.4950   23.2210 C   0  0  0  0  0  0  0  0  0  0  0  0
    8.2550   -1.0010   24.5520 C   0  0  0  0  0  0  0  0  0  0  0  0
   12.6785   -0.3937   24.5018 C   0  0  0  0  0  0  0  0  0  0  0  0
   13.7775   -1.2037   24.3186 C   0  0  0  0  0  0  0  0  0  0  0  0
   12.5401   -0.8378   22.2246 C   0  0  0  0  0  0  0  0  0  0  0  0
   11.9616   -0.1817   23.2889 C   0  0  0  0  0  0  0  0  0  0  0  0
    8.3450   -3.3440   25.0980 C   0  0  0  0  0  0  0  0  0  0  0  0
    9.1280   -1.2090   23.4870 C   0  0  0  0  0  0  0  0  0  0  0  0
    5.7970    0.9500   18.6730 C   0  0  0  0  0  0  0  0  0  0  0  0
    7.2710   -0.1460   19.8310 C   0  0  0  0  0  0  0  0  0  0  0  0
    4.6610    1.7170   18.4380 C   0  0  0  0  0  0  0  0  0  0  0  0
    3.8860    2.1050   19.5250 C   0  0  0  0  0  0  0  0  0  0  0  0
    4.2460    1.7520   20.8250 C   0  0  0  0  0  0  0  0  0  0  0  0
    5.3890    1.0010   21.0690 C   0  0  0  0  0  0  0  0  0  0  0  0
    8.2013   -4.5562   27.2977 C   0  0  0  0  0  0  0  0  0  0  0  0
    9.0430    0.2380   21.4940 C   0  0  0  0  0  0  0  0  0  0  0  0
    7.8866   -6.0877   29.2880 C   0  0  0  0  0  0  0  0  0  0  0  0
   10.7220    0.6590   23.1850 C   0  0  0  0  0  0  0  0  0  0  0  0
    7.6334   -5.8728   27.8066 C   0  0  0  0  0  0  0  0  0  0  0  0
    6.7100    0.3850   17.8100 N   0  0  0  0  0  0  0  0  0  0  0  0
    7.5840   -0.2700   18.5160 N   0  0  0  0  0  0  0  0  0  0  0  0
    6.1460    0.6070   19.9750 N   0  0  0  0  0  0  0  0  0  0  0  0
    7.9771   -4.4058   25.9196 N   0  0  0  0  0  0  0  0  0  0  0  0
    8.0950   -0.7700   20.8440 N   0  0  0  0  0  0  0  0  0  0  0  0
    9.5820   -0.1080   22.7000 N   0  0  0  0  0  0  0  0  0  0  0  0
    8.7722   -3.7639   28.0399 O   0  0  0  0  0  0  0  0  0  0  0  0
    9.2950    1.3000   20.9480 O   0  0  0  0  0  0  0  0  0  0  0  0
   13.9416   -1.7051   22.6894 S   0  0  0  0  0  0  0  0  0  0  0  0
    9.5436   -4.5614   23.7799 H   0  0  0  0  0  0  0  0  0  0  0  0
    7.1918   -1.8823   26.1906 H   0  0  0  0  0  0  0  0  0  0  0  0
   10.2676   -2.6754   22.3861 H   0  0  0  0  0  0  0  0  0  0  0  0
    7.8686   -0.0026   24.7598 H   0  0  0  0  0  0  0  0  0  0  0  0
   12.4058    0.0253   25.4623 H   0  0  0  0  0  0  0  0  0  0  0  0
   14.4923   -1.5246   25.0631 H   0  0  0  0  0  0  0  0  0  0  0  0
   12.2108   -0.8511   21.1948 H   0  0  0  0  0  0  0  0  0  0  0  0
    4.3710    2.0145   17.4451 H   0  0  0  0  0  0  0  0  0  0  0  0
    2.9929    2.6891   19.3400 H   0  0  0  0  0  0  0  0  0  0  0  0
    3.6320    2.0596   21.6814 H   0  0  0  0  0  0  0  0  0  0  0  0
    5.6863    0.7288   22.0575 H   0  0  0  0  0  0  0  0  0  0  0  0
    8.9592   -6.0823   29.5085 H   0  0  0  0  0  0  0  0  0  0  0  0
    7.4764   -7.0502   29.6091 H   0  0  0  0  0  0  0  0  0  0  0  0
    7.4171   -5.2994   29.8855 H   0  0  0  0  0  0  0  0  0  0  0  0
   10.4561    1.0772   24.1620 H   0  0  0  0  0  0  0  0  0  0  0  0
   10.8743    1.5008   22.5014 H   0  0  0  0  0  0  0  0  0  0  0  0
    6.5542   -5.8829   27.6152 H   0  0  0  0  0  0  0  0  0  0  0  0
    8.0873   -6.6910   27.2357 H   0  0  0  0  0  0  0  0  0  0  0  0
    7.4775   -5.1797   25.4662 H   0  0  0  0  0  0  0  0  0  0  0  0
    8.0681   -1.6191   21.0706 H   0  0  0  0  0  0  0  0  0  0  0  0
  1  3  2  0  0  0  0
  1  9  1  0  0  0  0
  2  4  1  0  0  0  0
  2  9  2  0  0  0  0
  3 10  1  0  0  0  0
  4 10  2  0  0  0  0
  5  6  2  0  0  0  0
  5  8  1  0  0  0  0
  6 30  1  0  0  0  0
  7  8  2  0  0  0  0
  7 30  1  0  0  0  0
  8 20  1  0  0  0  0
  9 25  1  0  0  0  0
 10 27  1  0  0  0  0
 11 13  1  0  0  0  0
 11 22  2  0  0  0  0
 11 24  1  0  0  0  0
 12 23  2  0  0  0  0
 12 24  1  0  0  0  0
 12 26  1  0  0  0  0
 13 14  2  0  0  0  0
 14 15  1  0  0  0  0
 15 16  2  0  0  0  0
 16 24  1  0  0  0  0
 17 21  1  0  0  0  0
 17 25  1  0  0  0  0
 17 28  2  0  0  0  0
 18 26  1  0  0  0  0
 18 27  1  0  0  0  0
 18 29  2  0  0  0  0
 19 21  1  0  0  0  0
 20 27  1  0  0  0  0
 22 23  1  0  0  0  0
  1 31  1  0  0  0  0
  2 32  1  0  0  0  0
  3 33  1  0  0  0  0
  4 34  1  0  0  0  0
  5 35  1  0  0  0  0
  6 36  1  0  0  0  0
  7 37  1  0  0  0  0
 13 38  1  0  0  0  0
 14 39  1  0  0  0  0
 15 40  1  0  0  0  0
 16 41  1  0  0  0  0
 19 42  1  0  0  0  0
 19 43  1  0  0  0  0
 19 44  1  0  0  0  0
 20 45  1  0  0  0  0
 20 46  1  0  0  0  0
 21 47  1  0  0  0  0
 21 48  1  0  0  0  0
 25 49  1  0  0  0  0
 26 50  1  0  0  0  0
M  END
> <clash_score>
0

> <docking_score>
-9.313255310058594

> <overlap_score>
0.9895446300506592

$$$$
BENZO_147_1
  -OEChem-08222022443D

 53 56  0     0  0  0  0  0  0999 V2000
    9.1890   -3.5540   24.0140 C   0  0  0  0  0  0  0  0  0  0  0  0
    7.8700   -2.0610   25.3550 C   0  0  0  0  0  0  0  0  0  0  0  0
    9.5890   -2.4950   23.2210 C   0  0  0  0  0  0  0  0  0  0  0  0
    8.2550   -1.0010   24.5520 C   0  0  0  0  0  0  0  0  0  0  0  0
   12.7320   -0.4464   24.4370 C   0  0  0  0  0  0  0  0  0  0  0  0
   12.5970   -0.8682   22.2832 C   0  0  0  0  0  0  0  0  0  0  0  0
   11.9616   -0.1817   23.2889 C   0  0  0  0  0  0  0  0  0  0  0  0
    8.3450   -3.3440   25.0980 C   0  0  0  0  0  0  0  0  0  0  0  0
    9.1280   -1.2090   23.4870 C   0  0  0  0  0  0  0  0  0  0  0  0
    5.7970    0.9500   18.6730 C   0  0  0  0  0  0  0  0  0  0  0  0
    7.2710   -0.1460   19.8310 C   0  0  0  0  0  0  0  0  0  0  0  0
    4.6610    1.7170   18.4380 C   0  0  0  0  0  0  0  0  0  0  0  0
    3.8860    2.1050   19.5250 C   0  0  0  0  0  0  0  0  0  0  0  0
    4.2460    1.7520   20.8250 C   0  0  0  0  0  0  0  0  0  0  0  0
    5.3890    1.0010   21.0690 C   0  0  0  0  0  0  0  0  0  0  0  0
    8.2013   -4.5562   27.2977 C   0  0  0  0  0  0  0  0  0  0  0  0
    9.0430    0.2380   21.4940 C   0  0  0  0  0  0  0  0  0  0  0  0
    7.8866   -6.0877   29.2880 C   0  0  0  0  0  0  0  0  0  0  0  0
   14.6393   -2.3180   22.2082 C   0  0  0  0  0  0  0  0  0  0  0  0
   10.7220    0.6590   23.1850 C   0  0  0  0  0  0  0  0  0  0  0  0
    7.6334   -5.8728   27.8066 C   0  0  0  0  0  0  0  0  0  0  0  0
   13.7770   -1.2393   24.1852 N   0  0  0  0  0  0  0  0  0  0  0  0
    6.7100    0.3850   17.8100 N   0  0  0  0  0  0  0  0  0  0  0  0
    7.5840   -0.2700   18.5160 N   0  0  0  0  0  0  0  0  0  0  0  0
   13.6676   -1.4788   22.8673 N   0  0  0  0  0  0  0  0  0  0  0  0
    6.1460    0.6070   19.9750 N   0  0  0  0  0  0  0  0  0  0  0  0
    7.9771   -4.4058   25.9196 N   0  0  0  0  0  0  0  0  0  0  0  0
    8.0950   -0.7700   20.8440 N   0  0  0  0  0  0  0  0  0  0  0  0
    9.5820   -0.1080   22.7000 N   0  0  0  0  0  0  0  0  0  0  0  0
    8.7722   -3.7639   28.0399 O   0  0  0  0  0  0  0  0  0  0  0  0
    9.2950    1.3000   20.9480 O   0  0  0  0  0  0  0  0  0  0  0  0
    9.5436   -4.5614   23.7799 H   0  0  0  0  0  0  0  0  0  0  0  0
    7.1918   -1.8823   26.1906 H   0  0  0  0  0  0  0  0  0  0  0  0
   10.2676   -2.6754   22.3861 H   0  0  0  0  0  0  0  0  0  0  0  0
    7.8686   -0.0026   24.7598 H   0  0  0  0  0  0  0  0  0  0  0  0
   12.5771   -0.0965   25.4478 H   0  0  0  0  0  0  0  0  0  0  0  0
   12.3832   -0.9726   21.2281 H   0  0  0  0  0  0  0  0  0  0  0  0
    4.3710    2.0145   17.4451 H   0  0  0  0  0  0  0  0  0  0  0  0
    2.9929    2.6891   19.3400 H   0  0  0  0  0  0  0  0  0  0  0  0
    3.6320    2.0596   21.6814 H   0  0  0  0  0  0  0  0  0  0  0  0
    5.6863    0.7288   22.0575 H   0  0  0  0  0  0  0  0  0  0  0  0
    8.9592   -6.0823   29.5085 H   0  0  0  0  0  0  0  0  0  0  0  0
    7.4764   -7.0502   29.6091 H   0  0  0  0  0  0  0  0  0  0  0  0
    7.4171   -5.2994   29.8855 H   0  0  0  0  0  0  0  0  0  0  0  0
   15.4522   -1.6787   21.8540 H   0  0  0  0  0  0  0  0  0  0  0  0
   15.0179   -3.0613   22.9154 H   0  0  0  0  0  0  0  0  0  0  0  0
   14.1626   -2.8324   21.3691 H   0  0  0  0  0  0  0  0  0  0  0  0
   10.4561    1.0772   24.1620 H   0  0  0  0  0  0  0  0  0  0  0  0
   10.8743    1.5008   22.5014 H   0  0  0  0  0  0  0  0  0  0  0  0
    6.5542   -5.8829   27.6152 H   0  0  0  0  0  0  0  0  0  0  0  0
    8.0873   -6.6910   27.2357 H   0  0  0  0  0  0  0  0  0  0  0  0
    7.4775   -5.1797   25.4662 H   0  0  0  0  0  0  0  0  0  0  0  0
    8.0681   -1.6191   21.0706 H   0  0  0  0  0  0  0  0  0  0  0  0
  1  3  2  0  0  0  0
  1  8  1  0  0  0  0
  2  4  1  0  0  0  0
  2  8  2  0  0  0  0
  3  9  1  0  0  0  0
  4  9  2  0  0  0  0
  5  7  1  0  0  0  0
  5 22  2  0  0  0  0
  6  7  2  0  0  0  0
  6 25  1  0  0  0  0
  7 20  1  0  0  0  0
  8 27  1  0  0  0  0
  9 29  1  0  0  0  0
 10 12  1  0  0  0  0
 10 23  2  0  0  0  0
 10 26  1  0  0  0  0
 11 24  2  0  0  0  0
 11 26  1  0  0  0  0
 11 28  1  0  0  0  0
 12 13  2  0  0  0  0
 13 14  1  0  0  0  0
 14 15  2  0  0  0  0
 15 26  1  0  0  0  0
 16 21  1  0  0  0  0
 16 27  1  0  0  0  0
 16 30  2  0  0  0  0
 17 28  1  0  0  0  0
 17 29  1  0  0  0  0
 17 31  2  0  0  0  0
 18 21  1  0  0  0  0
 19 25  1  0  0  0  0
 20 29  1  0  0  0  0
 22 25  1  0  0  0  0
 23 24  1  0  0  0  0
  1 32  1  0  0  0  0
  2 33  1  0  0  0  0
  3 34  1  0  0  0  0
  4 35  1  0  0  0  0
  5 36  1  0  0  0  0
  6 37  1  0  0  0  0
 12 38  1  0  0  0  0
 13 39  1  0  0  0  0
 14 40  1  0  0  0  0
 15 41  1  0  0  0  0
 18 42  1  0  0  0  0
 18 43  1  0  0  0  0
 18 44  1  0  0  0  0
 19 45  1  0  0  0  0
 19 46  1  0  0  0  0
 19 47  1  0  0  0  0
 20 48  1  0  0  0  0
 20 49  1  0  0  0  0
 21 50  1  0  0  0  0
 21 51  1  0  0  0  0
 27 52  1  0  0  0  0
 28 53  1  0  0  0  0
M  END
> <clash_score>
0

> <docking_score>
-8.062475204467773

> <overlap_score>
1.0061818361282349

$$$$
BENZO_149_1
  -OEChem-08222022443D

 58 62  0     0  0  0  0  0  0999 V2000
   14.2642   -1.7450   23.4813 C   0  0  0  0  0  0  0  0  0  0  0  0
   14.0779   -0.6681   24.3480 C   0  0  0  0  0  0  0  0  0  0  0  0
   13.2991   -2.0403   22.5184 C   0  0  0  0  0  0  0  0  0  0  0  0
   12.9266    0.1135   24.2518 C   0  0  0  0  0  0  0  0  0  0  0  0
   12.1478   -1.2587   22.4222 C   0  0  0  0  0  0  0  0  0  0  0  0
    9.1890   -3.5540   24.0140 C   0  0  0  0  0  0  0  0  0  0  0  0
    7.8700   -2.0610   25.3550 C   0  0  0  0  0  0  0  0  0  0  0  0
    9.5890   -2.4950   23.2210 C   0  0  0  0  0  0  0  0  0  0  0  0
    8.2550   -1.0010   24.5520 C   0  0  0  0  0  0  0  0  0  0  0  0
   11.9616   -0.1817   23.2889 C   0  0  0  0  0  0  0  0  0  0  0  0
    8.3450   -3.3440   25.0980 C   0  0  0  0  0  0  0  0  0  0  0  0
    9.1280   -1.2090   23.4870 C   0  0  0  0  0  0  0  0  0  0  0  0
    5.7970    0.9500   18.6730 C   0  0  0  0  0  0  0  0  0  0  0  0
    7.2710   -0.1460   19.8310 C   0  0  0  0  0  0  0  0  0  0  0  0
    4.6610    1.7170   18.4380 C   0  0  0  0  0  0  0  0  0  0  0  0
    3.8860    2.1050   19.5250 C   0  0  0  0  0  0  0  0  0  0  0  0
    4.2460    1.7520   20.8250 C   0  0  0  0  0  0  0  0  0  0  0  0
    5.3890    1.0010   21.0690 C   0  0  0  0  0  0  0  0  0  0  0  0
    9.0430    0.2380   21.4940 C   0  0  0  0  0  0  0  0  0  0  0  0
    7.3495   -6.6199   27.6701 C   0  0  0  0  0  0  0  0  0  0  0  0
    6.9542   -6.6348   26.1986 C   0  0  0  0  0  0  0  0  0  0  0  0
    7.3959   -5.1872   28.1871 C   0  0  0  0  0  0  0  0  0  0  0  0
    7.8834   -5.7613   25.3569 C   0  0  0  0  0  0  0  0  0  0  0  0
    8.3297   -4.3204   27.3453 C   0  0  0  0  0  0  0  0  0  0  0  0
   10.7220    0.6590   23.1850 C   0  0  0  0  0  0  0  0  0  0  0  0
    6.7100    0.3850   17.8100 N   0  0  0  0  0  0  0  0  0  0  0  0
    7.5840   -0.2700   18.5160 N   0  0  0  0  0  0  0  0  0  0  0  0
    6.1460    0.6070   19.9750 N   0  0  0  0  0  0  0  0  0  0  0  0
    7.9745   -4.4101   25.9218 N   0  0  0  0  0  0  0  0  0  0  0  0
    8.0950   -0.7700   20.8440 N   0  0  0  0  0  0  0  0  0  0  0  0
    9.5820   -0.1080   22.7000 N   0  0  0  0  0  0  0  0  0  0  0  0
    9.2950    1.3000   20.9480 O   0  0  0  0  0  0  0  0  0  0  0  0
   15.1613   -2.3527   23.5555 H   0  0  0  0  0  0  0  0  0  0  0  0
   14.8297   -0.4373   25.0971 H   0  0  0  0  0  0  0  0  0  0  0  0
   13.4443   -2.8780   21.8427 H   0  0  0  0  0  0  0  0  0  0  0  0
   12.7899    0.9506   24.9315 H   0  0  0  0  0  0  0  0  0  0  0  0
   11.4013   -1.4963   21.6690 H   0  0  0  0  0  0  0  0  0  0  0  0
    9.5426   -4.5618   23.7797 H   0  0  0  0  0  0  0  0  0  0  0  0
    7.1914   -1.8824   26.1903 H   0  0  0  0  0  0  0  0  0  0  0  0
   10.2669   -2.6745   22.3854 H   0  0  0  0  0  0  0  0  0  0  0  0
    7.8690   -0.0020   24.7587 H   0  0  0  0  0  0  0  0  0  0  0  0
    4.3710    2.0145   17.4451 H   0  0  0  0  0  0  0  0  0  0  0  0
    2.9929    2.6891   19.3400 H   0  0  0  0  0  0  0  0  0  0  0  0
    3.6320    2.0596   21.6814 H   0  0  0  0  0  0  0  0  0  0  0  0
    5.6863    0.7288   22.0575 H   0  0  0  0  0  0  0  0  0  0  0  0
    6.6275   -7.2030   28.2544 H   0  0  0  0  0  0  0  0  0  0  0  0
    8.3286   -7.0944   27.7981 H   0  0  0  0  0  0  0  0  0  0  0  0
    6.9785   -7.6646   25.8205 H   0  0  0  0  0  0  0  0  0  0  0  0
    5.9224   -6.2815   26.0912 H   0  0  0  0  0  0  0  0  0  0  0  0
    6.3874   -4.7586   28.1744 H   0  0  0  0  0  0  0  0  0  0  0  0
    7.7314   -5.1812   29.2316 H   0  0  0  0  0  0  0  0  0  0  0  0
    8.8752   -6.2297   25.3260 H   0  0  0  0  0  0  0  0  0  0  0  0
    7.5092   -5.7078   24.3260 H   0  0  0  0  0  0  0  0  0  0  0  0
    8.2703   -3.2761   27.6782 H   0  0  0  0  0  0  0  0  0  0  0  0
    9.3614   -4.6600   27.5015 H   0  0  0  0  0  0  0  0  0  0  0  0
   10.4561    1.0772   24.1620 H   0  0  0  0  0  0  0  0  0  0  0  0
   10.8743    1.5008   22.5014 H   0  0  0  0  0  0  0  0  0  0  0  0
    8.0897   -1.6082   21.0890 H   0  0  0  0  0  0  0  0  0  0  0  0
  1  2  1  0  0  0  0
  1  3  2  0  0  0  0
  2  4  2  0  0  0  0
  3  5  1  0  0  0  0
  4 10  1  0  0  0  0
  5 10  2  0  0  0  0
  6  8  2  0  0  0  0
  6 11  1  0  0  0  0
  7  9  1  0  0  0  0
  7 11  2  0  0  0  0
  8 12  1  0  0  0  0
  9 12  2  0  0  0  0
 10 25  1  0  0  0  0
 11 29  1  0  0  0  0
 12 31  1  0  0  0  0
 13 15  1  0  0  0  0
 13 26  2  0  0  0  0
 13 28  1  0  0  0  0
 14 27  2  0  0  0  0
 14 28  1  0  0  0  0
 14 30  1  0  0  0  0
 15 16  2  0  0  0  0
 16 17  1  0  0  0  0
 17 18  2  0  0  0  0
 18 28  1  0  0  0  0
 19 30  1  0  0  0  0
 19 31  1  0  0  0  0
 19 32  2  0  0  0  0
 20 21  1  0  0  0  0
 20 22  1  0  0  0  0
 21 23  1  0  0  0  0
 22 24  1  0  0  0  0
 23 29  1  0  0  0  0
 24 29  1  0  0  0  0
 25 31  1  0  0  0  0
 26 27  1  0  0  0  0
  1 33  1  0  0  0  0
  2 34  1  0  0  0  0
  3 35  1  0  0  0  0
  4 36  1  0  0  0  0
  5 37  1  0  0  0  0
  6 38  1  0  0  0  0
  7 39  1  0  0  0  0
  8 40  1  0  0  0  0
  9 41  1  0  0  0  0
 15 42  1  0  0  0  0
 16 43  1  0  0  0  0
 17 44  1  0  0  0  0
 18 45  1  0  0  0  0
 20 46  1  0  0  0  0
 20 47  1  0  0  0  0
 21 48  1  0  0  0  0
 21 49  1  0  0  0  0
 22 50  1  0  0  0  0
 22 51  1  0  0  0  0
 23 52  1  0  0  0  0
 23 53  1  0  0  0  0
 24 54  1  0  0  0  0
 24 55  1  0  0  0  0
 25 56  1  0  0  0  0
 25 57  1  0  0  0  0
 30 58  1  0  0  0  0
M  END
> <clash_score>
0

> <docking_score>
-9.106736183166504

> <overlap_score>
0.9952272772789001

$$$$
BENZO_146_1
  -OEChem-08222022443D

 53 56  0     0  0  0  0  0  0999 V2000
   13.7501   -1.1157   24.6176 C   0  0  0  0  0  0  0  0  0  0  0  0
   12.5991   -0.3339   24.5202 C   0  0  0  0  0  0  0  0  0  0  0  0
    9.1890   -3.5540   24.0140 C   0  0  0  0  0  0  0  0  0  0  0  0
    7.8700   -2.0610   25.3550 C   0  0  0  0  0  0  0  0  0  0  0  0
    9.5890   -2.4950   23.2210 C   0  0  0  0  0  0  0  0  0  0  0  0
    8.2550   -1.0010   24.5520 C   0  0  0  0  0  0  0  0  0  0  0  0
   14.2636   -1.7454   23.4838 C   0  0  0  0  0  0  0  0  0  0  0  0
   12.4750   -0.8115   22.1551 C   0  0  0  0  0  0  0  0  0  0  0  0
   11.9616   -0.1817   23.2889 C   0  0  0  0  0  0  0  0  0  0  0  0
    8.3450   -3.3440   25.0980 C   0  0  0  0  0  0  0  0  0  0  0  0
    9.1280   -1.2090   23.4870 C   0  0  0  0  0  0  0  0  0  0  0  0
   13.6260   -1.5933   22.2526 C   0  0  0  0  0  0  0  0  0  0  0  0
    5.7970    0.9500   18.6730 C   0  0  0  0  0  0  0  0  0  0  0  0
    7.2710   -0.1460   19.8310 C   0  0  0  0  0  0  0  0  0  0  0  0
    4.6610    1.7170   18.4380 C   0  0  0  0  0  0  0  0  0  0  0  0
    3.8860    2.1050   19.5250 C   0  0  0  0  0  0  0  0  0  0  0  0
    4.2460    1.7520   20.8250 C   0  0  0  0  0  0  0  0  0  0  0  0
    5.3890    1.0010   21.0690 C   0  0  0  0  0  0  0  0  0  0  0  0
    8.2013   -4.5562   27.2977 C   0  0  0  0  0  0  0  0  0  0  0  0
    9.0430    0.2380   21.4940 C   0  0  0  0  0  0  0  0  0  0  0  0
    7.8866   -6.0877   29.2880 C   0  0  0  0  0  0  0  0  0  0  0  0
   10.7220    0.6590   23.1850 C   0  0  0  0  0  0  0  0  0  0  0  0
    7.6334   -5.8728   27.8066 C   0  0  0  0  0  0  0  0  0  0  0  0
    6.7100    0.3850   17.8100 N   0  0  0  0  0  0  0  0  0  0  0  0
    7.5840   -0.2700   18.5160 N   0  0  0  0  0  0  0  0  0  0  0  0
    6.1460    0.6070   19.9750 N   0  0  0  0  0  0  0  0  0  0  0  0
    7.9771   -4.4058   25.9196 N   0  0  0  0  0  0  0  0  0  0  0  0
    8.0950   -0.7700   20.8440 N   0  0  0  0  0  0  0  0  0  0  0  0
    9.5820   -0.1080   22.7000 N   0  0  0  0  0  0  0  0  0  0  0  0
    8.7722   -3.7639   28.0399 O   0  0  0  0  0  0  0  0  0  0  0  0
    9.2950    1.3000   20.9480 O   0  0  0  0  0  0  0  0  0  0  0  0
   14.2594   -2.3714   20.8543 Cl  0  0  0  0  0  0  0  0  0  0  0  0
   14.2462   -1.2340   25.5766 H   0  0  0  0  0  0  0  0  0  0  0  0
   12.2060    0.1530   25.4088 H   0  0  0  0  0  0  0  0  0  0  0  0
    9.5436   -4.5614   23.7799 H   0  0  0  0  0  0  0  0  0  0  0  0
    7.1918   -1.8823   26.1906 H   0  0  0  0  0  0  0  0  0  0  0  0
   10.2676   -2.6754   22.3861 H   0  0  0  0  0  0  0  0  0  0  0  0
    7.8686   -0.0026   24.7598 H   0  0  0  0  0  0  0  0  0  0  0  0
   15.1613   -2.3520   23.5747 H   0  0  0  0  0  0  0  0  0  0  0  0
   11.9745   -0.6893   21.1973 H   0  0  0  0  0  0  0  0  0  0  0  0
    4.3710    2.0145   17.4451 H   0  0  0  0  0  0  0  0  0  0  0  0
    2.9929    2.6891   19.3400 H   0  0  0  0  0  0  0  0  0  0  0  0
    3.6320    2.0596   21.6814 H   0  0  0  0  0  0  0  0  0  0  0  0
    5.6863    0.7288   22.0575 H   0  0  0  0  0  0  0  0  0  0  0  0
    8.9592   -6.0823   29.5085 H   0  0  0  0  0  0  0  0  0  0  0  0
    7.4764   -7.0502   29.6091 H   0  0  0  0  0  0  0  0  0  0  0  0
    7.4171   -5.2994   29.8855 H   0  0  0  0  0  0  0  0  0  0  0  0
   10.4561    1.0772   24.1620 H   0  0  0  0  0  0  0  0  0  0  0  0
   10.8743    1.5008   22.5014 H   0  0  0  0  0  0  0  0  0  0  0  0
    6.5542   -5.8829   27.6152 H   0  0  0  0  0  0  0  0  0  0  0  0
    8.0873   -6.6910   27.2357 H   0  0  0  0  0  0  0  0  0  0  0  0
    7.4775   -5.1797   25.4662 H   0  0  0  0  0  0  0  0  0  0  0  0
    8.0681   -1.6191   21.0706 H   0  0  0  0  0  0  0  0  0  0  0  0
  1  2  2  0  0  0  0
  1  7  1  0  0  0  0
  2  9  1  0  0  0  0
  3  5  2  0  0  0  0
  3 10  1  0  0  0  0
  4  6  1  0  0  0  0
  4 10  2  0  0  0  0
  5 11  1  0  0  0  0
  6 11  2  0  0  0  0
  7 12  2  0  0  0  0
  8  9  2  0  0  0  0
  8 12  1  0  0  0  0
  9 22  1  0  0  0  0
 10 27  1  0  0  0  0
 11 29  1  0  0  0  0
 12 32  1  0  0  0  0
 13 15  1  0  0  0  0
 13 24  2  0  0  0  0
 13 26  1  0  0  0  0
 14 25  2  0  0  0  0
 14 26  1  0  0  0  0
 14 28  1  0  0  0  0
 15 16  2  0  0  0  0
 16 17  1  0  0  0  0
 17 18  2  0  0  0  0
 18 26  1  0  0  0  0
 19 23  1  0  0  0  0
 19 27  1  0  0  0  0
 19 30  2  0  0  0  0
 20 28  1  0  0  0  0
 20 29  1  0  0  0  0
 20 31  2  0  0  0  0
 21 23  1  0  0  0  0
 22 29  1  0  0  0  0
 24 25  1  0  0  0  0
  1 33  1  0  0  0  0
  2 34  1  0  0  0  0
  3 35  1  0  0  0  0
  4 36  1  0  0  0  0
  5 37  1  0  0  0  0
  6 38  1  0  0  0  0
  7 39  1  0  0  0  0
  8 40  1  0  0  0  0
 15 41  1  0  0  0  0
 16 42  1  0  0  0  0
 17 43  1  0  0  0  0
 18 44  1  0  0  0  0
 21 45  1  0  0  0  0
 21 46  1  0  0  0  0
 21 47  1  0  0  0  0
 22 48  1  0  0  0  0
 22 49  1  0  0  0  0
 23 50  1  0  0  0  0
 23 51  1  0  0  0  0
 27 52  1  0  0  0  0
 28 53  1  0  0  0  0
M  END
> <clash_score>
0

> <docking_score>
-8.826444625854492

> <overlap_score>
1.0106953382492065

$$$$
BENZO_148_1
  -OEChem-08222022443D

 55 59  0     0  0  0  0  0  0999 V2000
    9.1890   -3.5540   24.0140 C   0  0  0  0  0  0  0  0  0  0  0  0
    7.8700   -2.0610   25.3550 C   0  0  0  0  0  0  0  0  0  0  0  0
    9.5890   -2.4950   23.2210 C   0  0  0  0  0  0  0  0  0  0  0  0
    8.2550   -1.0010   24.5520 C   0  0  0  0  0  0  0  0  0  0  0  0
   12.6785   -0.3936   24.5018 C   0  0  0  0  0  0  0  0  0  0  0  0
   13.7775   -1.2037   24.3186 C   0  0  0  0  0  0  0  0  0  0  0  0
   12.5401   -0.8378   22.2246 C   0  0  0  0  0  0  0  0  0  0  0  0
   11.9616   -0.1817   23.2889 C   0  0  0  0  0  0  0  0  0  0  0  0
    8.3450   -3.3440   25.0980 C   0  0  0  0  0  0  0  0  0  0  0  0
    9.1280   -1.2090   23.4870 C   0  0  0  0  0  0  0  0  0  0  0  0
    5.7970    0.9500   18.6730 C   0  0  0  0  0  0  0  0  0  0  0  0
    7.2710   -0.1460   19.8310 C   0  0  0  0  0  0  0  0  0  0  0  0
    4.6610    1.7170   18.4380 C   0  0  0  0  0  0  0  0  0  0  0  0
    3.8860    2.1050   19.5250 C   0  0  0  0  0  0  0  0  0  0  0  0
    4.2460    1.7520   20.8250 C   0  0  0  0  0  0  0  0  0  0  0  0
    5.3890    1.0010   21.0690 C   0  0  0  0  0  0  0  0  0  0  0  0
    9.0430    0.2380   21.4940 C   0  0  0  0  0  0  0  0  0  0  0  0
    7.5748   -4.8280   28.7278 C   0  0  0  0  0  0  0  0  0  0  0  0
    8.9776   -4.7555   28.1204 C   0  0  0  0  0  0  0  0  0  0  0  0
    6.5554   -4.0713   27.8732 C   0  0  0  0  0  0  0  0  0  0  0  0
    8.9620   -5.1961   26.6568 C   0  0  0  0  0  0  0  0  0  0  0  0
    6.6009   -4.5253   26.4110 C   0  0  0  0  0  0  0  0  0  0  0  0
   10.7220    0.6590   23.1850 C   0  0  0  0  0  0  0  0  0  0  0  0
    6.7100    0.3850   17.8100 N   0  0  0  0  0  0  0  0  0  0  0  0
    7.5840   -0.2700   18.5160 N   0  0  0  0  0  0  0  0  0  0  0  0
    6.1460    0.6070   19.9750 N   0  0  0  0  0  0  0  0  0  0  0  0
    7.9770   -4.4029   25.9162 N   0  0  0  0  0  0  0  0  0  0  0  0
    8.0950   -0.7700   20.8440 N   0  0  0  0  0  0  0  0  0  0  0  0
    9.5820   -0.1080   22.7000 N   0  0  0  0  0  0  0  0  0  0  0  0
    9.2950    1.3000   20.9480 O   0  0  0  0  0  0  0  0  0  0  0  0
   13.9416   -1.7051   22.6894 S   0  0  0  0  0  0  0  0  0  0  0  0
    9.5426   -4.5618   23.7797 H   0  0  0  0  0  0  0  0  0  0  0  0
    7.1914   -1.8824   26.1903 H   0  0  0  0  0  0  0  0  0  0  0  0
   10.2669   -2.6745   22.3854 H   0  0  0  0  0  0  0  0  0  0  0  0
    7.8690   -0.0020   24.7587 H   0  0  0  0  0  0  0  0  0  0  0  0
   12.4058    0.0253   25.4623 H   0  0  0  0  0  0  0  0  0  0  0  0
   14.4923   -1.5246   25.0631 H   0  0  0  0  0  0  0  0  0  0  0  0
   12.2108   -0.8511   21.1948 H   0  0  0  0  0  0  0  0  0  0  0  0
    4.3710    2.0145   17.4451 H   0  0  0  0  0  0  0  0  0  0  0  0
    2.9929    2.6891   19.3400 H   0  0  0  0  0  0  0  0  0  0  0  0
    3.6320    2.0596   21.6814 H   0  0  0  0  0  0  0  0  0  0  0  0
    5.6863    0.7288   22.0575 H   0  0  0  0  0  0  0  0  0  0  0  0
    7.2681   -5.8807   28.8239 H   0  0  0  0  0  0  0  0  0  0  0  0
    7.5891   -4.4101   29.7448 H   0  0  0  0  0  0  0  0  0  0  0  0
    9.3554   -3.7320   28.1920 H   0  0  0  0  0  0  0  0  0  0  0  0
    9.6558   -5.3943   28.6900 H   0  0  0  0  0  0  0  0  0  0  0  0
    5.5496   -4.2322   28.2751 H   0  0  0  0  0  0  0  0  0  0  0  0
    6.7545   -2.9948   27.9293 H   0  0  0  0  0  0  0  0  0  0  0  0
    9.9612   -5.0560   26.2363 H   0  0  0  0  0  0  0  0  0  0  0  0
    8.7097   -6.2583   26.5922 H   0  0  0  0  0  0  0  0  0  0  0  0
    6.2649   -5.5600   26.3335 H   0  0  0  0  0  0  0  0  0  0  0  0
    5.9271   -3.8964   25.8283 H   0  0  0  0  0  0  0  0  0  0  0  0
   10.4561    1.0772   24.1620 H   0  0  0  0  0  0  0  0  0  0  0  0
   10.8743    1.5008   22.5014 H   0  0  0  0  0  0  0  0  0  0  0  0
    8.0897   -1.6082   21.0890 H   0  0  0  0  0  0  0  0  0  0  0  0
  1  3  2  0  0  0  0
  1  9  1  0  0  0  0
  2  4  1  0  0  0  0
  2  9  2  0  0  0  0
  3 10  1  0  0  0  0
  4 10  2  0  0  0  0
  5  6  2  0  0  0  0
  5  8  1  0  0  0  0
  6 31  1  0  0  0  0
  7  8  2  0  0  0  0
  7 31  1  0  0  0  0
  8 23  1  0  0  0  0
  9 27  1  0  0  0  0
 10 29  1  0  0  0  0
 11 13  1  0  0  0  0
 11 24  2  0  0  0  0
 11 26  1  0  0  0  0
 12 25  2  0  0  0  0
 12 26  1  0  0  0  0
 12 28  1  0  0  0  0
 13 14  2  0  0  0  0
 14 15  1  0  0  0  0
 15 16  2  0  0  0  0
 16 26  1  0  0  0  0
 17 28  1  0  0  0  0
 17 29  1  0  0  0  0
 17 30  2  0  0  0  0
 18 19  1  0  0  0  0
 18 20  1  0  0  0  0
 19 21  1  0  0  0  0
 20 22  1  0  0  0  0
 21 27  1  0  0  0  0
 22 27  1  0  0  0  0
 23 29  1  0  0  0  0
 24 25  1  0  0  0  0
  1 32  1  0  0  0  0
  2 33  1  0  0  0  0
  3 34  1  0  0  0  0
  4 35  1  0  0  0  0
  5 36  1  0  0  0  0
  6 37  1  0  0  0  0
  7 38  1  0  0  0  0
 13 39  1  0  0  0  0
 14 40  1  0  0  0  0
 15 41  1  0  0  0  0
 16 42  1  0  0  0  0
 18 43  1  0  0  0  0
 18 44  1  0  0  0  0
 19 45  1  0  0  0  0
 19 46  1  0  0  0  0
 20 47  1  0  0  0  0
 20 48  1  0  0  0  0
 21 49  1  0  0  0  0
 21 50  1  0  0  0  0
 22 51  1  0  0  0  0
 22 52  1  0  0  0  0
 23 53  1  0  0  0  0
 23 54  1  0  0  0  0
 28 55  1  0  0  0  0
M  END
> <clash_score>
0

> <docking_score>
-9.672492027282715

> <overlap_score>
0.9766672849655151

$$$$
BENZO_153_1
  -OEChem-08222022443D

 46 49  0     0  0  0  0  0  0999 V2000
   14.2641   -1.7450   23.4813 C   0  0  0  0  0  0  0  0  0  0  0  0
   14.0779   -0.6681   24.3480 C   0  0  0  0  0  0  0  0  0  0  0  0
   13.2991   -2.0403   22.5184 C   0  0  0  0  0  0  0  0  0  0  0  0
   12.9266    0.1135   24.2518 C   0  0  0  0  0  0  0  0  0  0  0  0
   12.1478   -1.2587   22.4222 C   0  0  0  0  0  0  0  0  0  0  0  0
    9.1890   -3.5540   24.0140 C   0  0  0  0  0  0  0  0  0  0  0  0
    7.8700   -2.0610   25.3550 C   0  0  0  0  0  0  0  0  0  0  0  0
    9.5890   -2.4950   23.2210 C   0  0  0  0  0  0  0  0  0  0  0  0
    8.2550   -1.0010   24.5520 C   0  0  0  0  0  0  0  0  0  0  0  0
    8.3450   -3.3440   25.0980 C   0  0  0  0  0  0  0  0  0  0  0  0
   11.9616   -0.1817   23.2889 C   0  0  0  0  0  0  0  0  0  0  0  0
    9.1280   -1.2090   23.4870 C   0  0  0  0  0  0  0  0  0  0  0  0
    5.7970    0.9500   18.6730 C   0  0  0  0  0  0  0  0  0  0  0  0
    7.2710   -0.1460   19.8310 C   0  0  0  0  0  0  0  0  0  0  0  0
    4.6610    1.7170   18.4380 C   0  0  0  0  0  0  0  0  0  0  0  0
    3.8860    2.1050   19.5250 C   0  0  0  0  0  0  0  0  0  0  0  0
    4.2460    1.7520   20.8250 C   0  0  0  0  0  0  0  0  0  0  0  0
    5.3890    1.0010   21.0690 C   0  0  0  0  0  0  0  0  0  0  0  0
    9.0430    0.2380   21.4940 C   0  0  0  0  0  0  0  0  0  0  0  0
    7.9522   -4.4794   25.9764 C   0  0  0  0  0  0  0  0  0  0  0  0
   10.7220    0.6590   23.1850 C   0  0  0  0  0  0  0  0  0  0  0  0
    6.7100    0.3850   17.8100 N   0  0  0  0  0  0  0  0  0  0  0  0
    7.5840   -0.2700   18.5160 N   0  0  0  0  0  0  0  0  0  0  0  0
    6.1460    0.6070   19.9750 N   0  0  0  0  0  0  0  0  0  0  0  0
    8.0950   -0.7700   20.8440 N   0  0  0  0  0  0  0  0  0  0  0  0
    9.5820   -0.1080   22.7000 N   0  0  0  0  0  0  0  0  0  0  0  0
    9.2950    1.3000   20.9480 O   0  0  0  0  0  0  0  0  0  0  0  0
   15.1613   -2.3527   23.5555 H   0  0  0  0  0  0  0  0  0  0  0  0
   14.8297   -0.4373   25.0971 H   0  0  0  0  0  0  0  0  0  0  0  0
   13.4443   -2.8780   21.8427 H   0  0  0  0  0  0  0  0  0  0  0  0
   12.7899    0.9506   24.9315 H   0  0  0  0  0  0  0  0  0  0  0  0
   11.4013   -1.4963   21.6690 H   0  0  0  0  0  0  0  0  0  0  0  0
    9.5403   -4.5627   23.7809 H   0  0  0  0  0  0  0  0  0  0  0  0
    7.1911   -1.8848   26.1904 H   0  0  0  0  0  0  0  0  0  0  0  0
   10.2682   -2.6746   22.3865 H   0  0  0  0  0  0  0  0  0  0  0  0
    7.8684   -0.0022   24.7594 H   0  0  0  0  0  0  0  0  0  0  0  0
    4.3710    2.0145   17.4451 H   0  0  0  0  0  0  0  0  0  0  0  0
    2.9929    2.6891   19.3400 H   0  0  0  0  0  0  0  0  0  0  0  0
    3.6320    2.0596   21.6814 H   0  0  0  0  0  0  0  0  0  0  0  0
    5.6863    0.7288   22.0575 H   0  0  0  0  0  0  0  0  0  0  0  0
    8.6668   -4.5891   26.8013 H   0  0  0  0  0  0  0  0  0  0  0  0
    6.9513   -4.3276   26.4010 H   0  0  0  0  0  0  0  0  0  0  0  0
    7.9196   -5.4231   25.4163 H   0  0  0  0  0  0  0  0  0  0  0  0
   10.4561    1.0772   24.1620 H   0  0  0  0  0  0  0  0  0  0  0  0
   10.8743    1.5008   22.5014 H   0  0  0  0  0  0  0  0  0  0  0  0
    8.0681   -1.6191   21.0706 H   0  0  0  0  0  0  0  0  0  0  0  0
  1  2  1  0  0  0  0
  1  3  2  0  0  0  0
  2  4  2  0  0  0  0
  3  5  1  0  0  0  0
  4 11  1  0  0  0  0
  5 11  2  0  0  0  0
  6  8  2  0  0  0  0
  6 10  1  0  0  0  0
  7  9  1  0  0  0  0
  7 10  2  0  0  0  0
  8 12  1  0  0  0  0
  9 12  2  0  0  0  0
 10 20  1  0  0  0  0
 11 21  1  0  0  0  0
 12 26  1  0  0  0  0
 13 15  1  0  0  0  0
 13 22  2  0  0  0  0
 13 24  1  0  0  0  0
 14 23  2  0  0  0  0
 14 24  1  0  0  0  0
 14 25  1  0  0  0  0
 15 16  2  0  0  0  0
 16 17  1  0  0  0  0
 17 18  2  0  0  0  0
 18 24  1  0  0  0  0
 19 25  1  0  0  0  0
 19 26  1  0  0  0  0
 19 27  2  0  0  0  0
 21 26  1  0  0  0  0
 22 23  1  0  0  0  0
  1 28  1  0  0  0  0
  2 29  1  0  0  0  0
  3 30  1  0  0  0  0
  4 31  1  0  0  0  0
  5 32  1  0  0  0  0
  6 33  1  0  0  0  0
  7 34  1  0  0  0  0
  8 35  1  0  0  0  0
  9 36  1  0  0  0  0
 15 37  1  0  0  0  0
 16 38  1  0  0  0  0
 17 39  1  0  0  0  0
 18 40  1  0  0  0  0
 20 41  1  0  0  0  0
 20 42  1  0  0  0  0
 20 43  1  0  0  0  0
 21 44  1  0  0  0  0
 21 45  1  0  0  0  0
 25 46  1  0  0  0  0
M  END
> <clash_score>
0

> <docking_score>
-9.330706596374512

> <overlap_score>
0.9021970629692078

$$$$
BENZO_152_1
  -OEChem-08222022443D

 43 46  0     0  0  0  0  0  0999 V2000
    9.1890   -3.5540   24.0140 C   0  0  0  0  0  0  0  0  0  0  0  0
    7.8700   -2.0610   25.3550 C   0  0  0  0  0  0  0  0  0  0  0  0
    9.5890   -2.4950   23.2210 C   0  0  0  0  0  0  0  0  0  0  0  0
    8.2550   -1.0010   24.5520 C   0  0  0  0  0  0  0  0  0  0  0  0
   12.6785   -0.3937   24.5018 C   0  0  0  0  0  0  0  0  0  0  0  0
   13.7775   -1.2037   24.3186 C   0  0  0  0  0  0  0  0  0  0  0  0
   12.5401   -0.8378   22.2246 C   0  0  0  0  0  0  0  0  0  0  0  0
    8.3450   -3.3440   25.0980 C   0  0  0  0  0  0  0  0  0  0  0  0
   11.9616   -0.1817   23.2889 C   0  0  0  0  0  0  0  0  0  0  0  0
    9.1280   -1.2090   23.4870 C   0  0  0  0  0  0  0  0  0  0  0  0
    5.7970    0.9500   18.6730 C   0  0  0  0  0  0  0  0  0  0  0  0
    7.2710   -0.1460   19.8310 C   0  0  0  0  0  0  0  0  0  0  0  0
    4.6610    1.7170   18.4380 C   0  0  0  0  0  0  0  0  0  0  0  0
    3.8860    2.1050   19.5250 C   0  0  0  0  0  0  0  0  0  0  0  0
    4.2460    1.7520   20.8250 C   0  0  0  0  0  0  0  0  0  0  0  0
    5.3890    1.0010   21.0690 C   0  0  0  0  0  0  0  0  0  0  0  0
    9.0430    0.2380   21.4940 C   0  0  0  0  0  0  0  0  0  0  0  0
    7.9522   -4.4794   25.9764 C   0  0  0  0  0  0  0  0  0  0  0  0
   10.7220    0.6590   23.1850 C   0  0  0  0  0  0  0  0  0  0  0  0
    6.7100    0.3850   17.8100 N   0  0  0  0  0  0  0  0  0  0  0  0
    7.5840   -0.2700   18.5160 N   0  0  0  0  0  0  0  0  0  0  0  0
    6.1460    0.6070   19.9750 N   0  0  0  0  0  0  0  0  0  0  0  0
    8.0950   -0.7700   20.8440 N   0  0  0  0  0  0  0  0  0  0  0  0
    9.5820   -0.1080   22.7000 N   0  0  0  0  0  0  0  0  0  0  0  0
    9.2950    1.3000   20.9480 O   0  0  0  0  0  0  0  0  0  0  0  0
   13.9416   -1.7051   22.6894 S   0  0  0  0  0  0  0  0  0  0  0  0
    9.5403   -4.5627   23.7809 H   0  0  0  0  0  0  0  0  0  0  0  0
    7.1911   -1.8848   26.1904 H   0  0  0  0  0  0  0  0  0  0  0  0
   10.2682   -2.6746   22.3865 H   0  0  0  0  0  0  0  0  0  0  0  0
    7.8684   -0.0022   24.7594 H   0  0  0  0  0  0  0  0  0  0  0  0
   12.4058    0.0253   25.4623 H   0  0  0  0  0  0  0  0  0  0  0  0
   14.4923   -1.5246   25.0631 H   0  0  0  0  0  0  0  0  0  0  0  0
   12.2108   -0.8511   21.1948 H   0  0  0  0  0  0  0  0  0  0  0  0
    4.3710    2.0145   17.4451 H   0  0  0  0  0  0  0  0  0  0  0  0
    2.9929    2.6891   19.3400 H   0  0  0  0  0  0  0  0  0  0  0  0
    3.6320    2.0596   21.6814 H   0  0  0  0  0  0  0  0  0  0  0  0
    5.6863    0.7288   22.0575 H   0  0  0  0  0  0  0  0  0  0  0  0
    8.6668   -4.5891   26.8013 H   0  0  0  0  0  0  0  0  0  0  0  0
    6.9513   -4.3276   26.4010 H   0  0  0  0  0  0  0  0  0  0  0  0
    7.9196   -5.4231   25.4163 H   0  0  0  0  0  0  0  0  0  0  0  0
   10.4561    1.0772   24.1620 H   0  0  0  0  0  0  0  0  0  0  0  0
   10.8743    1.5008   22.5014 H   0  0  0  0  0  0  0  0  0  0  0  0
    8.0681   -1.6191   21.0706 H   0  0  0  0  0  0  0  0  0  0  0  0
  1  3  2  0  0  0  0
  1  8  1  0  0  0  0
  2  4  1  0  0  0  0
  2  8  2  0  0  0  0
  3 10  1  0  0  0  0
  4 10  2  0  0  0  0
  5  6  2  0  0  0  0
  5  9  1  0  0  0  0
  6 26  1  0  0  0  0
  7  9  2  0  0  0  0
  7 26  1  0  0  0  0
  8 18  1  0  0  0  0
  9 19  1  0  0  0  0
 10 24  1  0  0  0  0
 11 13  1  0  0  0  0
 11 20  2  0  0  0  0
 11 22  1  0  0  0  0
 12 21  2  0  0  0  0
 12 22  1  0  0  0  0
 12 23  1  0  0  0  0
 13 14  2  0  0  0  0
 14 15  1  0  0  0  0
 15 16  2  0  0  0  0
 16 22  1  0  0  0  0
 17 23  1  0  0  0  0
 17 24  1  0  0  0  0
 17 25  2  0  0  0  0
 19 24  1  0  0  0  0
 20 21  1  0  0  0  0
  1 27  1  0  0  0  0
  2 28  1  0  0  0  0
  3 29  1  0  0  0  0
  4 30  1  0  0  0  0
  5 31  1  0  0  0  0
  6 32  1  0  0  0  0
  7 33  1  0  0  0  0
 13 34  1  0  0  0  0
 14 35  1  0  0  0  0
 15 36  1  0  0  0  0
 16 37  1  0  0  0  0
 18 38  1  0  0  0  0
 18 39  1  0  0  0  0
 18 40  1  0  0  0  0
 19 41  1  0  0  0  0
 19 42  1  0  0  0  0
 23 43  1  0  0  0  0
M  END
> <clash_score>
0

> <docking_score>
-8.771380424499512

> <overlap_score>
0.8884324431419373

$$$$
BENZO_151_1
  -OEChem-08222022443D

 58 62  0     0  0  0  0  0  0999 V2000
    9.1890   -3.5540   24.0140 C   0  0  0  0  0  0  0  0  0  0  0  0
    7.8700   -2.0610   25.3550 C   0  0  0  0  0  0  0  0  0  0  0  0
    9.5890   -2.4950   23.2210 C   0  0  0  0  0  0  0  0  0  0  0  0
    8.2550   -1.0010   24.5520 C   0  0  0  0  0  0  0  0  0  0  0  0
   13.3010    0.2819   23.3762 C   0  0  0  0  0  0  0  0  0  0  0  0
   12.2469   -1.0164   21.9485 C   0  0  0  0  0  0  0  0  0  0  0  0
   12.0277    0.0001   22.8458 C   0  0  0  0  0  0  0  0  0  0  0  0
    8.3450   -3.3440   25.0980 C   0  0  0  0  0  0  0  0  0  0  0  0
    9.1280   -1.2090   23.4870 C   0  0  0  0  0  0  0  0  0  0  0  0
    5.7970    0.9500   18.6730 C   0  0  0  0  0  0  0  0  0  0  0  0
    7.2710   -0.1460   19.8310 C   0  0  0  0  0  0  0  0  0  0  0  0
    4.6610    1.7170   18.4380 C   0  0  0  0  0  0  0  0  0  0  0  0
    3.8860    2.1050   19.5250 C   0  0  0  0  0  0  0  0  0  0  0  0
    4.2460    1.7520   20.8250 C   0  0  0  0  0  0  0  0  0  0  0  0
    5.3890    1.0010   21.0690 C   0  0  0  0  0  0  0  0  0  0  0  0
    9.0430    0.2380   21.4940 C   0  0  0  0  0  0  0  0  0  0  0  0
    7.5748   -4.8280   28.7278 C   0  0  0  0  0  0  0  0  0  0  0  0
    8.9776   -4.7555   28.1204 C   0  0  0  0  0  0  0  0  0  0  0  0
    6.5554   -4.0713   27.8732 C   0  0  0  0  0  0  0  0  0  0  0  0
    8.9620   -5.1961   26.6568 C   0  0  0  0  0  0  0  0  0  0  0  0
    6.6009   -4.5253   26.4110 C   0  0  0  0  0  0  0  0  0  0  0  0
   14.2950   -2.2646   21.2232 C   0  0  0  0  0  0  0  0  0  0  0  0
   10.7220    0.6590   23.1850 C   0  0  0  0  0  0  0  0  0  0  0  0
   14.2580   -0.4932   22.8591 N   0  0  0  0  0  0  0  0  0  0  0  0
    6.7100    0.3850   17.8100 N   0  0  0  0  0  0  0  0  0  0  0  0
    7.5840   -0.2700   18.5160 N   0  0  0  0  0  0  0  0  0  0  0  0
   13.5858   -1.2720   21.9944 N   0  0  0  0  0  0  0  0  0  0  0  0
    6.1460    0.6070   19.9750 N   0  0  0  0  0  0  0  0  0  0  0  0
    7.9770   -4.4029   25.9162 N   0  0  0  0  0  0  0  0  0  0  0  0
    8.0950   -0.7700   20.8440 N   0  0  0  0  0  0  0  0  0  0  0  0
    9.5820   -0.1080   22.7000 N   0  0  0  0  0  0  0  0  0  0  0  0
    9.2950    1.3000   20.9480 O   0  0  0  0  0  0  0  0  0  0  0  0
    9.5426   -4.5618   23.7797 H   0  0  0  0  0  0  0  0  0  0  0  0
    7.1914   -1.8824   26.1903 H   0  0  0  0  0  0  0  0  0  0  0  0
   10.2669   -2.6745   22.3854 H   0  0  0  0  0  0  0  0  0  0  0  0
    7.8690   -0.0020   24.7587 H   0  0  0  0  0  0  0  0  0  0  0  0
   13.5736    1.0185   24.1187 H   0  0  0  0  0  0  0  0  0  0  0  0
   11.5805   -1.5669   21.2983 H   0  0  0  0  0  0  0  0  0  0  0  0
    4.3710    2.0145   17.4451 H   0  0  0  0  0  0  0  0  0  0  0  0
    2.9929    2.6891   19.3400 H   0  0  0  0  0  0  0  0  0  0  0  0
    3.6320    2.0596   21.6814 H   0  0  0  0  0  0  0  0  0  0  0  0
    5.6863    0.7288   22.0575 H   0  0  0  0  0  0  0  0  0  0  0  0
    7.2681   -5.8807   28.8239 H   0  0  0  0  0  0  0  0  0  0  0  0
    7.5891   -4.4101   29.7448 H   0  0  0  0  0  0  0  0  0  0  0  0
    9.3554   -3.7320   28.1920 H   0  0  0  0  0  0  0  0  0  0  0  0
    9.6558   -5.3943   28.6900 H   0  0  0  0  0  0  0  0  0  0  0  0
    5.5496   -4.2322   28.2751 H   0  0  0  0  0  0  0  0  0  0  0  0
    6.7545   -2.9948   27.9293 H   0  0  0  0  0  0  0  0  0  0  0  0
    9.9612   -5.0560   26.2363 H   0  0  0  0  0  0  0  0  0  0  0  0
    8.7097   -6.2583   26.5922 H   0  0  0  0  0  0  0  0  0  0  0  0
    6.2649   -5.5600   26.3335 H   0  0  0  0  0  0  0  0  0  0  0  0
    5.9271   -3.8964   25.8283 H   0  0  0  0  0  0  0  0  0  0  0  0
   14.6200   -1.7975   20.2898 H   0  0  0  0  0  0  0  0  0  0  0  0
   15.1576   -2.6206   21.7932 H   0  0  0  0  0  0  0  0  0  0  0  0
   13.6285   -3.1071   21.0185 H   0  0  0  0  0  0  0  0  0  0  0  0
   10.6163    0.7710   24.2696 H   0  0  0  0  0  0  0  0  0  0  0  0
   10.6620    1.6610   22.7472 H   0  0  0  0  0  0  0  0  0  0  0  0
    8.0897   -1.6082   21.0890 H   0  0  0  0  0  0  0  0  0  0  0  0
  1  3  2  0  0  0  0
  1  8  1  0  0  0  0
  2  4  1  0  0  0  0
  2  8  2  0  0  0  0
  3  9  1  0  0  0  0
  4  9  2  0  0  0  0
  5  7  1  0  0  0  0
  5 24  2  0  0  0  0
  6  7  2  0  0  0  0
  6 27  1  0  0  0  0
  7 23  1  0  0  0  0
  8 29  1  0  0  0  0
  9 31  1  0  0  0  0
 10 12  1  0  0  0  0
 10 25  2  0  0  0  0
 10 28  1  0  0  0  0
 11 26  2  0  0  0  0
 11 28  1  0  0  0  0
 11 30  1  0  0  0  0
 12 13  2  0  0  0  0
 13 14  1  0  0  0  0
 14 15  2  0  0  0  0
 15 28  1  0  0  0  0
 16 30  1  0  0  0  0
 16 31  1  0  0  0  0
 16 32  2  0  0  0  0
 17 18  1  0  0  0  0
 17 19  1  0  0  0  0
 18 20  1  0  0  0  0
 19 21  1  0  0  0  0
 20 29  1  0  0  0  0
 21 29  1  0  0  0  0
 22 27  1  0  0  0  0
 23 31  1  0  0  0  0
 24 27  1  0  0  0  0
 25 26  1  0  0  0  0
  1 33  1  0  0  0  0
  2 34  1  0  0  0  0
  3 35  1  0  0  0  0
  4 36  1  0  0  0  0
  5 37  1  0  0  0  0
  6 38  1  0  0  0  0
 12 39  1  0  0  0  0
 13 40  1  0  0  0  0
 14 41  1  0  0  0  0
 15 42  1  0  0  0  0
 17 43  1  0  0  0  0
 17 44  1  0  0  0  0
 18 45  1  0  0  0  0
 18 46  1  0  0  0  0
 19 47  1  0  0  0  0
 19 48  1  0  0  0  0
 20 49  1  0  0  0  0
 20 50  1  0  0  0  0
 21 51  1  0  0  0  0
 21 52  1  0  0  0  0
 22 53  1  0  0  0  0
 22 54  1  0  0  0  0
 22 55  1  0  0  0  0
 23 56  1  0  0  0  0
 23 57  1  0  0  0  0
 30 58  1  0  0  0  0
M  END
> <clash_score>
0

> <docking_score>
-9.675765991210938

> <overlap_score>
0.9690294861793518

$$$$
BENZO_150_1
  -OEChem-08222022443D

 58 62  0     0  0  0  0  0  0999 V2000
   13.7501   -1.1157   24.6176 C   0  0  0  0  0  0  0  0  0  0  0  0
   12.5991   -0.3339   24.5202 C   0  0  0  0  0  0  0  0  0  0  0  0
    9.1890   -3.5540   24.0140 C   0  0  0  0  0  0  0  0  0  0  0  0
    7.8700   -2.0610   25.3550 C   0  0  0  0  0  0  0  0  0  0  0  0
    9.5890   -2.4950   23.2210 C   0  0  0  0  0  0  0  0  0  0  0  0
    8.2550   -1.0010   24.5520 C   0  0  0  0  0  0  0  0  0  0  0  0
   14.2636   -1.7454   23.4838 C   0  0  0  0  0  0  0  0  0  0  0  0
   12.4750   -0.8115   22.1551 C   0  0  0  0  0  0  0  0  0  0  0  0
   11.9616   -0.1817   23.2889 C   0  0  0  0  0  0  0  0  0  0  0  0
    8.3450   -3.3440   25.0980 C   0  0  0  0  0  0  0  0  0  0  0  0
    9.1280   -1.2090   23.4870 C   0  0  0  0  0  0  0  0  0  0  0  0
   13.6260   -1.5933   22.2526 C   0  0  0  0  0  0  0  0  0  0  0  0
    5.7970    0.9500   18.6730 C   0  0  0  0  0  0  0  0  0  0  0  0
    7.2710   -0.1460   19.8310 C   0  0  0  0  0  0  0  0  0  0  0  0
    4.6610    1.7170   18.4380 C   0  0  0  0  0  0  0  0  0  0  0  0
    3.8860    2.1050   19.5250 C   0  0  0  0  0  0  0  0  0  0  0  0
    4.2460    1.7520   20.8250 C   0  0  0  0  0  0  0  0  0  0  0  0
    5.3890    1.0010   21.0690 C   0  0  0  0  0  0  0  0  0  0  0  0
    9.0430    0.2380   21.4940 C   0  0  0  0  0  0  0  0  0  0  0  0
    7.5748   -4.8280   28.7278 C   0  0  0  0  0  0  0  0  0  0  0  0
    8.9776   -4.7555   28.1204 C   0  0  0  0  0  0  0  0  0  0  0  0
    6.5554   -4.0713   27.8732 C   0  0  0  0  0  0  0  0  0  0  0  0
    8.9620   -5.1961   26.6568 C   0  0  0  0  0  0  0  0  0  0  0  0
    6.6009   -4.5253   26.4110 C   0  0  0  0  0  0  0  0  0  0  0  0
   10.7220    0.6590   23.1850 C   0  0  0  0  0  0  0  0  0  0  0  0
    6.7100    0.3850   17.8100 N   0  0  0  0  0  0  0  0  0  0  0  0
    7.5840   -0.2700   18.5160 N   0  0  0  0  0  0  0  0  0  0  0  0
    6.1460    0.6070   19.9750 N   0  0  0  0  0  0  0  0  0  0  0  0
    7.9770   -4.4029   25.9162 N   0  0  0  0  0  0  0  0  0  0  0  0
    8.0950   -0.7700   20.8440 N   0  0  0  0  0  0  0  0  0  0  0  0
    9.5820   -0.1080   22.7000 N   0  0  0  0  0  0  0  0  0  0  0  0
    9.2950    1.3000   20.9480 O   0  0  0  0  0  0  0  0  0  0  0  0
   14.2594   -2.3714   20.8543 Cl  0  0  0  0  0  0  0  0  0  0  0  0
   14.2462   -1.2340   25.5766 H   0  0  0  0  0  0  0  0  0  0  0  0
   12.2060    0.1530   25.4088 H   0  0  0  0  0  0  0  0  0  0  0  0
    9.5426   -4.5618   23.7797 H   0  0  0  0  0  0  0  0  0  0  0  0
    7.1914   -1.8824   26.1903 H   0  0  0  0  0  0  0  0  0  0  0  0
   10.2669   -2.6745   22.3854 H   0  0  0  0  0  0  0  0  0  0  0  0
    7.8690   -0.0020   24.7587 H   0  0  0  0  0  0  0  0  0  0  0  0
   15.1613   -2.3520   23.5747 H   0  0  0  0  0  0  0  0  0  0  0  0
   11.9745   -0.6893   21.1973 H   0  0  0  0  0  0  0  0  0  0  0  0
    4.3710    2.0145   17.4451 H   0  0  0  0  0  0  0  0  0  0  0  0
    2.9929    2.6891   19.3400 H   0  0  0  0  0  0  0  0  0  0  0  0
    3.6320    2.0596   21.6814 H   0  0  0  0  0  0  0  0  0  0  0  0
    5.6863    0.7288   22.0575 H   0  0  0  0  0  0  0  0  0  0  0  0
    7.2681   -5.8807   28.8239 H   0  0  0  0  0  0  0  0  0  0  0  0
    7.5891   -4.4101   29.7448 H   0  0  0  0  0  0  0  0  0  0  0  0
    9.3554   -3.7320   28.1920 H   0  0  0  0  0  0  0  0  0  0  0  0
    9.6558   -5.3943   28.6900 H   0  0  0  0  0  0  0  0  0  0  0  0
    5.5496   -4.2322   28.2751 H   0  0  0  0  0  0  0  0  0  0  0  0
    6.7545   -2.9948   27.9293 H   0  0  0  0  0  0  0  0  0  0  0  0
    9.9612   -5.0560   26.2363 H   0  0  0  0  0  0  0  0  0  0  0  0
    8.7097   -6.2583   26.5922 H   0  0  0  0  0  0  0  0  0  0  0  0
    6.2649   -5.5600   26.3335 H   0  0  0  0  0  0  0  0  0  0  0  0
    5.9271   -3.8964   25.8283 H   0  0  0  0  0  0  0  0  0  0  0  0
   10.4561    1.0772   24.1620 H   0  0  0  0  0  0  0  0  0  0  0  0
   10.8743    1.5008   22.5014 H   0  0  0  0  0  0  0  0  0  0  0  0
    8.0897   -1.6082   21.0890 H   0  0  0  0  0  0  0  0  0  0  0  0
  1  2  2  0  0  0  0
  1  7  1  0  0  0  0
  2  9  1  0  0  0  0
  3  5  2  0  0  0  0
  3 10  1  0  0  0  0
  4  6  1  0  0  0  0
  4 10  2  0  0  0  0
  5 11  1  0  0  0  0
  6 11  2  0  0  0  0
  7 12  2  0  0  0  0
  8  9  2  0  0  0  0
  8 12  1  0  0  0  0
  9 25  1  0  0  0  0
 10 29  1  0  0  0  0
 11 31  1  0  0  0  0
 12 33  1  0  0  0  0
 13 15  1  0  0  0  0
 13 26  2  0  0  0  0
 13 28  1  0  0  0  0
 14 27  2  0  0  0  0
 14 28  1  0  0  0  0
 14 30  1  0  0  0  0
 15 16  2  0  0  0  0
 16 17  1  0  0  0  0
 17 18  2  0  0  0  0
 18 28  1  0  0  0  0
 19 30  1  0  0  0  0
 19 31  1  0  0  0  0
 19 32  2  0  0  0  0
 20 21  1  0  0  0  0
 20 22  1  0  0  0  0
 21 23  1  0  0  0  0
 22 24  1  0  0  0  0
 23 29  1  0  0  0  0
 24 29  1  0  0  0  0
 25 31  1  0  0  0  0
 26 27  1  0  0  0  0
  1 34  1  0  0  0  0
  2 35  1  0  0  0  0
  3 36  1  0  0  0  0
  4 37  1  0  0  0  0
  5 38  1  0  0  0  0
  6 39  1  0  0  0  0
  7 40  1  0  0  0  0
  8 41  1  0  0  0  0
 15 42  1  0  0  0  0
 16 43  1  0  0  0  0
 17 44  1  0  0  0  0
 18 45  1  0  0  0  0
 20 46  1  0  0  0  0
 20 47  1  0  0  0  0
 21 48  1  0  0  0  0
 21 49  1  0  0  0  0
 22 50  1  0  0  0  0
 22 51  1  0  0  0  0
 23 52  1  0  0  0  0
 23 53  1  0  0  0  0
 24 54  1  0  0  0  0
 24 55  1  0  0  0  0
 25 56  1  0  0  0  0
 25 57  1  0  0  0  0
 30 58  1  0  0  0  0
M  END
> <clash_score>
0

> <docking_score>
-9.185694694519043

> <overlap_score>
0.9978207945823669

$$$$
BENZO_155_1
  -OEChem-08222022443D

 46 49  0     0  0  0  0  0  0999 V2000
    9.1890   -3.5540   24.0140 C   0  0  0  0  0  0  0  0  0  0  0  0
    7.8700   -2.0610   25.3550 C   0  0  0  0  0  0  0  0  0  0  0  0
    9.5890   -2.4950   23.2210 C   0  0  0  0  0  0  0  0  0  0  0  0
    8.2550   -1.0010   24.5520 C   0  0  0  0  0  0  0  0  0  0  0  0
   12.7320   -0.4464   24.4370 C   0  0  0  0  0  0  0  0  0  0  0  0
   12.5970   -0.8682   22.2832 C   0  0  0  0  0  0  0  0  0  0  0  0
    8.3450   -3.3440   25.0980 C   0  0  0  0  0  0  0  0  0  0  0  0
   11.9616   -0.1817   23.2889 C   0  0  0  0  0  0  0  0  0  0  0  0
    9.1280   -1.2090   23.4870 C   0  0  0  0  0  0  0  0  0  0  0  0
    5.7970    0.9500   18.6730 C   0  0  0  0  0  0  0  0  0  0  0  0
    7.2710   -0.1460   19.8310 C   0  0  0  0  0  0  0  0  0  0  0  0
    4.6610    1.7170   18.4380 C   0  0  0  0  0  0  0  0  0  0  0  0
    3.8860    2.1050   19.5250 C   0  0  0  0  0  0  0  0  0  0  0  0
    4.2460    1.7520   20.8250 C   0  0  0  0  0  0  0  0  0  0  0  0
    5.3890    1.0010   21.0690 C   0  0  0  0  0  0  0  0  0  0  0  0
    9.0430    0.2380   21.4940 C   0  0  0  0  0  0  0  0  0  0  0  0
    7.9522   -4.4794   25.9764 C   0  0  0  0  0  0  0  0  0  0  0  0
   14.6393   -2.3180   22.2082 C   0  0  0  0  0  0  0  0  0  0  0  0
   10.7220    0.6590   23.1850 C   0  0  0  0  0  0  0  0  0  0  0  0
   13.7770   -1.2393   24.1852 N   0  0  0  0  0  0  0  0  0  0  0  0
    6.7100    0.3850   17.8100 N   0  0  0  0  0  0  0  0  0  0  0  0
    7.5840   -0.2700   18.5160 N   0  0  0  0  0  0  0  0  0  0  0  0
   13.6676   -1.4788   22.8673 N   0  0  0  0  0  0  0  0  0  0  0  0
    6.1460    0.6070   19.9750 N   0  0  0  0  0  0  0  0  0  0  0  0
    8.0950   -0.7700   20.8440 N   0  0  0  0  0  0  0  0  0  0  0  0
    9.5820   -0.1080   22.7000 N   0  0  0  0  0  0  0  0  0  0  0  0
    9.2950    1.3000   20.9480 O   0  0  0  0  0  0  0  0  0  0  0  0
    9.5403   -4.5627   23.7809 H   0  0  0  0  0  0  0  0  0  0  0  0
    7.1911   -1.8848   26.1904 H   0  0  0  0  0  0  0  0  0  0  0  0
   10.2682   -2.6746   22.3865 H   0  0  0  0  0  0  0  0  0  0  0  0
    7.8684   -0.0022   24.7594 H   0  0  0  0  0  0  0  0  0  0  0  0
   12.5771   -0.0965   25.4478 H   0  0  0  0  0  0  0  0  0  0  0  0
   12.3832   -0.9726   21.2281 H   0  0  0  0  0  0  0  0  0  0  0  0
    4.3710    2.0145   17.4451 H   0  0  0  0  0  0  0  0  0  0  0  0
    2.9929    2.6891   19.3400 H   0  0  0  0  0  0  0  0  0  0  0  0
    3.6320    2.0596   21.6814 H   0  0  0  0  0  0  0  0  0  0  0  0
    5.6863    0.7288   22.0575 H   0  0  0  0  0  0  0  0  0  0  0  0
    8.6668   -4.5891   26.8013 H   0  0  0  0  0  0  0  0  0  0  0  0
    6.9513   -4.3276   26.4010 H   0  0  0  0  0  0  0  0  0  0  0  0
    7.9196   -5.4231   25.4163 H   0  0  0  0  0  0  0  0  0  0  0  0
   15.4522   -1.6787   21.8540 H   0  0  0  0  0  0  0  0  0  0  0  0
   15.0179   -3.0613   22.9154 H   0  0  0  0  0  0  0  0  0  0  0  0
   14.1626   -2.8324   21.3691 H   0  0  0  0  0  0  0  0  0  0  0  0
   10.4561    1.0772   24.1620 H   0  0  0  0  0  0  0  0  0  0  0  0
   10.8743    1.5008   22.5014 H   0  0  0  0  0  0  0  0  0  0  0  0
    8.0681   -1.6191   21.0706 H   0  0  0  0  0  0  0  0  0  0  0  0
  1  3  2  0  0  0  0
  1  7  1  0  0  0  0
  2  4  1  0  0  0  0
  2  7  2  0  0  0  0
  3  9  1  0  0  0  0
  4  9  2  0  0  0  0
  5  8  1  0  0  0  0
  5 20  2  0  0  0  0
  6  8  2  0  0  0  0
  6 23  1  0  0  0  0
  7 17  1  0  0  0  0
  8 19  1  0  0  0  0
  9 26  1  0  0  0  0
 10 12  1  0  0  0  0
 10 21  2  0  0  0  0
 10 24  1  0  0  0  0
 11 22  2  0  0  0  0
 11 24  1  0  0  0  0
 11 25  1  0  0  0  0
 12 13  2  0  0  0  0
 13 14  1  0  0  0  0
 14 15  2  0  0  0  0
 15 24  1  0  0  0  0
 16 25  1  0  0  0  0
 16 26  1  0  0  0  0
 16 27  2  0  0  0  0
 18 23  1  0  0  0  0
 19 26  1  0  0  0  0
 20 23  1  0  0  0  0
 21 22  1  0  0  0  0
  1 28  1  0  0  0  0
  2 29  1  0  0  0  0
  3 30  1  0  0  0  0
  4 31  1  0  0  0  0
  5 32  1  0  0  0  0
  6 33  1  0  0  0  0
 12 34  1  0  0  0  0
 13 35  1  0  0  0  0
 14 36  1  0  0  0  0
 15 37  1  0  0  0  0
 17 38  1  0  0  0  0
 17 39  1  0  0  0  0
 17 40  1  0  0  0  0
 18 41  1  0  0  0  0
 18 42  1  0  0  0  0
 18 43  1  0  0  0  0
 19 44  1  0  0  0  0
 19 45  1  0  0  0  0
 25 46  1  0  0  0  0
M  END
> <clash_score>
0

> <docking_score>
-7.520603179931641

> <overlap_score>
0.9054273366928101

$$$$
BENZO_154_1
  -OEChem-08222022443D

 46 49  0     0  0  0  0  0  0999 V2000
   13.7501   -1.1157   24.6176 C   0  0  0  0  0  0  0  0  0  0  0  0
   12.5991   -0.3339   24.5202 C   0  0  0  0  0  0  0  0  0  0  0  0
    9.1890   -3.5540   24.0140 C   0  0  0  0  0  0  0  0  0  0  0  0
    7.8700   -2.0610   25.3550 C   0  0  0  0  0  0  0  0  0  0  0  0
    9.5890   -2.4950   23.2210 C   0  0  0  0  0  0  0  0  0  0  0  0
    8.2550   -1.0010   24.5520 C   0  0  0  0  0  0  0  0  0  0  0  0
   14.2636   -1.7454   23.4838 C   0  0  0  0  0  0  0  0  0  0  0  0
   12.4750   -0.8115   22.1551 C   0  0  0  0  0  0  0  0  0  0  0  0
    8.3450   -3.3440   25.0980 C   0  0  0  0  0  0  0  0  0  0  0  0
   11.9616   -0.1817   23.2889 C   0  0  0  0  0  0  0  0  0  0  0  0
    9.1280   -1.2090   23.4870 C   0  0  0  0  0  0  0  0  0  0  0  0
   13.6260   -1.5933   22.2526 C   0  0  0  0  0  0  0  0  0  0  0  0
    5.7970    0.9500   18.6730 C   0  0  0  0  0  0  0  0  0  0  0  0
    7.2710   -0.1460   19.8310 C   0  0  0  0  0  0  0  0  0  0  0  0
    4.6610    1.7170   18.4380 C   0  0  0  0  0  0  0  0  0  0  0  0
    3.8860    2.1050   19.5250 C   0  0  0  0  0  0  0  0  0  0  0  0
    4.2460    1.7520   20.8250 C   0  0  0  0  0  0  0  0  0  0  0  0
    5.3890    1.0010   21.0690 C   0  0  0  0  0  0  0  0  0  0  0  0
    9.0430    0.2380   21.4940 C   0  0  0  0  0  0  0  0  0  0  0  0
    7.9522   -4.4794   25.9764 C   0  0  0  0  0  0  0  0  0  0  0  0
   10.7220    0.6590   23.1850 C   0  0  0  0  0  0  0  0  0  0  0  0
    6.7100    0.3850   17.8100 N   0  0  0  0  0  0  0  0  0  0  0  0
    7.5840   -0.2700   18.5160 N   0  0  0  0  0  0  0  0  0  0  0  0
    6.1460    0.6070   19.9750 N   0  0  0  0  0  0  0  0  0  0  0  0
    8.0950   -0.7700   20.8440 N   0  0  0  0  0  0  0  0  0  0  0  0
    9.5820   -0.1080   22.7000 N   0  0  0  0  0  0  0  0  0  0  0  0
    9.2950    1.3000   20.9480 O   0  0  0  0  0  0  0  0  0  0  0  0
   14.2594   -2.3714   20.8543 Cl  0  0  0  0  0  0  0  0  0  0  0  0
   14.2462   -1.2340   25.5766 H   0  0  0  0  0  0  0  0  0  0  0  0
   12.2060    0.1530   25.4088 H   0  0  0  0  0  0  0  0  0  0  0  0
    9.5403   -4.5627   23.7809 H   0  0  0  0  0  0  0  0  0  0  0  0
    7.1911   -1.8848   26.1904 H   0  0  0  0  0  0  0  0  0  0  0  0
   10.2682   -2.6746   22.3865 H   0  0  0  0  0  0  0  0  0  0  0  0
    7.8684   -0.0022   24.7594 H   0  0  0  0  0  0  0  0  0  0  0  0
   15.1613   -2.3520   23.5747 H   0  0  0  0  0  0  0  0  0  0  0  0
   11.9745   -0.6893   21.1973 H   0  0  0  0  0  0  0  0  0  0  0  0
    4.3710    2.0145   17.4451 H   0  0  0  0  0  0  0  0  0  0  0  0
    2.9929    2.6891   19.3400 H   0  0  0  0  0  0  0  0  0  0  0  0
    3.6320    2.0596   21.6814 H   0  0  0  0  0  0  0  0  0  0  0  0
    5.6863    0.7288   22.0575 H   0  0  0  0  0  0  0  0  0  0  0  0
    8.6668   -4.5891   26.8013 H   0  0  0  0  0  0  0  0  0  0  0  0
    6.9513   -4.3276   26.4010 H   0  0  0  0  0  0  0  0  0  0  0  0
    7.9196   -5.4231   25.4163 H   0  0  0  0  0  0  0  0  0  0  0  0
   10.4561    1.0772   24.1620 H   0  0  0  0  0  0  0  0  0  0  0  0
   10.8743    1.5008   22.5014 H   0  0  0  0  0  0  0  0  0  0  0  0
    8.0681   -1.6191   21.0706 H   0  0  0  0  0  0  0  0  0  0  0  0
  1  2  2  0  0  0  0
  1  7  1  0  0  0  0
  2 10  1  0  0  0  0
  3  5  2  0  0  0  0
  3  9  1  0  0  0  0
  4  6  1  0  0  0  0
  4  9  2  0  0  0  0
  5 11  1  0  0  0  0
  6 11  2  0  0  0  0
  7 12  2  0  0  0  0
  8 10  2  0  0  0  0
  8 12  1  0  0  0  0
  9 20  1  0  0  0  0
 10 21  1  0  0  0  0
 11 26  1  0  0  0  0
 12 28  1  0  0  0  0
 13 15  1  0  0  0  0
 13 22  2  0  0  0  0
 13 24  1  0  0  0  0
 14 23  2  0  0  0  0
 14 24  1  0  0  0  0
 14 25  1  0  0  0  0
 15 16  2  0  0  0  0
 16 17  1  0  0  0  0
 17 18  2  0  0  0  0
 18 24  1  0  0  0  0
 19 25  1  0  0  0  0
 19 26  1  0  0  0  0
 19 27  2  0  0  0  0
 21 26  1  0  0  0  0
 22 23  1  0  0  0  0
  1 29  1  0  0  0  0
  2 30  1  0  0  0  0
  3 31  1  0  0  0  0
  4 32  1  0  0  0  0
  5 33  1  0  0  0  0
  6 34  1  0  0  0  0
  7 35  1  0  0  0  0
  8 36  1  0  0  0  0
 15 37  1  0  0  0  0
 16 38  1  0  0  0  0
 17 39  1  0  0  0  0
 18 40  1  0  0  0  0
 20 41  1  0  0  0  0
 20 42  1  0  0  0  0
 20 43  1  0  0  0  0
 21 44  1  0  0  0  0
 21 45  1  0  0  0  0
 25 46  1  0  0  0  0
M  END
> <clash_score>
0

> <docking_score>
-8.284573554992676

> <overlap_score>
0.9100707173347473

$$$$
BENZO_157_1
  -OEChem-08222022443D

 47 50  0     0  0  0  0  0  0999 V2000
   14.2641   -1.7450   23.4813 C   0  0  0  0  0  0  0  0  0  0  0  0
   14.0779   -0.6681   24.3480 C   0  0  0  0  0  0  0  0  0  0  0  0
   13.2991   -2.0403   22.5184 C   0  0  0  0  0  0  0  0  0  0  0  0
   12.9266    0.1135   24.2518 C   0  0  0  0  0  0  0  0  0  0  0  0
   12.1478   -1.2587   22.4222 C   0  0  0  0  0  0  0  0  0  0  0  0
    9.5890   -2.4950   23.2210 C   0  0  0  0  0  0  0  0  0  0  0  0
    8.2550   -1.0010   24.5520 C   0  0  0  0  0  0  0  0  0  0  0  0
    9.1890   -3.5540   24.0140 C   0  0  0  0  0  0  0  0  0  0  0  0
    7.8700   -2.0610   25.3550 C   0  0  0  0  0  0  0  0  0  0  0  0
   11.9616   -0.1817   23.2889 C   0  0  0  0  0  0  0  0  0  0  0  0
    9.1280   -1.2090   23.4870 C   0  0  0  0  0  0  0  0  0  0  0  0
    8.3450   -3.3440   25.0980 C   0  0  0  0  0  0  0  0  0  0  0  0
    5.7970    0.9500   18.6730 C   0  0  0  0  0  0  0  0  0  0  0  0
    7.2710   -0.1460   19.8310 C   0  0  0  0  0  0  0  0  0  0  0  0
    4.6610    1.7170   18.4380 C   0  0  0  0  0  0  0  0  0  0  0  0
    3.8860    2.1050   19.5250 C   0  0  0  0  0  0  0  0  0  0  0  0
    4.2460    1.7520   20.8250 C   0  0  0  0  0  0  0  0  0  0  0  0
    5.3890    1.0010   21.0690 C   0  0  0  0  0  0  0  0  0  0  0  0
    9.0430    0.2380   21.4940 C   0  0  0  0  0  0  0  0  0  0  0  0
    8.5123   -5.6657   25.5745 C   0  0  0  0  0  0  0  0  0  0  0  0
   10.7220    0.6590   23.1850 C   0  0  0  0  0  0  0  0  0  0  0  0
    6.7100    0.3850   17.8100 N   0  0  0  0  0  0  0  0  0  0  0  0
    7.5840   -0.2700   18.5160 N   0  0  0  0  0  0  0  0  0  0  0  0
    6.1460    0.6070   19.9750 N   0  0  0  0  0  0  0  0  0  0  0  0
    8.0950   -0.7700   20.8440 N   0  0  0  0  0  0  0  0  0  0  0  0
    9.5820   -0.1080   22.7000 N   0  0  0  0  0  0  0  0  0  0  0  0
    9.2950    1.3000   20.9480 O   0  0  0  0  0  0  0  0  0  0  0  0
    7.9864   -4.3799   25.8996 O   0  0  0  0  0  0  0  0  0  0  0  0
   15.1613   -2.3527   23.5555 H   0  0  0  0  0  0  0  0  0  0  0  0
   14.8297   -0.4373   25.0971 H   0  0  0  0  0  0  0  0  0  0  0  0
   13.4443   -2.8780   21.8427 H   0  0  0  0  0  0  0  0  0  0  0  0
   12.7899    0.9506   24.9315 H   0  0  0  0  0  0  0  0  0  0  0  0
   11.4013   -1.4963   21.6690 H   0  0  0  0  0  0  0  0  0  0  0  0
   10.2678   -2.6746   22.3862 H   0  0  0  0  0  0  0  0  0  0  0  0
    7.8691   -0.0023   24.7606 H   0  0  0  0  0  0  0  0  0  0  0  0
    9.5404   -4.5633   23.7846 H   0  0  0  0  0  0  0  0  0  0  0  0
    7.1920   -1.8875   26.1914 H   0  0  0  0  0  0  0  0  0  0  0  0
    4.3710    2.0145   17.4451 H   0  0  0  0  0  0  0  0  0  0  0  0
    2.9929    2.6891   19.3400 H   0  0  0  0  0  0  0  0  0  0  0  0
    3.6320    2.0596   21.6814 H   0  0  0  0  0  0  0  0  0  0  0  0
    5.6863    0.7288   22.0575 H   0  0  0  0  0  0  0  0  0  0  0  0
    8.1470   -6.4023   26.2943 H   0  0  0  0  0  0  0  0  0  0  0  0
    9.6044   -5.6299   25.5961 H   0  0  0  0  0  0  0  0  0  0  0  0
    8.1786   -5.9430   24.5717 H   0  0  0  0  0  0  0  0  0  0  0  0
   10.4561    1.0772   24.1620 H   0  0  0  0  0  0  0  0  0  0  0  0
   10.8743    1.5008   22.5014 H   0  0  0  0  0  0  0  0  0  0  0  0
    8.0681   -1.6191   21.0706 H   0  0  0  0  0  0  0  0  0  0  0  0
  1  2  1  0  0  0  0
  1  3  2  0  0  0  0
  2  4  2  0  0  0  0
  3  5  1  0  0  0  0
  4 10  1  0  0  0  0
  5 10  2  0  0  0  0
  6  8  2  0  0  0  0
  6 11  1  0  0  0  0
  7  9  1  0  0  0  0
  7 11  2  0  0  0  0
  8 12  1  0  0  0  0
  9 12  2  0  0  0  0
 10 21  1  0  0  0  0
 11 26  1  0  0  0  0
 12 28  1  0  0  0  0
 13 15  1  0  0  0  0
 13 22  2  0  0  0  0
 13 24  1  0  0  0  0
 14 23  2  0  0  0  0
 14 24  1  0  0  0  0
 14 25  1  0  0  0  0
 15 16  2  0  0  0  0
 16 17  1  0  0  0  0
 17 18  2  0  0  0  0
 18 24  1  0  0  0  0
 19 25  1  0  0  0  0
 19 26  1  0  0  0  0
 19 27  2  0  0  0  0
 20 28  1  0  0  0  0
 21 26  1  0  0  0  0
 22 23  1  0  0  0  0
  1 29  1  0  0  0  0
  2 30  1  0  0  0  0
  3 31  1  0  0  0  0
  4 32  1  0  0  0  0
  5 33  1  0  0  0  0
  6 34  1  0  0  0  0
  7 35  1  0  0  0  0
  8 36  1  0  0  0  0
  9 37  1  0  0  0  0
 15 38  1  0  0  0  0
 16 39  1  0  0  0  0
 17 40  1  0  0  0  0
 18 41  1  0  0  0  0
 20 42  1  0  0  0  0
 20 43  1  0  0  0  0
 20 44  1  0  0  0  0
 21 45  1  0  0  0  0
 21 46  1  0  0  0  0
 25 47  1  0  0  0  0
M  END
> <clash_score>
0

> <docking_score>
-9.4508695602417

> <overlap_score>
0.9154637455940247

$$$$
BENZO_156_1
  -OEChem-08222022443D

 44 47  0     0  0  0  0  0  0999 V2000
    9.5890   -2.4950   23.2210 C   0  0  0  0  0  0  0  0  0  0  0  0
    8.2550   -1.0010   24.5520 C   0  0  0  0  0  0  0  0  0  0  0  0
    9.1890   -3.5540   24.0140 C   0  0  0  0  0  0  0  0  0  0  0  0
    7.8700   -2.0610   25.3550 C   0  0  0  0  0  0  0  0  0  0  0  0
   12.5566   -0.8597   22.1860 C   0  0  0  0  0  0  0  0  0  0  0  0
   13.6839   -1.5596   22.5559 C   0  0  0  0  0  0  0  0  0  0  0  0
   12.6568   -0.3896   24.4600 C   0  0  0  0  0  0  0  0  0  0  0  0
   11.9616   -0.1817   23.2889 C   0  0  0  0  0  0  0  0  0  0  0  0
    9.1280   -1.2090   23.4870 C   0  0  0  0  0  0  0  0  0  0  0  0
    8.3450   -3.3440   25.0980 C   0  0  0  0  0  0  0  0  0  0  0  0
    5.7970    0.9500   18.6730 C   0  0  0  0  0  0  0  0  0  0  0  0
    7.2710   -0.1460   19.8310 C   0  0  0  0  0  0  0  0  0  0  0  0
    4.6610    1.7170   18.4380 C   0  0  0  0  0  0  0  0  0  0  0  0
    3.8860    2.1050   19.5250 C   0  0  0  0  0  0  0  0  0  0  0  0
    4.2460    1.7520   20.8250 C   0  0  0  0  0  0  0  0  0  0  0  0
    5.3890    1.0010   21.0690 C   0  0  0  0  0  0  0  0  0  0  0  0
    9.0430    0.2380   21.4940 C   0  0  0  0  0  0  0  0  0  0  0  0
    8.5123   -5.6657   25.5745 C   0  0  0  0  0  0  0  0  0  0  0  0
   10.7220    0.6590   23.1850 C   0  0  0  0  0  0  0  0  0  0  0  0
    6.7100    0.3850   17.8100 N   0  0  0  0  0  0  0  0  0  0  0  0
    7.5840   -0.2700   18.5160 N   0  0  0  0  0  0  0  0  0  0  0  0
    6.1460    0.6070   19.9750 N   0  0  0  0  0  0  0  0  0  0  0  0
    8.0950   -0.7700   20.8440 N   0  0  0  0  0  0  0  0  0  0  0  0
    9.5820   -0.1080   22.7000 N   0  0  0  0  0  0  0  0  0  0  0  0
    9.2950    1.3000   20.9480 O   0  0  0  0  0  0  0  0  0  0  0  0
    7.9864   -4.3799   25.8996 O   0  0  0  0  0  0  0  0  0  0  0  0
   14.0209   -1.3981   24.2270 S   0  0  0  0  0  0  0  0  0  0  0  0
   10.2678   -2.6746   22.3862 H   0  0  0  0  0  0  0  0  0  0  0  0
    7.8691   -0.0023   24.7606 H   0  0  0  0  0  0  0  0  0  0  0  0
    9.5404   -4.5633   23.7846 H   0  0  0  0  0  0  0  0  0  0  0  0
    7.1920   -1.8875   26.1914 H   0  0  0  0  0  0  0  0  0  0  0  0
   12.1799   -0.8381   21.1711 H   0  0  0  0  0  0  0  0  0  0  0  0
   14.3253   -2.1586   21.9250 H   0  0  0  0  0  0  0  0  0  0  0  0
   12.4317   -0.0004   25.4433 H   0  0  0  0  0  0  0  0  0  0  0  0
    4.3710    2.0145   17.4451 H   0  0  0  0  0  0  0  0  0  0  0  0
    2.9929    2.6891   19.3400 H   0  0  0  0  0  0  0  0  0  0  0  0
    3.6320    2.0596   21.6814 H   0  0  0  0  0  0  0  0  0  0  0  0
    5.6863    0.7288   22.0575 H   0  0  0  0  0  0  0  0  0  0  0  0
    8.1470   -6.4023   26.2943 H   0  0  0  0  0  0  0  0  0  0  0  0
    9.6044   -5.6299   25.5961 H   0  0  0  0  0  0  0  0  0  0  0  0
    8.1786   -5.9430   24.5717 H   0  0  0  0  0  0  0  0  0  0  0  0
   10.4561    1.0772   24.1620 H   0  0  0  0  0  0  0  0  0  0  0  0
   10.8743    1.5008   22.5014 H   0  0  0  0  0  0  0  0  0  0  0  0
    8.0681   -1.6191   21.0706 H   0  0  0  0  0  0  0  0  0  0  0  0
  1  3  2  0  0  0  0
  1  9  1  0  0  0  0
  2  4  1  0  0  0  0
  2  9  2  0  0  0  0
  3 10  1  0  0  0  0
  4 10  2  0  0  0  0
  5  6  2  0  0  0  0
  5  8  1  0  0  0  0
  6 27  1  0  0  0  0
  7  8  2  0  0  0  0
  7 27  1  0  0  0  0
  8 19  1  0  0  0  0
  9 24  1  0  0  0  0
 10 26  1  0  0  0  0
 11 13  1  0  0  0  0
 11 20  2  0  0  0  0
 11 22  1  0  0  0  0
 12 21  2  0  0  0  0
 12 22  1  0  0  0  0
 12 23  1  0  0  0  0
 13 14  2  0  0  0  0
 14 15  1  0  0  0  0
 15 16  2  0  0  0  0
 16 22  1  0  0  0  0
 17 23  1  0  0  0  0
 17 24  1  0  0  0  0
 17 25  2  0  0  0  0
 18 26  1  0  0  0  0
 19 24  1  0  0  0  0
 20 21  1  0  0  0  0
  1 28  1  0  0  0  0
  2 29  1  0  0  0  0
  3 30  1  0  0  0  0
  4 31  1  0  0  0  0
  5 32  1  0  0  0  0
  6 33  1  0  0  0  0
  7 34  1  0  0  0  0
 13 35  1  0  0  0  0
 14 36  1  0  0  0  0
 15 37  1  0  0  0  0
 16 38  1  0  0  0  0
 18 39  1  0  0  0  0
 18 40  1  0  0  0  0
 18 41  1  0  0  0  0
 19 42  1  0  0  0  0
 19 43  1  0  0  0  0
 23 44  1  0  0  0  0
M  END
> <clash_score>
0

> <docking_score>
-8.839570045471191

> <overlap_score>
0.9034130573272705

$$$$
BENZO_159_1
  -OEChem-08222022443D

 47 50  0     0  0  0  0  0  0999 V2000
    9.5890   -2.4950   23.2210 C   0  0  0  0  0  0  0  0  0  0  0  0
    8.2550   -1.0010   24.5520 C   0  0  0  0  0  0  0  0  0  0  0  0
    9.1890   -3.5540   24.0140 C   0  0  0  0  0  0  0  0  0  0  0  0
    7.8700   -2.0610   25.3550 C   0  0  0  0  0  0  0  0  0  0  0  0
   12.7320   -0.4464   24.4370 C   0  0  0  0  0  0  0  0  0  0  0  0
   12.5970   -0.8682   22.2832 C   0  0  0  0  0  0  0  0  0  0  0  0
   11.9616   -0.1817   23.2889 C   0  0  0  0  0  0  0  0  0  0  0  0
    9.1280   -1.2090   23.4870 C   0  0  0  0  0  0  0  0  0  0  0  0
    8.3450   -3.3440   25.0980 C   0  0  0  0  0  0  0  0  0  0  0  0
    5.7970    0.9500   18.6730 C   0  0  0  0  0  0  0  0  0  0  0  0
    7.2710   -0.1460   19.8310 C   0  0  0  0  0  0  0  0  0  0  0  0
    4.6610    1.7170   18.4380 C   0  0  0  0  0  0  0  0  0  0  0  0
    3.8860    2.1050   19.5250 C   0  0  0  0  0  0  0  0  0  0  0  0
    4.2460    1.7520   20.8250 C   0  0  0  0  0  0  0  0  0  0  0  0
    5.3890    1.0010   21.0690 C   0  0  0  0  0  0  0  0  0  0  0  0
    9.0430    0.2380   21.4940 C   0  0  0  0  0  0  0  0  0  0  0  0
   14.6393   -2.3180   22.2082 C   0  0  0  0  0  0  0  0  0  0  0  0
    8.5123   -5.6657   25.5745 C   0  0  0  0  0  0  0  0  0  0  0  0
   10.7220    0.6590   23.1850 C   0  0  0  0  0  0  0  0  0  0  0  0
   13.7770   -1.2393   24.1852 N   0  0  0  0  0  0  0  0  0  0  0  0
    6.7100    0.3850   17.8100 N   0  0  0  0  0  0  0  0  0  0  0  0
    7.5840   -0.2700   18.5160 N   0  0  0  0  0  0  0  0  0  0  0  0
   13.6676   -1.4788   22.8673 N   0  0  0  0  0  0  0  0  0  0  0  0
    6.1460    0.6070   19.9750 N   0  0  0  0  0  0  0  0  0  0  0  0
    8.0950   -0.7700   20.8440 N   0  0  0  0  0  0  0  0  0  0  0  0
    9.5820   -0.1080   22.7000 N   0  0  0  0  0  0  0  0  0  0  0  0
    9.2950    1.3000   20.9480 O   0  0  0  0  0  0  0  0  0  0  0  0
    7.9864   -4.3799   25.8996 O   0  0  0  0  0  0  0  0  0  0  0  0
   10.2678   -2.6746   22.3862 H   0  0  0  0  0  0  0  0  0  0  0  0
    7.8691   -0.0023   24.7606 H   0  0  0  0  0  0  0  0  0  0  0  0
    9.5404   -4.5633   23.7846 H   0  0  0  0  0  0  0  0  0  0  0  0
    7.1920   -1.8875   26.1914 H   0  0  0  0  0  0  0  0  0  0  0  0
   12.5771   -0.0965   25.4478 H   0  0  0  0  0  0  0  0  0  0  0  0
   12.3832   -0.9726   21.2281 H   0  0  0  0  0  0  0  0  0  0  0  0
    4.3710    2.0145   17.4451 H   0  0  0  0  0  0  0  0  0  0  0  0
    2.9929    2.6891   19.3400 H   0  0  0  0  0  0  0  0  0  0  0  0
    3.6320    2.0596   21.6814 H   0  0  0  0  0  0  0  0  0  0  0  0
    5.6863    0.7288   22.0575 H   0  0  0  0  0  0  0  0  0  0  0  0
   15.4522   -1.6787   21.8540 H   0  0  0  0  0  0  0  0  0  0  0  0
   15.0179   -3.0613   22.9154 H   0  0  0  0  0  0  0  0  0  0  0  0
   14.1626   -2.8324   21.3691 H   0  0  0  0  0  0  0  0  0  0  0  0
    8.1470   -6.4023   26.2943 H   0  0  0  0  0  0  0  0  0  0  0  0
    9.6044   -5.6299   25.5961 H   0  0  0  0  0  0  0  0  0  0  0  0
    8.1786   -5.9430   24.5717 H   0  0  0  0  0  0  0  0  0  0  0  0
   10.4561    1.0772   24.1620 H   0  0  0  0  0  0  0  0  0  0  0  0
   10.8743    1.5008   22.5014 H   0  0  0  0  0  0  0  0  0  0  0  0
    8.0681   -1.6191   21.0706 H   0  0  0  0  0  0  0  0  0  0  0  0
  1  3  2  0  0  0  0
  1  8  1  0  0  0  0
  2  4  1  0  0  0  0
  2  8  2  0  0  0  0
  3  9  1  0  0  0  0
  4  9  2  0  0  0  0
  5  7  1  0  0  0  0
  5 20  2  0  0  0  0
  6  7  2  0  0  0  0
  6 23  1  0  0  0  0
  7 19  1  0  0  0  0
  8 26  1  0  0  0  0
  9 28  1  0  0  0  0
 10 12  1  0  0  0  0
 10 21  2  0  0  0  0
 10 24  1  0  0  0  0
 11 22  2  0  0  0  0
 11 24  1  0  0  0  0
 11 25  1  0  0  0  0
 12 13  2  0  0  0  0
 13 14  1  0  0  0  0
 14 15  2  0  0  0  0
 15 24  1  0  0  0  0
 16 25  1  0  0  0  0
 16 26  1  0  0  0  0
 16 27  2  0  0  0  0
 17 23  1  0  0  0  0
 18 28  1  0  0  0  0
 19 26  1  0  0  0  0
 20 23  1  0  0  0  0
 21 22  1  0  0  0  0
  1 29  1  0  0  0  0
  2 30  1  0  0  0  0
  3 31  1  0  0  0  0
  4 32  1  0  0  0  0
  5 33  1  0  0  0  0
  6 34  1  0  0  0  0
 12 35  1  0  0  0  0
 13 36  1  0  0  0  0
 14 37  1  0  0  0  0
 15 38  1  0  0  0  0
 17 39  1  0  0  0  0
 17 40  1  0  0  0  0
 17 41  1  0  0  0  0
 18 42  1  0  0  0  0
 18 43  1  0  0  0  0
 18 44  1  0  0  0  0
 19 45  1  0  0  0  0
 19 46  1  0  0  0  0
 25 47  1  0  0  0  0
M  END
> <clash_score>
0

> <docking_score>
-7.640765190124512

> <overlap_score>
0.918685257434845

$$$$
BENZO_158_1
  -OEChem-08222022443D

 47 50  0     0  0  0  0  0  0999 V2000
   13.7501   -1.1157   24.6176 C   0  0  0  0  0  0  0  0  0  0  0  0
   12.5991   -0.3339   24.5202 C   0  0  0  0  0  0  0  0  0  0  0  0
    9.5890   -2.4950   23.2210 C   0  0  0  0  0  0  0  0  0  0  0  0
    8.2550   -1.0010   24.5520 C   0  0  0  0  0  0  0  0  0  0  0  0
    9.1890   -3.5540   24.0140 C   0  0  0  0  0  0  0  0  0  0  0  0
    7.8700   -2.0610   25.3550 C   0  0  0  0  0  0  0  0  0  0  0  0
   14.2636   -1.7454   23.4838 C   0  0  0  0  0  0  0  0  0  0  0  0
   12.4750   -0.8115   22.1551 C   0  0  0  0  0  0  0  0  0  0  0  0
   11.9616   -0.1817   23.2889 C   0  0  0  0  0  0  0  0  0  0  0  0
    9.1280   -1.2090   23.4870 C   0  0  0  0  0  0  0  0  0  0  0  0
    8.3450   -3.3440   25.0980 C   0  0  0  0  0  0  0  0  0  0  0  0
   13.6260   -1.5933   22.2526 C   0  0  0  0  0  0  0  0  0  0  0  0
    5.7970    0.9500   18.6730 C   0  0  0  0  0  0  0  0  0  0  0  0
    7.2710   -0.1460   19.8310 C   0  0  0  0  0  0  0  0  0  0  0  0
    4.6610    1.7170   18.4380 C   0  0  0  0  0  0  0  0  0  0  0  0
    3.8860    2.1050   19.5250 C   0  0  0  0  0  0  0  0  0  0  0  0
    4.2460    1.7520   20.8250 C   0  0  0  0  0  0  0  0  0  0  0  0
    5.3890    1.0010   21.0690 C   0  0  0  0  0  0  0  0  0  0  0  0
    9.0430    0.2380   21.4940 C   0  0  0  0  0  0  0  0  0  0  0  0
    8.5123   -5.6657   25.5745 C   0  0  0  0  0  0  0  0  0  0  0  0
   10.7220    0.6590   23.1850 C   0  0  0  0  0  0  0  0  0  0  0  0
    6.7100    0.3850   17.8100 N   0  0  0  0  0  0  0  0  0  0  0  0
    7.5840   -0.2700   18.5160 N   0  0  0  0  0  0  0  0  0  0  0  0
    6.1460    0.6070   19.9750 N   0  0  0  0  0  0  0  0  0  0  0  0
    8.0950   -0.7700   20.8440 N   0  0  0  0  0  0  0  0  0  0  0  0
    9.5820   -0.1080   22.7000 N   0  0  0  0  0  0  0  0  0  0  0  0
    9.2950    1.3000   20.9480 O   0  0  0  0  0  0  0  0  0  0  0  0
    7.9864   -4.3799   25.8996 O   0  0  0  0  0  0  0  0  0  0  0  0
   14.2594   -2.3714   20.8543 Cl  0  0  0  0  0  0  0  0  0  0  0  0
   14.2462   -1.2340   25.5766 H   0  0  0  0  0  0  0  0  0  0  0  0
   12.2060    0.1530   25.4088 H   0  0  0  0  0  0  0  0  0  0  0  0
   10.2678   -2.6746   22.3862 H   0  0  0  0  0  0  0  0  0  0  0  0
    7.8691   -0.0023   24.7606 H   0  0  0  0  0  0  0  0  0  0  0  0
    9.5404   -4.5633   23.7846 H   0  0  0  0  0  0  0  0  0  0  0  0
    7.1920   -1.8875   26.1914 H   0  0  0  0  0  0  0  0  0  0  0  0
   15.1613   -2.3520   23.5747 H   0  0  0  0  0  0  0  0  0  0  0  0
   11.9745   -0.6893   21.1973 H   0  0  0  0  0  0  0  0  0  0  0  0
    4.3710    2.0145   17.4451 H   0  0  0  0  0  0  0  0  0  0  0  0
    2.9929    2.6891   19.3400 H   0  0  0  0  0  0  0  0  0  0  0  0
    3.6320    2.0596   21.6814 H   0  0  0  0  0  0  0  0  0  0  0  0
    5.6863    0.7288   22.0575 H   0  0  0  0  0  0  0  0  0  0  0  0
    8.1470   -6.4023   26.2943 H   0  0  0  0  0  0  0  0  0  0  0  0
    9.6044   -5.6299   25.5961 H   0  0  0  0  0  0  0  0  0  0  0  0
    8.1786   -5.9430   24.5717 H   0  0  0  0  0  0  0  0  0  0  0  0
   10.4561    1.0772   24.1620 H   0  0  0  0  0  0  0  0  0  0  0  0
   10.8743    1.5008   22.5014 H   0  0  0  0  0  0  0  0  0  0  0  0
    8.0681   -1.6191   21.0706 H   0  0  0  0  0  0  0  0  0  0  0  0
  1  2  2  0  0  0  0
  1  7  1  0  0  0  0
  2  9  1  0  0  0  0
  3  5  2  0  0  0  0
  3 10  1  0  0  0  0
  4  6  1  0  0  0  0
  4 10  2  0  0  0  0
  5 11  1  0  0  0  0
  6 11  2  0  0  0  0
  7 12  2  0  0  0  0
  8  9  2  0  0  0  0
  8 12  1  0  0  0  0
  9 21  1  0  0  0  0
 10 26  1  0  0  0  0
 11 28  1  0  0  0  0
 12 29  1  0  0  0  0
 13 15  1  0  0  0  0
 13 22  2  0  0  0  0
 13 24  1  0  0  0  0
 14 23  2  0  0  0  0
 14 24  1  0  0  0  0
 14 25  1  0  0  0  0
 15 16  2  0  0  0  0
 16 17  1  0  0  0  0
 17 18  2  0  0  0  0
 18 24  1  0  0  0  0
 19 25  1  0  0  0  0
 19 26  1  0  0  0  0
 19 27  2  0  0  0  0
 20 28  1  0  0  0  0
 21 26  1  0  0  0  0
 22 23  1  0  0  0  0
  1 30  1  0  0  0  0
  2 31  1  0  0  0  0
  3 32  1  0  0  0  0
  4 33  1  0  0  0  0
  5 34  1  0  0  0  0
  6 35  1  0  0  0  0
  7 36  1  0  0  0  0
  8 37  1  0  0  0  0
 15 38  1  0  0  0  0
 16 39  1  0  0  0  0
 17 40  1  0  0  0  0
 18 41  1  0  0  0  0
 20 42  1  0  0  0  0
 20 43  1  0  0  0  0
 20 44  1  0  0  0  0
 21 45  1  0  0  0  0
 21 46  1  0  0  0  0
 25 47  1  0  0  0  0
M  END
> <clash_score>
0

> <docking_score>
-8.40473461151123

> <overlap_score>
0.9233071804046631

$$$$
BENZO_161_1
  -OEChem-08222022443D

 57 61  0     0  0  0  0  0  0999 V2000
   14.2641   -1.7450   23.4813 C   0  0  0  0  0  0  0  0  0  0  0  0
   14.0779   -0.6681   24.3480 C   0  0  0  0  0  0  0  0  0  0  0  0
   13.2991   -2.0403   22.5184 C   0  0  0  0  0  0  0  0  0  0  0  0
   12.9266    0.1135   24.2518 C   0  0  0  0  0  0  0  0  0  0  0  0
   12.1478   -1.2587   22.4222 C   0  0  0  0  0  0  0  0  0  0  0  0
    9.1890   -3.5540   24.0140 C   0  0  0  0  0  0  0  0  0  0  0  0
    7.8700   -2.0610   25.3550 C   0  0  0  0  0  0  0  0  0  0  0  0
    9.5890   -2.4950   23.2210 C   0  0  0  0  0  0  0  0  0  0  0  0
    8.2550   -1.0010   24.5520 C   0  0  0  0  0  0  0  0  0  0  0  0
   11.9616   -0.1817   23.2889 C   0  0  0  0  0  0  0  0  0  0  0  0
    8.3450   -3.3440   25.0980 C   0  0  0  0  0  0  0  0  0  0  0  0
    9.1280   -1.2090   23.4870 C   0  0  0  0  0  0  0  0  0  0  0  0
    5.7970    0.9500   18.6730 C   0  0  0  0  0  0  0  0  0  0  0  0
    7.2710   -0.1460   19.8310 C   0  0  0  0  0  0  0  0  0  0  0  0
    4.6610    1.7170   18.4380 C   0  0  0  0  0  0  0  0  0  0  0  0
    3.8860    2.1050   19.5250 C   0  0  0  0  0  0  0  0  0  0  0  0
    4.2460    1.7520   20.8250 C   0  0  0  0  0  0  0  0  0  0  0  0
    5.3890    1.0010   21.0690 C   0  0  0  0  0  0  0  0  0  0  0  0
    7.8687   -5.7518   25.4384 C   0  0  0  0  0  0  0  0  0  0  0  0
    9.0430    0.2380   21.4940 C   0  0  0  0  0  0  0  0  0  0  0  0
    7.7614   -6.8724   26.4584 C   0  0  0  0  0  0  0  0  0  0  0  0
    7.0004   -6.5095   27.7148 C   0  0  0  0  0  0  0  0  0  0  0  0
    7.6035   -5.2531   28.3027 C   0  0  0  0  0  0  0  0  0  0  0  0
    7.4713   -4.1195   27.2996 C   0  0  0  0  0  0  0  0  0  0  0  0
   10.7220    0.6590   23.1850 C   0  0  0  0  0  0  0  0  0  0  0  0
    6.7100    0.3850   17.8100 N   0  0  0  0  0  0  0  0  0  0  0  0
    7.5840   -0.2700   18.5160 N   0  0  0  0  0  0  0  0  0  0  0  0
    6.1460    0.6070   19.9750 N   0  0  0  0  0  0  0  0  0  0  0  0
    7.9635   -4.4452   25.9501 N   0  0  0  0  0  0  0  0  0  0  0  0
    8.0950   -0.7700   20.8440 N   0  0  0  0  0  0  0  0  0  0  0  0
    9.5820   -0.1080   22.7000 N   0  0  0  0  0  0  0  0  0  0  0  0
    7.9246   -6.0590   24.2445 O   0  0  0  0  0  0  0  0  0  0  0  0
    9.2950    1.3000   20.9480 O   0  0  0  0  0  0  0  0  0  0  0  0
   15.1613   -2.3527   23.5555 H   0  0  0  0  0  0  0  0  0  0  0  0
   14.8297   -0.4373   25.0971 H   0  0  0  0  0  0  0  0  0  0  0  0
   13.4443   -2.8780   21.8427 H   0  0  0  0  0  0  0  0  0  0  0  0
   12.7899    0.9506   24.9315 H   0  0  0  0  0  0  0  0  0  0  0  0
   11.4013   -1.4963   21.6690 H   0  0  0  0  0  0  0  0  0  0  0  0
    9.5436   -4.5614   23.7799 H   0  0  0  0  0  0  0  0  0  0  0  0
    7.1918   -1.8823   26.1906 H   0  0  0  0  0  0  0  0  0  0  0  0
   10.2676   -2.6754   22.3861 H   0  0  0  0  0  0  0  0  0  0  0  0
    7.8686   -0.0026   24.7598 H   0  0  0  0  0  0  0  0  0  0  0  0
    4.3710    2.0145   17.4451 H   0  0  0  0  0  0  0  0  0  0  0  0
    2.9929    2.6891   19.3400 H   0  0  0  0  0  0  0  0  0  0  0  0
    3.6320    2.0596   21.6814 H   0  0  0  0  0  0  0  0  0  0  0  0
    5.6863    0.7288   22.0575 H   0  0  0  0  0  0  0  0  0  0  0  0
    7.2713   -7.7257   25.9758 H   0  0  0  0  0  0  0  0  0  0  0  0
    8.7837   -7.1790   26.7111 H   0  0  0  0  0  0  0  0  0  0  0  0
    5.9406   -6.3476   27.4837 H   0  0  0  0  0  0  0  0  0  0  0  0
    7.0566   -7.3314   28.4368 H   0  0  0  0  0  0  0  0  0  0  0  0
    7.0858   -4.9863   29.2307 H   0  0  0  0  0  0  0  0  0  0  0  0
    8.6585   -5.4140   28.5554 H   0  0  0  0  0  0  0  0  0  0  0  0
    6.4149   -3.8417   27.1934 H   0  0  0  0  0  0  0  0  0  0  0  0
    8.0152   -3.2408   27.6666 H   0  0  0  0  0  0  0  0  0  0  0  0
   10.4561    1.0772   24.1620 H   0  0  0  0  0  0  0  0  0  0  0  0
   10.8743    1.5008   22.5014 H   0  0  0  0  0  0  0  0  0  0  0  0
    8.0897   -1.6082   21.0890 H   0  0  0  0  0  0  0  0  0  0  0  0
  1  2  1  0  0  0  0
  1  3  2  0  0  0  0
  2  4  2  0  0  0  0
  3  5  1  0  0  0  0
  4 10  1  0  0  0  0
  5 10  2  0  0  0  0
  6  8  2  0  0  0  0
  6 11  1  0  0  0  0
  7  9  1  0  0  0  0
  7 11  2  0  0  0  0
  8 12  1  0  0  0  0
  9 12  2  0  0  0  0
 10 25  1  0  0  0  0
 11 29  1  0  0  0  0
 12 31  1  0  0  0  0
 13 15  1  0  0  0  0
 13 26  2  0  0  0  0
 13 28  1  0  0  0  0
 14 27  2  0  0  0  0
 14 28  1  0  0  0  0
 14 30  1  0  0  0  0
 15 16  2  0  0  0  0
 16 17  1  0  0  0  0
 17 18  2  0  0  0  0
 18 28  1  0  0  0  0
 19 21  1  0  0  0  0
 19 29  1  0  0  0  0
 19 32  2  0  0  0  0
 20 30  1  0  0  0  0
 20 31  1  0  0  0  0
 20 33  2  0  0  0  0
 21 22  1  0  0  0  0
 22 23  1  0  0  0  0
 23 24  1  0  0  0  0
 24 29  1  0  0  0  0
 25 31  1  0  0  0  0
 26 27  1  0  0  0  0
  1 34  1  0  0  0  0
  2 35  1  0  0  0  0
  3 36  1  0  0  0  0
  4 37  1  0  0  0  0
  5 38  1  0  0  0  0
  6 39  1  0  0  0  0
  7 40  1  0  0  0  0
  8 41  1  0  0  0  0
  9 42  1  0  0  0  0
 15 43  1  0  0  0  0
 16 44  1  0  0  0  0
 17 45  1  0  0  0  0
 18 46  1  0  0  0  0
 21 47  1  0  0  0  0
 21 48  1  0  0  0  0
 22 49  1  0  0  0  0
 22 50  1  0  0  0  0
 23 51  1  0  0  0  0
 23 52  1  0  0  0  0
 24 53  1  0  0  0  0
 24 54  1  0  0  0  0
 25 55  1  0  0  0  0
 25 56  1  0  0  0  0
 30 57  1  0  0  0  0
M  END
> <clash_score>
0

> <docking_score>
-8.287337303161621

> <overlap_score>
0.9891777038574219

$$$$
BENZO_160_1
  -OEChem-08222022443D

 54 58  0     0  0  0  0  0  0999 V2000
    9.1890   -3.5540   24.0140 C   0  0  0  0  0  0  0  0  0  0  0  0
    7.8700   -2.0610   25.3550 C   0  0  0  0  0  0  0  0  0  0  0  0
    9.5890   -2.4950   23.2210 C   0  0  0  0  0  0  0  0  0  0  0  0
    8.2550   -1.0010   24.5520 C   0  0  0  0  0  0  0  0  0  0  0  0
   12.6785   -0.3937   24.5018 C   0  0  0  0  0  0  0  0  0  0  0  0
   13.7775   -1.2037   24.3186 C   0  0  0  0  0  0  0  0  0  0  0  0
   12.5401   -0.8378   22.2246 C   0  0  0  0  0  0  0  0  0  0  0  0
   11.9616   -0.1817   23.2889 C   0  0  0  0  0  0  0  0  0  0  0  0
    8.3450   -3.3440   25.0980 C   0  0  0  0  0  0  0  0  0  0  0  0
    9.1280   -1.2090   23.4870 C   0  0  0  0  0  0  0  0  0  0  0  0
    5.7970    0.9500   18.6730 C   0  0  0  0  0  0  0  0  0  0  0  0
    7.2710   -0.1460   19.8310 C   0  0  0  0  0  0  0  0  0  0  0  0
    4.6610    1.7170   18.4380 C   0  0  0  0  0  0  0  0  0  0  0  0
    3.8860    2.1050   19.5250 C   0  0  0  0  0  0  0  0  0  0  0  0
    4.2460    1.7520   20.8250 C   0  0  0  0  0  0  0  0  0  0  0  0
    5.3890    1.0010   21.0690 C   0  0  0  0  0  0  0  0  0  0  0  0
    7.2752   -5.5548   25.4273 C   0  0  0  0  0  0  0  0  0  0  0  0
    9.0430    0.2380   21.4940 C   0  0  0  0  0  0  0  0  0  0  0  0
    7.1880   -6.7800   26.3209 C   0  0  0  0  0  0  0  0  0  0  0  0
    7.0916   -6.4753   27.7999 C   0  0  0  0  0  0  0  0  0  0  0  0
    8.2362   -5.5641   28.1841 C   0  0  0  0  0  0  0  0  0  0  0  0
    8.1241   -4.2655   27.4032 C   0  0  0  0  0  0  0  0  0  0  0  0
   10.7220    0.6590   23.1850 C   0  0  0  0  0  0  0  0  0  0  0  0
    6.7100    0.3850   17.8100 N   0  0  0  0  0  0  0  0  0  0  0  0
    7.5840   -0.2700   18.5160 N   0  0  0  0  0  0  0  0  0  0  0  0
    6.1460    0.6070   19.9750 N   0  0  0  0  0  0  0  0  0  0  0  0
    7.9635   -4.4452   25.9501 N   0  0  0  0  0  0  0  0  0  0  0  0
    8.0950   -0.7700   20.8440 N   0  0  0  0  0  0  0  0  0  0  0  0
    9.5820   -0.1080   22.7000 N   0  0  0  0  0  0  0  0  0  0  0  0
    6.7947   -5.6299   24.2931 O   0  0  0  0  0  0  0  0  0  0  0  0
    9.2950    1.3000   20.9480 O   0  0  0  0  0  0  0  0  0  0  0  0
   13.9416   -1.7051   22.6894 S   0  0  0  0  0  0  0  0  0  0  0  0
    9.5436   -4.5614   23.7799 H   0  0  0  0  0  0  0  0  0  0  0  0
    7.1918   -1.8823   26.1906 H   0  0  0  0  0  0  0  0  0  0  0  0
   10.2676   -2.6754   22.3861 H   0  0  0  0  0  0  0  0  0  0  0  0
    7.8686   -0.0026   24.7598 H   0  0  0  0  0  0  0  0  0  0  0  0
   12.4058    0.0253   25.4623 H   0  0  0  0  0  0  0  0  0  0  0  0
   14.4923   -1.5246   25.0631 H   0  0  0  0  0  0  0  0  0  0  0  0
   12.2108   -0.8511   21.1948 H   0  0  0  0  0  0  0  0  0  0  0  0
    4.3710    2.0145   17.4451 H   0  0  0  0  0  0  0  0  0  0  0  0
    2.9929    2.6891   19.3400 H   0  0  0  0  0  0  0  0  0  0  0  0
    3.6320    2.0596   21.6814 H   0  0  0  0  0  0  0  0  0  0  0  0
    5.6863    0.7288   22.0575 H   0  0  0  0  0  0  0  0  0  0  0  0
    6.3101   -7.3613   26.0164 H   0  0  0  0  0  0  0  0  0  0  0  0
    8.0752   -7.3922   26.1183 H   0  0  0  0  0  0  0  0  0  0  0  0
    6.1328   -5.9938   28.0269 H   0  0  0  0  0  0  0  0  0  0  0  0
    7.1363   -7.4051   28.3772 H   0  0  0  0  0  0  0  0  0  0  0  0
    8.2035   -5.3520   29.2586 H   0  0  0  0  0  0  0  0  0  0  0  0
    9.1990   -6.0474   27.9788 H   0  0  0  0  0  0  0  0  0  0  0  0
    7.2505   -3.6996   27.7511 H   0  0  0  0  0  0  0  0  0  0  0  0
    9.0155   -3.6525   27.5824 H   0  0  0  0  0  0  0  0  0  0  0  0
   10.4561    1.0772   24.1620 H   0  0  0  0  0  0  0  0  0  0  0  0
   10.8743    1.5008   22.5014 H   0  0  0  0  0  0  0  0  0  0  0  0
    8.0897   -1.6082   21.0890 H   0  0  0  0  0  0  0  0  0  0  0  0
  1  3  2  0  0  0  0
  1  9  1  0  0  0  0
  2  4  1  0  0  0  0
  2  9  2  0  0  0  0
  3 10  1  0  0  0  0
  4 10  2  0  0  0  0
  5  6  2  0  0  0  0
  5  8  1  0  0  0  0
  6 32  1  0  0  0  0
  7  8  2  0  0  0  0
  7 32  1  0  0  0  0
  8 23  1  0  0  0  0
  9 27  1  0  0  0  0
 10 29  1  0  0  0  0
 11 13  1  0  0  0  0
 11 24  2  0  0  0  0
 11 26  1  0  0  0  0
 12 25  2  0  0  0  0
 12 26  1  0  0  0  0
 12 28  1  0  0  0  0
 13 14  2  0  0  0  0
 14 15  1  0  0  0  0
 15 16  2  0  0  0  0
 16 26  1  0  0  0  0
 17 19  1  0  0  0  0
 17 27  1  0  0  0  0
 17 30  2  0  0  0  0
 18 28  1  0  0  0  0
 18 29  1  0  0  0  0
 18 31  2  0  0  0  0
 19 20  1  0  0  0  0
 20 21  1  0  0  0  0
 21 22  1  0  0  0  0
 22 27  1  0  0  0  0
 23 29  1  0  0  0  0
 24 25  1  0  0  0  0
  1 33  1  0  0  0  0
  2 34  1  0  0  0  0
  3 35  1  0  0  0  0
  4 36  1  0  0  0  0
  5 37  1  0  0  0  0
  6 38  1  0  0  0  0
  7 39  1  0  0  0  0
 13 40  1  0  0  0  0
 14 41  1  0  0  0  0
 15 42  1  0  0  0  0
 16 43  1  0  0  0  0
 19 44  1  0  0  0  0
 19 45  1  0  0  0  0
 20 46  1  0  0  0  0
 20 47  1  0  0  0  0
 21 48  1  0  0  0  0
 21 49  1  0  0  0  0
 22 50  1  0  0  0  0
 22 51  1  0  0  0  0
 23 52  1  0  0  0  0
 23 53  1  0  0  0  0
 28 54  1  0  0  0  0
M  END
> <clash_score>
0

> <docking_score>
-8.684457778930664

> <overlap_score>
0.9828841090202332

$$$$
BENZO_165_1
  -OEChem-08222022443D

 56 60  0     0  0  0  0  0  0999 V2000
   14.2641   -1.7450   23.4813 C   0  0  0  0  0  0  0  0  0  0  0  0
   14.0779   -0.6681   24.3480 C   0  0  0  0  0  0  0  0  0  0  0  0
   13.2991   -2.0403   22.5184 C   0  0  0  0  0  0  0  0  0  0  0  0
   12.9266    0.1135   24.2518 C   0  0  0  0  0  0  0  0  0  0  0  0
   12.1478   -1.2587   22.4222 C   0  0  0  0  0  0  0  0  0  0  0  0
    9.1890   -3.5540   24.0140 C   0  0  0  0  0  0  0  0  0  0  0  0
    7.8700   -2.0610   25.3550 C   0  0  0  0  0  0  0  0  0  0  0  0
    9.5890   -2.4950   23.2210 C   0  0  0  0  0  0  0  0  0  0  0  0
    8.2550   -1.0010   24.5520 C   0  0  0  0  0  0  0  0  0  0  0  0
   11.9616   -0.1817   23.2889 C   0  0  0  0  0  0  0  0  0  0  0  0
    8.3450   -3.3440   25.0980 C   0  0  0  0  0  0  0  0  0  0  0  0
    9.1280   -1.2090   23.4870 C   0  0  0  0  0  0  0  0  0  0  0  0
    5.7970    0.9500   18.6730 C   0  0  0  0  0  0  0  0  0  0  0  0
    7.2710   -0.1460   19.8310 C   0  0  0  0  0  0  0  0  0  0  0  0
    4.6610    1.7170   18.4380 C   0  0  0  0  0  0  0  0  0  0  0  0
    3.8860    2.1050   19.5250 C   0  0  0  0  0  0  0  0  0  0  0  0
    4.2460    1.7520   20.8250 C   0  0  0  0  0  0  0  0  0  0  0  0
    5.3890    1.0010   21.0690 C   0  0  0  0  0  0  0  0  0  0  0  0
    9.0430    0.2380   21.4940 C   0  0  0  0  0  0  0  0  0  0  0  0
    7.2567   -5.5373   25.3128 C   0  0  0  0  0  0  0  0  0  0  0  0
    7.6783   -4.1701   27.3375 C   0  0  0  0  0  0  0  0  0  0  0  0
    7.3927   -6.7710   26.1978 C   0  0  0  0  0  0  0  0  0  0  0  0
    7.7912   -5.4770   28.1147 C   0  0  0  0  0  0  0  0  0  0  0  0
   10.7220    0.6590   23.1850 C   0  0  0  0  0  0  0  0  0  0  0  0
    6.7100    0.3850   17.8100 N   0  0  0  0  0  0  0  0  0  0  0  0
    7.5840   -0.2700   18.5160 N   0  0  0  0  0  0  0  0  0  0  0  0
    6.1460    0.6070   19.9750 N   0  0  0  0  0  0  0  0  0  0  0  0
    7.9750   -4.4088   25.9208 N   0  0  0  0  0  0  0  0  0  0  0  0
    8.0950   -0.7700   20.8440 N   0  0  0  0  0  0  0  0  0  0  0  0
    9.5820   -0.1080   22.7000 N   0  0  0  0  0  0  0  0  0  0  0  0
    9.2950    1.3000   20.9480 O   0  0  0  0  0  0  0  0  0  0  0  0
    6.9636   -6.4808   27.5280 O   0  0  0  0  0  0  0  0  0  0  0  0
   15.1613   -2.3527   23.5555 H   0  0  0  0  0  0  0  0  0  0  0  0
   14.8297   -0.4373   25.0971 H   0  0  0  0  0  0  0  0  0  0  0  0
   13.4443   -2.8780   21.8427 H   0  0  0  0  0  0  0  0  0  0  0  0
   12.7899    0.9506   24.9315 H   0  0  0  0  0  0  0  0  0  0  0  0
   11.4013   -1.4963   21.6690 H   0  0  0  0  0  0  0  0  0  0  0  0
    9.5426   -4.5618   23.7797 H   0  0  0  0  0  0  0  0  0  0  0  0
    7.1914   -1.8824   26.1903 H   0  0  0  0  0  0  0  0  0  0  0  0
   10.2669   -2.6745   22.3854 H   0  0  0  0  0  0  0  0  0  0  0  0
    7.8690   -0.0020   24.7587 H   0  0  0  0  0  0  0  0  0  0  0  0
    4.3710    2.0145   17.4451 H   0  0  0  0  0  0  0  0  0  0  0  0
    2.9929    2.6891   19.3400 H   0  0  0  0  0  0  0  0  0  0  0  0
    3.6320    2.0596   21.6814 H   0  0  0  0  0  0  0  0  0  0  0  0
    5.6863    0.7288   22.0575 H   0  0  0  0  0  0  0  0  0  0  0  0
    7.6535   -5.7575   24.3148 H   0  0  0  0  0  0  0  0  0  0  0  0
    6.1962   -5.2737   25.2113 H   0  0  0  0  0  0  0  0  0  0  0  0
    6.6579   -3.7759   27.4290 H   0  0  0  0  0  0  0  0  0  0  0  0
    8.3696   -3.4320   27.7610 H   0  0  0  0  0  0  0  0  0  0  0  0
    6.7582   -7.5752   25.8116 H   0  0  0  0  0  0  0  0  0  0  0  0
    8.4238   -7.1441   26.2130 H   0  0  0  0  0  0  0  0  0  0  0  0
    8.8287   -5.8300   28.1600 H   0  0  0  0  0  0  0  0  0  0  0  0
    7.4508   -5.3251   29.1440 H   0  0  0  0  0  0  0  0  0  0  0  0
   10.4561    1.0772   24.1620 H   0  0  0  0  0  0  0  0  0  0  0  0
   10.8743    1.5008   22.5014 H   0  0  0  0  0  0  0  0  0  0  0  0
    8.0897   -1.6082   21.0890 H   0  0  0  0  0  0  0  0  0  0  0  0
  1  2  1  0  0  0  0
  1  3  2  0  0  0  0
  2  4  2  0  0  0  0
  3  5  1  0  0  0  0
  4 10  1  0  0  0  0
  5 10  2  0  0  0  0
  6  8  2  0  0  0  0
  6 11  1  0  0  0  0
  7  9  1  0  0  0  0
  7 11  2  0  0  0  0
  8 12  1  0  0  0  0
  9 12  2  0  0  0  0
 10 24  1  0  0  0  0
 11 28  1  0  0  0  0
 12 30  1  0  0  0  0
 13 15  1  0  0  0  0
 13 25  2  0  0  0  0
 13 27  1  0  0  0  0
 14 26  2  0  0  0  0
 14 27  1  0  0  0  0
 14 29  1  0  0  0  0
 15 16  2  0  0  0  0
 16 17  1  0  0  0  0
 17 18  2  0  0  0  0
 18 27  1  0  0  0  0
 19 29  1  0  0  0  0
 19 30  1  0  0  0  0
 19 31  2  0  0  0  0
 20 22  1  0  0  0  0
 20 28  1  0  0  0  0
 21 23  1  0  0  0  0
 21 28  1  0  0  0  0
 22 32  1  0  0  0  0
 23 32  1  0  0  0  0
 24 30  1  0  0  0  0
 25 26  1  0  0  0  0
  1 33  1  0  0  0  0
  2 34  1  0  0  0  0
  3 35  1  0  0  0  0
  4 36  1  0  0  0  0
  5 37  1  0  0  0  0
  6 38  1  0  0  0  0
  7 39  1  0  0  0  0
  8 40  1  0  0  0  0
  9 41  1  0  0  0  0
 15 42  1  0  0  0  0
 16 43  1  0  0  0  0
 17 44  1  0  0  0  0
 18 45  1  0  0  0  0
 20 46  1  0  0  0  0
 20 47  1  0  0  0  0
 21 48  1  0  0  0  0
 21 49  1  0  0  0  0
 22 50  1  0  0  0  0
 22 51  1  0  0  0  0
 23 52  1  0  0  0  0
 23 53  1  0  0  0  0
 24 54  1  0  0  0  0
 24 55  1  0  0  0  0
 29 56  1  0  0  0  0
M  END
> <clash_score>
0

> <docking_score>
-9.54754638671875

> <overlap_score>
0.9890320897102356

$$$$
BENZO_163_1
  -OEChem-08222022443D

 57 61  0     0  0  0  0  0  0999 V2000
    9.1890   -3.5540   24.0140 C   0  0  0  0  0  0  0  0  0  0  0  0
    7.8700   -2.0610   25.3550 C   0  0  0  0  0  0  0  0  0  0  0  0
    9.5890   -2.4950   23.2210 C   0  0  0  0  0  0  0  0  0  0  0  0
    8.2550   -1.0010   24.5520 C   0  0  0  0  0  0  0  0  0  0  0  0
   12.7320   -0.4464   24.4370 C   0  0  0  0  0  0  0  0  0  0  0  0
   12.5970   -0.8682   22.2832 C   0  0  0  0  0  0  0  0  0  0  0  0
   11.9616   -0.1817   23.2889 C   0  0  0  0  0  0  0  0  0  0  0  0
    8.3450   -3.3440   25.0980 C   0  0  0  0  0  0  0  0  0  0  0  0
    9.1280   -1.2090   23.4870 C   0  0  0  0  0  0  0  0  0  0  0  0
    5.7970    0.9500   18.6730 C   0  0  0  0  0  0  0  0  0  0  0  0
    7.2710   -0.1460   19.8310 C   0  0  0  0  0  0  0  0  0  0  0  0
    4.6610    1.7170   18.4380 C   0  0  0  0  0  0  0  0  0  0  0  0
    3.8860    2.1050   19.5250 C   0  0  0  0  0  0  0  0  0  0  0  0
    4.2460    1.7520   20.8250 C   0  0  0  0  0  0  0  0  0  0  0  0
    5.3890    1.0010   21.0690 C   0  0  0  0  0  0  0  0  0  0  0  0
    7.2752   -5.5548   25.4273 C   0  0  0  0  0  0  0  0  0  0  0  0
    9.0430    0.2380   21.4940 C   0  0  0  0  0  0  0  0  0  0  0  0
    7.1880   -6.7800   26.3209 C   0  0  0  0  0  0  0  0  0  0  0  0
    7.0916   -6.4753   27.7999 C   0  0  0  0  0  0  0  0  0  0  0  0
    8.2362   -5.5641   28.1841 C   0  0  0  0  0  0  0  0  0  0  0  0
    8.1241   -4.2655   27.4032 C   0  0  0  0  0  0  0  0  0  0  0  0
   14.6393   -2.3180   22.2082 C   0  0  0  0  0  0  0  0  0  0  0  0
   10.7220    0.6590   23.1850 C   0  0  0  0  0  0  0  0  0  0  0  0
   13.7770   -1.2393   24.1852 N   0  0  0  0  0  0  0  0  0  0  0  0
    6.7100    0.3850   17.8100 N   0  0  0  0  0  0  0  0  0  0  0  0
    7.5840   -0.2700   18.5160 N   0  0  0  0  0  0  0  0  0  0  0  0
   13.6676   -1.4788   22.8673 N   0  0  0  0  0  0  0  0  0  0  0  0
    6.1460    0.6070   19.9750 N   0  0  0  0  0  0  0  0  0  0  0  0
    7.9635   -4.4452   25.9501 N   0  0  0  0  0  0  0  0  0  0  0  0
    8.0950   -0.7700   20.8440 N   0  0  0  0  0  0  0  0  0  0  0  0
    9.5820   -0.1080   22.7000 N   0  0  0  0  0  0  0  0  0  0  0  0
    6.7947   -5.6299   24.2931 O   0  0  0  0  0  0  0  0  0  0  0  0
    9.2950    1.3000   20.9480 O   0  0  0  0  0  0  0  0  0  0  0  0
    9.5436   -4.5614   23.7799 H   0  0  0  0  0  0  0  0  0  0  0  0
    7.1918   -1.8823   26.1906 H   0  0  0  0  0  0  0  0  0  0  0  0
   10.2676   -2.6754   22.3861 H   0  0  0  0  0  0  0  0  0  0  0  0
    7.8686   -0.0026   24.7598 H   0  0  0  0  0  0  0  0  0  0  0  0
   12.5771   -0.0965   25.4478 H   0  0  0  0  0  0  0  0  0  0  0  0
   12.3832   -0.9726   21.2281 H   0  0  0  0  0  0  0  0  0  0  0  0
    4.3710    2.0145   17.4451 H   0  0  0  0  0  0  0  0  0  0  0  0
    2.9929    2.6891   19.3400 H   0  0  0  0  0  0  0  0  0  0  0  0
    3.6320    2.0596   21.6814 H   0  0  0  0  0  0  0  0  0  0  0  0
    5.6863    0.7288   22.0575 H   0  0  0  0  0  0  0  0  0  0  0  0
    6.3101   -7.3613   26.0164 H   0  0  0  0  0  0  0  0  0  0  0  0
    8.0752   -7.3922   26.1183 H   0  0  0  0  0  0  0  0  0  0  0  0
    6.1328   -5.9938   28.0269 H   0  0  0  0  0  0  0  0  0  0  0  0
    7.1363   -7.4051   28.3772 H   0  0  0  0  0  0  0  0  0  0  0  0
    8.2035   -5.3520   29.2586 H   0  0  0  0  0  0  0  0  0  0  0  0
    9.1990   -6.0474   27.9788 H   0  0  0  0  0  0  0  0  0  0  0  0
    7.2505   -3.6996   27.7511 H   0  0  0  0  0  0  0  0  0  0  0  0
    9.0155   -3.6525   27.5824 H   0  0  0  0  0  0  0  0  0  0  0  0
   15.4522   -1.6787   21.8540 H   0  0  0  0  0  0  0  0  0  0  0  0
   15.0179   -3.0613   22.9154 H   0  0  0  0  0  0  0  0  0  0  0  0
   14.1626   -2.8324   21.3691 H   0  0  0  0  0  0  0  0  0  0  0  0
   10.4561    1.0772   24.1620 H   0  0  0  0  0  0  0  0  0  0  0  0
   10.8743    1.5008   22.5014 H   0  0  0  0  0  0  0  0  0  0  0  0
    8.0897   -1.6082   21.0890 H   0  0  0  0  0  0  0  0  0  0  0  0
  1  3  2  0  0  0  0
  1  8  1  0  0  0  0
  2  4  1  0  0  0  0
  2  8  2  0  0  0  0
  3  9  1  0  0  0  0
  4  9  2  0  0  0  0
  5  7  1  0  0  0  0
  5 24  2  0  0  0  0
  6  7  2  0  0  0  0
  6 27  1  0  0  0  0
  7 23  1  0  0  0  0
  8 29  1  0  0  0  0
  9 31  1  0  0  0  0
 10 12  1  0  0  0  0
 10 25  2  0  0  0  0
 10 28  1  0  0  0  0
 11 26  2  0  0  0  0
 11 28  1  0  0  0  0
 11 30  1  0  0  0  0
 12 13  2  0  0  0  0
 13 14  1  0  0  0  0
 14 15  2  0  0  0  0
 15 28  1  0  0  0  0
 16 18  1  0  0  0  0
 16 29  1  0  0  0  0
 16 32  2  0  0  0  0
 17 30  1  0  0  0  0
 17 31  1  0  0  0  0
 17 33  2  0  0  0  0
 18 19  1  0  0  0  0
 19 20  1  0  0  0  0
 20 21  1  0  0  0  0
 21 29  1  0  0  0  0
 22 27  1  0  0  0  0
 23 31  1  0  0  0  0
 24 27  1  0  0  0  0
 25 26  1  0  0  0  0
  1 34  1  0  0  0  0
  2 35  1  0  0  0  0
  3 36  1  0  0  0  0
  4 37  1  0  0  0  0
  5 38  1  0  0  0  0
  6 39  1  0  0  0  0
 12 40  1  0  0  0  0
 13 41  1  0  0  0  0
 14 42  1  0  0  0  0
 15 43  1  0  0  0  0
 18 44  1  0  0  0  0
 18 45  1  0  0  0  0
 19 46  1  0  0  0  0
 19 47  1  0  0  0  0
 20 48  1  0  0  0  0
 20 49  1  0  0  0  0
 21 50  1  0  0  0  0
 21 51  1  0  0  0  0
 22 52  1  0  0  0  0
 22 53  1  0  0  0  0
 22 54  1  0  0  0  0
 23 55  1  0  0  0  0
 23 56  1  0  0  0  0
 30 57  1  0  0  0  0
M  END
> <clash_score>
0

> <docking_score>
-7.433680057525635

> <overlap_score>
0.9994744658470154

$$$$
BENZO_164_1
  -OEChem-08222022443D

 53 57  0     0  0  0  0  0  0999 V2000
    9.1890   -3.5540   24.0140 C   0  0  0  0  0  0  0  0  0  0  0  0
    7.8700   -2.0610   25.3550 C   0  0  0  0  0  0  0  0  0  0  0  0
    9.5890   -2.4950   23.2210 C   0  0  0  0  0  0  0  0  0  0  0  0
    8.2550   -1.0010   24.5520 C   0  0  0  0  0  0  0  0  0  0  0  0
   12.6785   -0.3937   24.5018 C   0  0  0  0  0  0  0  0  0  0  0  0
   13.7775   -1.2037   24.3186 C   0  0  0  0  0  0  0  0  0  0  0  0
   12.5401   -0.8378   22.2246 C   0  0  0  0  0  0  0  0  0  0  0  0
   11.9616   -0.1817   23.2889 C   0  0  0  0  0  0  0  0  0  0  0  0
    8.3450   -3.3440   25.0980 C   0  0  0  0  0  0  0  0  0  0  0  0
    9.1280   -1.2090   23.4870 C   0  0  0  0  0  0  0  0  0  0  0  0
    5.7970    0.9500   18.6730 C   0  0  0  0  0  0  0  0  0  0  0  0
    7.2710   -0.1460   19.8310 C   0  0  0  0  0  0  0  0  0  0  0  0
    4.6610    1.7170   18.4380 C   0  0  0  0  0  0  0  0  0  0  0  0
    3.8860    2.1050   19.5250 C   0  0  0  0  0  0  0  0  0  0  0  0
    4.2460    1.7520   20.8250 C   0  0  0  0  0  0  0  0  0  0  0  0
    5.3890    1.0010   21.0690 C   0  0  0  0  0  0  0  0  0  0  0  0
    9.0430    0.2380   21.4940 C   0  0  0  0  0  0  0  0  0  0  0  0
    8.9524   -5.2012   26.6600 C   0  0  0  0  0  0  0  0  0  0  0  0
    6.6112   -4.5068   26.4379 C   0  0  0  0  0  0  0  0  0  0  0  0
    8.9037   -4.7845   28.1261 C   0  0  0  0  0  0  0  0  0  0  0  0
    6.6374   -4.1243   27.9184 C   0  0  0  0  0  0  0  0  0  0  0  0
   10.7220    0.6590   23.1850 C   0  0  0  0  0  0  0  0  0  0  0  0
    6.7100    0.3850   17.8100 N   0  0  0  0  0  0  0  0  0  0  0  0
    7.5840   -0.2700   18.5160 N   0  0  0  0  0  0  0  0  0  0  0  0
    6.1460    0.6070   19.9750 N   0  0  0  0  0  0  0  0  0  0  0  0
    7.9775   -4.4014   25.9151 N   0  0  0  0  0  0  0  0  0  0  0  0
    8.0950   -0.7700   20.8440 N   0  0  0  0  0  0  0  0  0  0  0  0
    9.5820   -0.1080   22.7000 N   0  0  0  0  0  0  0  0  0  0  0  0
    9.2950    1.3000   20.9480 O   0  0  0  0  0  0  0  0  0  0  0  0
    7.5729   -4.9391   28.6338 O   0  0  0  0  0  0  0  0  0  0  0  0
   13.9416   -1.7051   22.6894 S   0  0  0  0  0  0  0  0  0  0  0  0
    9.5426   -4.5618   23.7797 H   0  0  0  0  0  0  0  0  0  0  0  0
    7.1914   -1.8824   26.1903 H   0  0  0  0  0  0  0  0  0  0  0  0
   10.2669   -2.6745   22.3854 H   0  0  0  0  0  0  0  0  0  0  0  0
    7.8690   -0.0020   24.7587 H   0  0  0  0  0  0  0  0  0  0  0  0
   12.4058    0.0253   25.4623 H   0  0  0  0  0  0  0  0  0  0  0  0
   14.4923   -1.5246   25.0631 H   0  0  0  0  0  0  0  0  0  0  0  0
   12.2108   -0.8511   21.1948 H   0  0  0  0  0  0  0  0  0  0  0  0
    4.3710    2.0145   17.4451 H   0  0  0  0  0  0  0  0  0  0  0  0
    2.9929    2.6891   19.3400 H   0  0  0  0  0  0  0  0  0  0  0  0
    3.6320    2.0596   21.6814 H   0  0  0  0  0  0  0  0  0  0  0  0
    5.6863    0.7288   22.0575 H   0  0  0  0  0  0  0  0  0  0  0  0
    9.9615   -5.0500   26.2711 H   0  0  0  0  0  0  0  0  0  0  0  0
    8.6935   -6.2597   26.5720 H   0  0  0  0  0  0  0  0  0  0  0  0
    6.2628   -5.5350   26.3330 H   0  0  0  0  0  0  0  0  0  0  0  0
    5.9347   -3.8423   25.9023 H   0  0  0  0  0  0  0  0  0  0  0  0
    9.5597   -5.4275   28.7166 H   0  0  0  0  0  0  0  0  0  0  0  0
    9.2344   -3.7511   28.2636 H   0  0  0  0  0  0  0  0  0  0  0  0
    6.8874   -3.0657   28.0553 H   0  0  0  0  0  0  0  0  0  0  0  0
    5.6495   -4.2893   28.3591 H   0  0  0  0  0  0  0  0  0  0  0  0
   10.4561    1.0772   24.1620 H   0  0  0  0  0  0  0  0  0  0  0  0
   10.8743    1.5008   22.5014 H   0  0  0  0  0  0  0  0  0  0  0  0
    8.0897   -1.6082   21.0890 H   0  0  0  0  0  0  0  0  0  0  0  0
  1  3  2  0  0  0  0
  1  9  1  0  0  0  0
  2  4  1  0  0  0  0
  2  9  2  0  0  0  0
  3 10  1  0  0  0  0
  4 10  2  0  0  0  0
  5  6  2  0  0  0  0
  5  8  1  0  0  0  0
  6 31  1  0  0  0  0
  7  8  2  0  0  0  0
  7 31  1  0  0  0  0
  8 22  1  0  0  0  0
  9 26  1  0  0  0  0
 10 28  1  0  0  0  0
 11 13  1  0  0  0  0
 11 23  2  0  0  0  0
 11 25  1  0  0  0  0
 12 24  2  0  0  0  0
 12 25  1  0  0  0  0
 12 27  1  0  0  0  0
 13 14  2  0  0  0  0
 14 15  1  0  0  0  0
 15 16  2  0  0  0  0
 16 25  1  0  0  0  0
 17 27  1  0  0  0  0
 17 28  1  0  0  0  0
 17 29  2  0  0  0  0
 18 20  1  0  0  0  0
 18 26  1  0  0  0  0
 19 21  1  0  0  0  0
 19 26  1  0  0  0  0
 20 30  1  0  0  0  0
 21 30  1  0  0  0  0
 22 28  1  0  0  0  0
 23 24  1  0  0  0  0
  1 32  1  0  0  0  0
  2 33  1  0  0  0  0
  3 34  1  0  0  0  0
  4 35  1  0  0  0  0
  5 36  1  0  0  0  0
  6 37  1  0  0  0  0
  7 38  1  0  0  0  0
 13 39  1  0  0  0  0
 14 40  1  0  0  0  0
 15 41  1  0  0  0  0
 16 42  1  0  0  0  0
 18 43  1  0  0  0  0
 18 44  1  0  0  0  0
 19 45  1  0  0  0  0
 19 46  1  0  0  0  0
 20 47  1  0  0  0  0
 20 48  1  0  0  0  0
 21 49  1  0  0  0  0
 21 50  1  0  0  0  0
 22 51  1  0  0  0  0
 22 52  1  0  0  0  0
 27 53  1  0  0  0  0
M  END
> <clash_score>
0

> <docking_score>
-9.82204818725586

> <overlap_score>
0.9805793762207031

$$$$
BENZO_162_1
  -OEChem-08222022443D

 57 61  0     0  0  0  0  0  0999 V2000
   13.7501   -1.1157   24.6177 C   0  0  0  0  0  0  0  0  0  0  0  0
   12.5991   -0.3339   24.5202 C   0  0  0  0  0  0  0  0  0  0  0  0
    9.1890   -3.5540   24.0140 C   0  0  0  0  0  0  0  0  0  0  0  0
    7.8700   -2.0610   25.3550 C   0  0  0  0  0  0  0  0  0  0  0  0
    9.5890   -2.4950   23.2210 C   0  0  0  0  0  0  0  0  0  0  0  0
    8.2550   -1.0010   24.5520 C   0  0  0  0  0  0  0  0  0  0  0  0
   14.2636   -1.7454   23.4838 C   0  0  0  0  0  0  0  0  0  0  0  0
   12.4750   -0.8115   22.1551 C   0  0  0  0  0  0  0  0  0  0  0  0
   11.9616   -0.1817   23.2889 C   0  0  0  0  0  0  0  0  0  0  0  0
    8.3450   -3.3440   25.0980 C   0  0  0  0  0  0  0  0  0  0  0  0
    9.1280   -1.2090   23.4870 C   0  0  0  0  0  0  0  0  0  0  0  0
   13.6261   -1.5933   22.2526 C   0  0  0  0  0  0  0  0  0  0  0  0
    5.7970    0.9500   18.6730 C   0  0  0  0  0  0  0  0  0  0  0  0
    7.2710   -0.1460   19.8310 C   0  0  0  0  0  0  0  0  0  0  0  0
    4.6610    1.7170   18.4380 C   0  0  0  0  0  0  0  0  0  0  0  0
    3.8860    2.1050   19.5250 C   0  0  0  0  0  0  0  0  0  0  0  0
    4.2460    1.7520   20.8250 C   0  0  0  0  0  0  0  0  0  0  0  0
    5.3890    1.0010   21.0690 C   0  0  0  0  0  0  0  0  0  0  0  0
    7.2757   -5.5631   25.4492 C   0  0  0  0  0  0  0  0  0  0  0  0
    9.0430    0.2380   21.4940 C   0  0  0  0  0  0  0  0  0  0  0  0
    6.9626   -6.6001   26.5133 C   0  0  0  0  0  0  0  0  0  0  0  0
    6.3764   -5.9422   27.7501 C   0  0  0  0  0  0  0  0  0  0  0  0
    7.2660   -4.8258   28.2881 C   0  0  0  0  0  0  0  0  0  0  0  0
    8.4098   -4.4623   27.3426 C   0  0  0  0  0  0  0  0  0  0  0  0
   10.7220    0.6590   23.1850 C   0  0  0  0  0  0  0  0  0  0  0  0
    6.7100    0.3850   17.8100 N   0  0  0  0  0  0  0  0  0  0  0  0
    7.5840   -0.2700   18.5160 N   0  0  0  0  0  0  0  0  0  0  0  0
    6.1460    0.6070   19.9750 N   0  0  0  0  0  0  0  0  0  0  0  0
    7.9658   -4.4384   25.9449 N   0  0  0  0  0  0  0  0  0  0  0  0
    8.0950   -0.7700   20.8440 N   0  0  0  0  0  0  0  0  0  0  0  0
    9.5820   -0.1080   22.7000 N   0  0  0  0  0  0  0  0  0  0  0  0
    6.9858   -5.7908   24.2753 O   0  0  0  0  0  0  0  0  0  0  0  0
    9.2950    1.3000   20.9480 O   0  0  0  0  0  0  0  0  0  0  0  0
   14.2594   -2.3714   20.8543 Cl  0  0  0  0  0  0  0  0  0  0  0  0
   14.2462   -1.2340   25.5766 H   0  0  0  0  0  0  0  0  0  0  0  0
   12.2060    0.1530   25.4088 H   0  0  0  0  0  0  0  0  0  0  0  0
    9.5436   -4.5614   23.7799 H   0  0  0  0  0  0  0  0  0  0  0  0
    7.1918   -1.8823   26.1906 H   0  0  0  0  0  0  0  0  0  0  0  0
   10.2676   -2.6754   22.3861 H   0  0  0  0  0  0  0  0  0  0  0  0
    7.8686   -0.0026   24.7598 H   0  0  0  0  0  0  0  0  0  0  0  0
   15.1613   -2.3520   23.5747 H   0  0  0  0  0  0  0  0  0  0  0  0
   11.9745   -0.6893   21.1973 H   0  0  0  0  0  0  0  0  0  0  0  0
    4.3710    2.0145   17.4451 H   0  0  0  0  0  0  0  0  0  0  0  0
    2.9929    2.6891   19.3400 H   0  0  0  0  0  0  0  0  0  0  0  0
    3.6320    2.0596   21.6814 H   0  0  0  0  0  0  0  0  0  0  0  0
    5.6863    0.7288   22.0575 H   0  0  0  0  0  0  0  0  0  0  0  0
    6.2500   -7.3027   26.1097 H   0  0  0  0  0  0  0  0  0  0  0  0
    7.8838   -7.1078   26.7574 H   0  0  0  0  0  0  0  0  0  0  0  0
    5.3690   -5.5363   27.5214 H   0  0  0  0  0  0  0  0  0  0  0  0
    6.2178   -6.7054   28.5384 H   0  0  0  0  0  0  0  0  0  0  0  0
    6.6498   -3.9225   28.4807 H   0  0  0  0  0  0  0  0  0  0  0  0
    7.6764   -5.1138   29.2803 H   0  0  0  0  0  0  0  0  0  0  0  0
    8.7796   -3.4700   27.5826 H   0  0  0  0  0  0  0  0  0  0  0  0
    9.2112   -5.1853   27.4497 H   0  0  0  0  0  0  0  0  0  0  0  0
   10.4561    1.0772   24.1620 H   0  0  0  0  0  0  0  0  0  0  0  0
   10.8743    1.5008   22.5014 H   0  0  0  0  0  0  0  0  0  0  0  0
    8.0897   -1.6082   21.0890 H   0  0  0  0  0  0  0  0  0  0  0  0
  1  2  2  0  0  0  0
  1  7  1  0  0  0  0
  2  9  1  0  0  0  0
  3  5  2  0  0  0  0
  3 10  1  0  0  0  0
  4  6  1  0  0  0  0
  4 10  2  0  0  0  0
  5 11  1  0  0  0  0
  6 11  2  0  0  0  0
  7 12  2  0  0  0  0
  8  9  2  0  0  0  0
  8 12  1  0  0  0  0
  9 25  1  0  0  0  0
 10 29  1  0  0  0  0
 11 31  1  0  0  0  0
 12 34  1  0  0  0  0
 13 15  1  0  0  0  0
 13 26  2  0  0  0  0
 13 28  1  0  0  0  0
 14 27  2  0  0  0  0
 14 28  1  0  0  0  0
 14 30  1  0  0  0  0
 15 16  2  0  0  0  0
 16 17  1  0  0  0  0
 17 18  2  0  0  0  0
 18 28  1  0  0  0  0
 19 21  1  0  0  0  0
 19 29  1  0  0  0  0
 19 32  2  0  0  0  0
 20 30  1  0  0  0  0
 20 31  1  0  0  0  0
 20 33  2  0  0  0  0
 21 22  1  0  0  0  0
 22 23  1  0  0  0  0
 23 24  1  0  0  0  0
 24 29  1  0  0  0  0
 25 31  1  0  0  0  0
 26 27  1  0  0  0  0
  1 35  1  0  0  0  0
  2 36  1  0  0  0  0
  3 37  1  0  0  0  0
  4 38  1  0  0  0  0
  5 39  1  0  0  0  0
  6 40  1  0  0  0  0
  7 41  1  0  0  0  0
  8 42  1  0  0  0  0
 15 43  1  0  0  0  0
 16 44  1  0  0  0  0
 17 45  1  0  0  0  0
 18 46  1  0  0  0  0
 21 47  1  0  0  0  0
 21 48  1  0  0  0  0
 22 49  1  0  0  0  0
 22 50  1  0  0  0  0
 23 51  1  0  0  0  0
 23 52  1  0  0  0  0
 24 53  1  0  0  0  0
 24 54  1  0  0  0  0
 25 55  1  0  0  0  0
 25 56  1  0  0  0  0
 30 57  1  0  0  0  0
M  END
> <clash_score>
0

> <docking_score>
-8.277100563049316

> <overlap_score>
0.9984303712844849

$$$$
BENZO_167_1
  -OEChem-08222022443D

 56 60  0     0  0  0  0  0  0999 V2000
    9.1890   -3.5540   24.0140 C   0  0  0  0  0  0  0  0  0  0  0  0
    7.8700   -2.0610   25.3550 C   0  0  0  0  0  0  0  0  0  0  0  0
    9.5890   -2.4950   23.2210 C   0  0  0  0  0  0  0  0  0  0  0  0
    8.2550   -1.0010   24.5520 C   0  0  0  0  0  0  0  0  0  0  0  0
   12.7320   -0.4464   24.4370 C   0  0  0  0  0  0  0  0  0  0  0  0
   12.5970   -0.8682   22.2832 C   0  0  0  0  0  0  0  0  0  0  0  0
   11.9616   -0.1817   23.2889 C   0  0  0  0  0  0  0  0  0  0  0  0
    8.3450   -3.3440   25.0980 C   0  0  0  0  0  0  0  0  0  0  0  0
    9.1280   -1.2090   23.4870 C   0  0  0  0  0  0  0  0  0  0  0  0
    5.7970    0.9500   18.6730 C   0  0  0  0  0  0  0  0  0  0  0  0
    7.2710   -0.1460   19.8310 C   0  0  0  0  0  0  0  0  0  0  0  0
    4.6610    1.7170   18.4380 C   0  0  0  0  0  0  0  0  0  0  0  0
    3.8860    2.1050   19.5250 C   0  0  0  0  0  0  0  0  0  0  0  0
    4.2460    1.7520   20.8250 C   0  0  0  0  0  0  0  0  0  0  0  0
    5.3890    1.0010   21.0690 C   0  0  0  0  0  0  0  0  0  0  0  0
    9.0430    0.2380   21.4940 C   0  0  0  0  0  0  0  0  0  0  0  0
    8.9524   -5.2012   26.6600 C   0  0  0  0  0  0  0  0  0  0  0  0
    6.6112   -4.5068   26.4379 C   0  0  0  0  0  0  0  0  0  0  0  0
    8.9037   -4.7845   28.1261 C   0  0  0  0  0  0  0  0  0  0  0  0
    6.6374   -4.1243   27.9184 C   0  0  0  0  0  0  0  0  0  0  0  0
   14.6393   -2.3180   22.2082 C   0  0  0  0  0  0  0  0  0  0  0  0
   10.7220    0.6590   23.1850 C   0  0  0  0  0  0  0  0  0  0  0  0
   13.7770   -1.2393   24.1852 N   0  0  0  0  0  0  0  0  0  0  0  0
    6.7100    0.3850   17.8100 N   0  0  0  0  0  0  0  0  0  0  0  0
    7.5840   -0.2700   18.5160 N   0  0  0  0  0  0  0  0  0  0  0  0
   13.6676   -1.4788   22.8673 N   0  0  0  0  0  0  0  0  0  0  0  0
    6.1460    0.6070   19.9750 N   0  0  0  0  0  0  0  0  0  0  0  0
    7.9775   -4.4014   25.9151 N   0  0  0  0  0  0  0  0  0  0  0  0
    8.0950   -0.7700   20.8440 N   0  0  0  0  0  0  0  0  0  0  0  0
    9.5820   -0.1080   22.7000 N   0  0  0  0  0  0  0  0  0  0  0  0
    9.2950    1.3000   20.9480 O   0  0  0  0  0  0  0  0  0  0  0  0
    7.5729   -4.9391   28.6338 O   0  0  0  0  0  0  0  0  0  0  0  0
    9.5426   -4.5618   23.7797 H   0  0  0  0  0  0  0  0  0  0  0  0
    7.1914   -1.8824   26.1903 H   0  0  0  0  0  0  0  0  0  0  0  0
   10.2669   -2.6745   22.3854 H   0  0  0  0  0  0  0  0  0  0  0  0
    7.8690   -0.0020   24.7587 H   0  0  0  0  0  0  0  0  0  0  0  0
   12.5771   -0.0965   25.4478 H   0  0  0  0  0  0  0  0  0  0  0  0
   12.3832   -0.9726   21.2281 H   0  0  0  0  0  0  0  0  0  0  0  0
    4.3710    2.0145   17.4451 H   0  0  0  0  0  0  0  0  0  0  0  0
    2.9929    2.6891   19.3400 H   0  0  0  0  0  0  0  0  0  0  0  0
    3.6320    2.0596   21.6814 H   0  0  0  0  0  0  0  0  0  0  0  0
    5.6863    0.7288   22.0575 H   0  0  0  0  0  0  0  0  0  0  0  0
    9.9615   -5.0500   26.2711 H   0  0  0  0  0  0  0  0  0  0  0  0
    8.6935   -6.2597   26.5720 H   0  0  0  0  0  0  0  0  0  0  0  0
    6.2628   -5.5350   26.3330 H   0  0  0  0  0  0  0  0  0  0  0  0
    5.9347   -3.8423   25.9023 H   0  0  0  0  0  0  0  0  0  0  0  0
    9.5597   -5.4275   28.7166 H   0  0  0  0  0  0  0  0  0  0  0  0
    9.2344   -3.7511   28.2636 H   0  0  0  0  0  0  0  0  0  0  0  0
    6.8874   -3.0657   28.0553 H   0  0  0  0  0  0  0  0  0  0  0  0
    5.6495   -4.2893   28.3591 H   0  0  0  0  0  0  0  0  0  0  0  0
   15.4522   -1.6787   21.8540 H   0  0  0  0  0  0  0  0  0  0  0  0
   15.0179   -3.0613   22.9154 H   0  0  0  0  0  0  0  0  0  0  0  0
   14.1626   -2.8324   21.3691 H   0  0  0  0  0  0  0  0  0  0  0  0
   10.4561    1.0772   24.1620 H   0  0  0  0  0  0  0  0  0  0  0  0
   10.8743    1.5008   22.5014 H   0  0  0  0  0  0  0  0  0  0  0  0
    8.0897   -1.6082   21.0890 H   0  0  0  0  0  0  0  0  0  0  0  0
  1  3  2  0  0  0  0
  1  8  1  0  0  0  0
  2  4  1  0  0  0  0
  2  8  2  0  0  0  0
  3  9  1  0  0  0  0
  4  9  2  0  0  0  0
  5  7  1  0  0  0  0
  5 23  2  0  0  0  0
  6  7  2  0  0  0  0
  6 26  1  0  0  0  0
  7 22  1  0  0  0  0
  8 28  1  0  0  0  0
  9 30  1  0  0  0  0
 10 12  1  0  0  0  0
 10 24  2  0  0  0  0
 10 27  1  0  0  0  0
 11 25  2  0  0  0  0
 11 27  1  0  0  0  0
 11 29  1  0  0  0  0
 12 13  2  0  0  0  0
 13 14  1  0  0  0  0
 14 15  2  0  0  0  0
 15 27  1  0  0  0  0
 16 29  1  0  0  0  0
 16 30  1  0  0  0  0
 16 31  2  0  0  0  0
 17 19  1  0  0  0  0
 17 28  1  0  0  0  0
 18 20  1  0  0  0  0
 18 28  1  0  0  0  0
 19 32  1  0  0  0  0
 20 32  1  0  0  0  0
 21 26  1  0  0  0  0
 22 30  1  0  0  0  0
 23 26  1  0  0  0  0
 24 25  1  0  0  0  0
  1 33  1  0  0  0  0
  2 34  1  0  0  0  0
  3 35  1  0  0  0  0
  4 36  1  0  0  0  0
  5 37  1  0  0  0  0
  6 38  1  0  0  0  0
 12 39  1  0  0  0  0
 13 40  1  0  0  0  0
 14 41  1  0  0  0  0
 15 42  1  0  0  0  0
 17 43  1  0  0  0  0
 17 44  1  0  0  0  0
 18 45  1  0  0  0  0
 18 46  1  0  0  0  0
 19 47  1  0  0  0  0
 19 48  1  0  0  0  0
 20 49  1  0  0  0  0
 20 50  1  0  0  0  0
 21 51  1  0  0  0  0
 21 52  1  0  0  0  0
 21 53  1  0  0  0  0
 22 54  1  0  0  0  0
 22 55  1  0  0  0  0
 29 56  1  0  0  0  0
M  END
> <clash_score>
0

> <docking_score>
-8.57127571105957

> <overlap_score>
0.9972013235092163

$$$$
BENZO_166_1
  -OEChem-08222022443D

 56 60  0     0  0  0  0  0  0999 V2000
   13.7501   -1.1157   24.6177 C   0  0  0  0  0  0  0  0  0  0  0  0
   12.5991   -0.3339   24.5202 C   0  0  0  0  0  0  0  0  0  0  0  0
    9.1890   -3.5540   24.0140 C   0  0  0  0  0  0  0  0  0  0  0  0
    7.8700   -2.0610   25.3550 C   0  0  0  0  0  0  0  0  0  0  0  0
    9.5890   -2.4950   23.2210 C   0  0  0  0  0  0  0  0  0  0  0  0
    8.2550   -1.0010   24.5520 C   0  0  0  0  0  0  0  0  0  0  0  0
   14.2636   -1.7454   23.4838 C   0  0  0  0  0  0  0  0  0  0  0  0
   12.4750   -0.8115   22.1551 C   0  0  0  0  0  0  0  0  0  0  0  0
   11.9616   -0.1817   23.2889 C   0  0  0  0  0  0  0  0  0  0  0  0
    8.3450   -3.3440   25.0980 C   0  0  0  0  0  0  0  0  0  0  0  0
    9.1280   -1.2090   23.4870 C   0  0  0  0  0  0  0  0  0  0  0  0
   13.6260   -1.5933   22.2526 C   0  0  0  0  0  0  0  0  0  0  0  0
    5.7970    0.9500   18.6730 C   0  0  0  0  0  0  0  0  0  0  0  0
    7.2710   -0.1460   19.8310 C   0  0  0  0  0  0  0  0  0  0  0  0
    4.6610    1.7170   18.4380 C   0  0  0  0  0  0  0  0  0  0  0  0
    3.8860    2.1050   19.5250 C   0  0  0  0  0  0  0  0  0  0  0  0
    4.2460    1.7520   20.8250 C   0  0  0  0  0  0  0  0  0  0  0  0
    5.3890    1.0010   21.0690 C   0  0  0  0  0  0  0  0  0  0  0  0
    9.0430    0.2380   21.4940 C   0  0  0  0  0  0  0  0  0  0  0  0
    8.9524   -5.2012   26.6600 C   0  0  0  0  0  0  0  0  0  0  0  0
    6.6112   -4.5068   26.4379 C   0  0  0  0  0  0  0  0  0  0  0  0
    8.9037   -4.7845   28.1261 C   0  0  0  0  0  0  0  0  0  0  0  0
    6.6374   -4.1243   27.9184 C   0  0  0  0  0  0  0  0  0  0  0  0
   10.7220    0.6590   23.1850 C   0  0  0  0  0  0  0  0  0  0  0  0
    6.7100    0.3850   17.8100 N   0  0  0  0  0  0  0  0  0  0  0  0
    7.5840   -0.2700   18.5160 N   0  0  0  0  0  0  0  0  0  0  0  0
    6.1460    0.6070   19.9750 N   0  0  0  0  0  0  0  0  0  0  0  0
    7.9775   -4.4014   25.9151 N   0  0  0  0  0  0  0  0  0  0  0  0
    8.0950   -0.7700   20.8440 N   0  0  0  0  0  0  0  0  0  0  0  0
    9.5820   -0.1080   22.7000 N   0  0  0  0  0  0  0  0  0  0  0  0
    9.2950    1.3000   20.9480 O   0  0  0  0  0  0  0  0  0  0  0  0
    7.5729   -4.9391   28.6338 O   0  0  0  0  0  0  0  0  0  0  0  0
   14.2594   -2.3714   20.8543 Cl  0  0  0  0  0  0  0  0  0  0  0  0
   14.2462   -1.2340   25.5766 H   0  0  0  0  0  0  0  0  0  0  0  0
   12.2060    0.1530   25.4088 H   0  0  0  0  0  0  0  0  0  0  0  0
    9.5426   -4.5618   23.7797 H   0  0  0  0  0  0  0  0  0  0  0  0
    7.1914   -1.8824   26.1903 H   0  0  0  0  0  0  0  0  0  0  0  0
   10.2669   -2.6745   22.3854 H   0  0  0  0  0  0  0  0  0  0  0  0
    7.8690   -0.0020   24.7587 H   0  0  0  0  0  0  0  0  0  0  0  0
   15.1613   -2.3520   23.5748 H   0  0  0  0  0  0  0  0  0  0  0  0
   11.9745   -0.6893   21.1973 H   0  0  0  0  0  0  0  0  0  0  0  0
    4.3710    2.0145   17.4451 H   0  0  0  0  0  0  0  0  0  0  0  0
    2.9929    2.6891   19.3400 H   0  0  0  0  0  0  0  0  0  0  0  0
    3.6320    2.0596   21.6814 H   0  0  0  0  0  0  0  0  0  0  0  0
    5.6863    0.7288   22.0575 H   0  0  0  0  0  0  0  0  0  0  0  0
    9.9615   -5.0500   26.2711 H   0  0  0  0  0  0  0  0  0  0  0  0
    8.6935   -6.2597   26.5720 H   0  0  0  0  0  0  0  0  0  0  0  0
    6.2628   -5.5350   26.3330 H   0  0  0  0  0  0  0  0  0  0  0  0
    5.9347   -3.8423   25.9023 H   0  0  0  0  0  0  0  0  0  0  0  0
    9.5597   -5.4275   28.7166 H   0  0  0  0  0  0  0  0  0  0  0  0
    9.2344   -3.7511   28.2636 H   0  0  0  0  0  0  0  0  0  0  0  0
    6.8874   -3.0657   28.0553 H   0  0  0  0  0  0  0  0  0  0  0  0
    5.6495   -4.2893   28.3591 H   0  0  0  0  0  0  0  0  0  0  0  0
   10.4561    1.0772   24.1620 H   0  0  0  0  0  0  0  0  0  0  0  0
   10.8743    1.5008   22.5014 H   0  0  0  0  0  0  0  0  0  0  0  0
    8.0897   -1.6082   21.0890 H   0  0  0  0  0  0  0  0  0  0  0  0
  1  2  2  0  0  0  0
  1  7  1  0  0  0  0
  2  9  1  0  0  0  0
  3  5  2  0  0  0  0
  3 10  1  0  0  0  0
  4  6  1  0  0  0  0
  4 10  2  0  0  0  0
  5 11  1  0  0  0  0
  6 11  2  0  0  0  0
  7 12  2  0  0  0  0
  8  9  2  0  0  0  0
  8 12  1  0  0  0  0
  9 24  1  0  0  0  0
 10 28  1  0  0  0  0
 11 30  1  0  0  0  0
 12 33  1  0  0  0  0
 13 15  1  0  0  0  0
 13 25  2  0  0  0  0
 13 27  1  0  0  0  0
 14 26  2  0  0  0  0
 14 27  1  0  0  0  0
 14 29  1  0  0  0  0
 15 16  2  0  0  0  0
 16 17  1  0  0  0  0
 17 18  2  0  0  0  0
 18 27  1  0  0  0  0
 19 29  1  0  0  0  0
 19 30  1  0  0  0  0
 19 31  2  0  0  0  0
 20 22  1  0  0  0  0
 20 28  1  0  0  0  0
 21 23  1  0  0  0  0
 21 28  1  0  0  0  0
 22 32  1  0  0  0  0
 23 32  1  0  0  0  0
 24 30  1  0  0  0  0
 25 26  1  0  0  0  0
  1 34  1  0  0  0  0
  2 35  1  0  0  0  0
  3 36  1  0  0  0  0
  4 37  1  0  0  0  0
  5 38  1  0  0  0  0
  6 39  1  0  0  0  0
  7 40  1  0  0  0  0
  8 41  1  0  0  0  0
 15 42  1  0  0  0  0
 16 43  1  0  0  0  0
 17 44  1  0  0  0  0
 18 45  1  0  0  0  0
 20 46  1  0  0  0  0
 20 47  1  0  0  0  0
 21 48  1  0  0  0  0
 21 49  1  0  0  0  0
 22 50  1  0  0  0  0
 22 51  1  0  0  0  0
 23 52  1  0  0  0  0
 23 53  1  0  0  0  0
 24 54  1  0  0  0  0
 24 55  1  0  0  0  0
 29 56  1  0  0  0  0
M  END
> <clash_score>
0

> <docking_score>
-9.335249900817871

> <overlap_score>
1.001713752746582

$$$$
BENZO_168_1
  -OEChem-08222022443D

 49 52  0     1  0  0  0  0  0999 V2000
    3.8860    2.1050   19.5250 C   0  0  0  0  0  0  0  0  0  0  0  0
    4.2460    1.7520   20.8250 C   0  0  0  0  0  0  0  0  0  0  0  0
    9.5890   -2.4950   23.2210 C   0  0  0  0  0  0  0  0  0  0  0  0
    8.2550   -1.0010   24.5520 C   0  0  0  0  0  0  0  0  0  0  0  0
    4.6610    1.7170   18.4380 C   0  0  0  0  0  0  0  0  0  0  0  0
    5.3890    1.0010   21.0690 C   0  0  0  0  0  0  0  0  0  0  0  0
    9.1890   -3.5540   24.0140 C   0  0  0  0  0  0  0  0  0  0  0  0
    7.8700   -2.0610   25.3550 C   0  0  0  0  0  0  0  0  0  0  0  0
   13.0855   -0.3117   23.6141 C   0  0  0  0  0  0  0  0  0  0  0  0
   14.1930   -0.7722   22.9367 C   0  0  0  0  0  0  0  0  0  0  0  0
   12.4091   -0.0480   21.4061 C   0  0  0  0  0  0  0  0  0  0  0  0
    9.1280   -1.2090   23.4870 C   0  0  0  0  0  0  0  0  0  0  0  0
   12.0519    0.1077   22.7276 C   0  0  0  0  0  0  0  0  0  0  0  0
    5.7970    0.9500   18.6730 C   0  0  0  0  0  0  0  0  0  0  0  0
    6.1460    0.6070   19.9750 C   0  0  0  0  0  0  0  0  0  0  0  0
    8.3450   -3.3440   25.0980 C   0  0  0  0  0  0  0  0  0  0  0  0
    9.0430    0.2380   21.4940 C   0  0  0  0  0  0  0  0  0  0  0  0
    7.2615   -5.5563   25.3804 C   0  0  0  0  0  0  0  0  0  0  0  0
    8.3045   -4.4045   27.3385 C   0  0  0  0  0  0  0  0  0  0  0  0
   10.7220    0.6590   23.1850 C   0  0  0  0  0  0  0  0  0  0  0  0
    9.5820   -0.1080   22.7000 C   0  0  1  0  0  0  0  0  0  0  0  0
    6.7100    0.3850   17.8100 N   0  0  0  0  0  0  0  0  0  0  0  0
    7.5840   -0.2700   18.5160 N   0  0  0  0  0  0  0  0  0  0  0  0
    7.2710   -0.1460   19.8310 N   0  0  0  0  0  0  0  0  0  0  0  0
    8.0950   -0.7700   20.8440 N   0  0  0  0  0  0  0  0  0  0  0  0
    7.9717   -4.4175   25.9277 N   0  0  0  0  0  0  0  0  0  0  0  0
    9.2950    1.3000   20.9480 O   0  0  0  0  0  0  0  0  0  0  0  0
   13.9845   -0.6978   21.2387 S   0  0  0  0  0  0  0  0  0  0  0  0
    2.9846    2.6932   19.3610 H   0  0  0  0  0  0  0  0  0  0  0  0
    3.6235    2.0692   21.6570 H   0  0  0  0  0  0  0  0  0  0  0  0
   10.2684   -2.6719   22.3867 H   0  0  0  0  0  0  0  0  0  0  0  0
    7.8717   -0.0016   24.7596 H   0  0  0  0  0  0  0  0  0  0  0  0
    4.3785    2.0113   17.4257 H   0  0  0  0  0  0  0  0  0  0  0  0
    5.6763    0.7332   22.0915 H   0  0  0  0  0  0  0  0  0  0  0  0
    9.5443   -4.5616   23.7817 H   0  0  0  0  0  0  0  0  0  0  0  0
    7.1921   -1.8821   26.1908 H   0  0  0  0  0  0  0  0  0  0  0  0
   13.0241   -0.2787   24.6946 H   0  0  0  0  0  0  0  0  0  0  0  0
   15.1149   -1.1481   23.3576 H   0  0  0  0  0  0  0  0  0  0  0  0
   11.8238    0.1885   20.5283 H   0  0  0  0  0  0  0  0  0  0  0  0
    7.0607   -6.2832   26.1812 H   0  0  0  0  0  0  0  0  0  0  0  0
    6.3096   -5.2194   24.9441 H   0  0  0  0  0  0  0  0  0  0  0  0
    7.8750   -6.0305   24.6002 H   0  0  0  0  0  0  0  0  0  0  0  0
    7.9297   -5.3236   27.8126 H   0  0  0  0  0  0  0  0  0  0  0  0
    9.3968   -4.3501   27.4569 H   0  0  0  0  0  0  0  0  0  0  0  0
    7.8398   -3.5297   27.8167 H   0  0  0  0  0  0  0  0  0  0  0  0
   10.7195    0.6680   24.2839 H   0  0  0  0  0  0  0  0  0  0  0  0
   10.6395    1.7141   22.8921 H   0  0  0  0  0  0  0  0  0  0  0  0
    8.6943    0.7922   23.3819 H   0  0  0  0  0  0  0  0  0  0  0  0
    8.1038   -1.6155   21.0990 H   0  0  0  0  0  0  0  0  0  0  0  0
  1  2  1  0  0  0  0
  1  5  2  0  0  0  0
  2  6  2  0  0  0  0
  3  7  2  0  0  0  0
  3 12  1  0  0  0  0
  4  8  1  0  0  0  0
  4 12  2  0  0  0  0
  5 14  1  0  0  0  0
  6 15  1  0  0  0  0
  7 16  1  0  0  0  0
  8 16  2  0  0  0  0
  9 10  2  0  0  0  0
  9 13  1  0  0  0  0
 10 28  1  0  0  0  0
 11 13  2  0  0  0  0
 11 28  1  0  0  0  0
 12 21  1  0  0  0  0
 13 20  1  0  0  0  0
 14 15  2  0  0  0  0
 14 22  1  0  0  0  0
 15 24  1  0  0  0  0
 16 26  1  0  0  0  0
 17 21  1  0  0  0  0
 17 25  1  0  0  0  0
 17 27  2  0  0  0  0
 18 26  1  0  0  0  0
 19 26  1  0  0  0  0
 20 21  1  1  0  0  0
 22 23  2  0  0  0  0
 23 24  1  0  0  0  0
 24 25  1  0  0  0  0
  1 29  1  0  0  0  0
  2 30  1  0  0  0  0
  3 31  1  0  0  0  0
  4 32  1  0  0  0  0
  5 33  1  0  0  0  0
  6 34  1  0  0  0  0
  7 35  1  0  0  0  0
  8 36  1  0  0  0  0
  9 37  1  0  0  0  0
 10 38  1  0  0  0  0
 11 39  1  0  0  0  0
 18 40  1  0  0  0  0
 18 41  1  0  0  0  0
 18 42  1  0  0  0  0
 19 43  1  0  0  0  0
 19 44  1  0  0  0  0
 19 45  1  0  0  0  0
 20 46  1  0  0  0  0
 20 47  1  0  0  0  0
 21 48  1  0  0  0  0
 25 49  1  0  0  0  0
M  END
> <clash_score>
0

> <docking_score>
-6.912949562072754

> <overlap_score>
0.9044992327690125

$$$$
BENZO_168_2
  -OEChem-08222022443D

 49 52  0     1  0  0  0  0  0999 V2000
    3.8860    2.1050   19.5250 C   0  0  0  0  0  0  0  0  0  0  0  0
    4.2460    1.7520   20.8250 C   0  0  0  0  0  0  0  0  0  0  0  0
    9.5890   -2.4950   23.2210 C   0  0  0  0  0  0  0  0  0  0  0  0
    8.2550   -1.0010   24.5520 C   0  0  0  0  0  0  0  0  0  0  0  0
    4.6610    1.7170   18.4380 C   0  0  0  0  0  0  0  0  0  0  0  0
    5.3890    1.0010   21.0690 C   0  0  0  0  0  0  0  0  0  0  0  0
    9.1890   -3.5540   24.0140 C   0  0  0  0  0  0  0  0  0  0  0  0
    7.8700   -2.0610   25.3550 C   0  0  0  0  0  0  0  0  0  0  0  0
   12.5521   -1.1164   22.7252 C   0  0  0  0  0  0  0  0  0  0  0  0
   13.5845   -1.7774   23.3535 C   0  0  0  0  0  0  0  0  0  0  0  0
   12.4440   -0.2022   24.8594 C   0  0  0  0  0  0  0  0  0  0  0  0
    9.1280   -1.2090   23.4870 C   0  0  0  0  0  0  0  0  0  0  0  0
   11.8914   -0.2037   23.5974 C   0  0  0  0  0  0  0  0  0  0  0  0
    5.7970    0.9500   18.6730 C   0  0  0  0  0  0  0  0  0  0  0  0
    6.1460    0.6070   19.9750 C   0  0  0  0  0  0  0  0  0  0  0  0
    8.3450   -3.3440   25.0980 C   0  0  0  0  0  0  0  0  0  0  0  0
    9.0430    0.2380   21.4940 C   0  0  0  0  0  0  0  0  0  0  0  0
    8.8659   -5.5418   26.1210 C   0  0  0  0  0  0  0  0  0  0  0  0
    6.6933   -4.4068   26.6107 C   0  0  0  0  0  0  0  0  0  0  0  0
   10.7220    0.6590   23.1850 C   0  0  0  0  0  0  0  0  0  0  0  0
    9.5820   -0.1080   22.7000 C   0  0  2  0  0  0  0  0  0  0  0  0
    6.7100    0.3850   17.8100 N   0  0  0  0  0  0  0  0  0  0  0  0
    7.5840   -0.2700   18.5160 N   0  0  0  0  0  0  0  0  0  0  0  0
    7.2710   -0.1460   19.8310 N   0  0  0  0  0  0  0  0  0  0  0  0
    8.0950   -0.7700   20.8440 N   0  0  0  0  0  0  0  0  0  0  0  0
    7.9717   -4.4175   25.9277 N   0  0  0  0  0  0  0  0  0  0  0  0
    9.2950    1.3000   20.9480 O   0  0  0  0  0  0  0  0  0  0  0  0
   13.7539   -1.2974   24.9886 S   0  0  0  0  0  0  0  0  0  0  0  0
    2.9846    2.6932   19.3610 H   0  0  0  0  0  0  0  0  0  0  0  0
    3.6235    2.0692   21.6570 H   0  0  0  0  0  0  0  0  0  0  0  0
   10.2684   -2.6719   22.3867 H   0  0  0  0  0  0  0  0  0  0  0  0
    7.8717   -0.0016   24.7596 H   0  0  0  0  0  0  0  0  0  0  0  0
    4.3785    2.0113   17.4257 H   0  0  0  0  0  0  0  0  0  0  0  0
    5.6763    0.7332   22.0915 H   0  0  0  0  0  0  0  0  0  0  0  0
    9.5443   -4.5616   23.7817 H   0  0  0  0  0  0  0  0  0  0  0  0
    7.1921   -1.8821   26.1908 H   0  0  0  0  0  0  0  0  0  0  0  0
   12.2866   -1.2830   21.6889 H   0  0  0  0  0  0  0  0  0  0  0  0
   14.2469   -2.5196   22.9310 H   0  0  0  0  0  0  0  0  0  0  0  0
   12.1435    0.3872   25.7147 H   0  0  0  0  0  0  0  0  0  0  0  0
    8.3972   -6.2717   26.7974 H   0  0  0  0  0  0  0  0  0  0  0  0
    9.0696   -6.0190   25.1510 H   0  0  0  0  0  0  0  0  0  0  0  0
    9.8100   -5.1879   26.5609 H   0  0  0  0  0  0  0  0  0  0  0  0
    6.5870   -5.3260   27.2055 H   0  0  0  0  0  0  0  0  0  0  0  0
    6.6401   -3.5320   27.2754 H   0  0  0  0  0  0  0  0  0  0  0  0
    5.8822   -4.3539   25.8696 H   0  0  0  0  0  0  0  0  0  0  0  0
   10.4198    1.2578   24.0555 H   0  0  0  0  0  0  0  0  0  0  0  0
   11.0503    1.3920   22.4361 H   0  0  0  0  0  0  0  0  0  0  0  0
   10.5231   -0.9933   22.0106 H   0  0  0  0  0  0  0  0  0  0  0  0
    8.1038   -1.6155   21.0990 H   0  0  0  0  0  0  0  0  0  0  0  0
  1  2  1  0  0  0  0
  1  5  2  0  0  0  0
  2  6  2  0  0  0  0
  3  7  2  0  0  0  0
  3 12  1  0  0  0  0
  4  8  1  0  0  0  0
  4 12  2  0  0  0  0
  5 14  1  0  0  0  0
  6 15  1  0  0  0  0
  7 16  1  0  0  0  0
  8 16  2  0  0  0  0
  9 10  2  0  0  0  0
  9 13  1  0  0  0  0
 10 28  1  0  0  0  0
 11 13  2  0  0  0  0
 11 28  1  0  0  0  0
 12 21  1  0  0  0  0
 13 20  1  0  0  0  0
 14 15  2  0  0  0  0
 14 22  1  0  0  0  0
 15 24  1  0  0  0  0
 16 26  1  0  0  0  0
 17 21  1  0  0  0  0
 17 25  1  0  0  0  0
 17 27  2  0  0  0  0
 18 26  1  0  0  0  0
 19 26  1  0  0  0  0
 20 21  1  6  0  0  0
 22 23  2  0  0  0  0
 23 24  1  0  0  0  0
 24 25  1  0  0  0  0
  1 29  1  0  0  0  0
  2 30  1  0  0  0  0
  3 31  1  0  0  0  0
  4 32  1  0  0  0  0
  5 33  1  0  0  0  0
  6 34  1  0  0  0  0
  7 35  1  0  0  0  0
  8 36  1  0  0  0  0
  9 37  1  0  0  0  0
 10 38  1  0  0  0  0
 11 39  1  0  0  0  0
 18 40  1  0  0  0  0
 18 41  1  0  0  0  0
 18 42  1  0  0  0  0
 19 43  1  0  0  0  0
 19 44  1  0  0  0  0
 19 45  1  0  0  0  0
 20 46  1  0  0  0  0
 20 47  1  0  0  0  0
 21 48  1  0  0  0  0
 25 49  1  0  0  0  0
M  END
> <clash_score>
0

> <docking_score>
-8.160079002380371

> <overlap_score>
0.9050711989402771

$$$$
BENZO_169_1
  -OEChem-08222022443D

 52 55  0     1  0  0  0  0  0999 V2000
   14.5074   -0.9113   21.8819 C   0  0  0  0  0  0  0  0  0  0  0  0
   14.4132   -0.2412   23.1016 C   0  0  0  0  0  0  0  0  0  0  0  0
   13.3738   -1.0719   21.0850 C   0  0  0  0  0  0  0  0  0  0  0  0
    3.8860    2.1050   19.5250 C   0  0  0  0  0  0  0  0  0  0  0  0
    4.2460    1.7520   20.8250 C   0  0  0  0  0  0  0  0  0  0  0  0
   13.1855    0.2683   23.5244 C   0  0  0  0  0  0  0  0  0  0  0  0
   12.1461   -0.5625   21.5079 C   0  0  0  0  0  0  0  0  0  0  0  0
    9.5890   -2.4950   23.2210 C   0  0  0  0  0  0  0  0  0  0  0  0
    8.2550   -1.0010   24.5520 C   0  0  0  0  0  0  0  0  0  0  0  0
    4.6610    1.7170   18.4380 C   0  0  0  0  0  0  0  0  0  0  0  0
    5.3890    1.0010   21.0690 C   0  0  0  0  0  0  0  0  0  0  0  0
    9.1890   -3.5540   24.0140 C   0  0  0  0  0  0  0  0  0  0  0  0
    7.8700   -2.0610   25.3550 C   0  0  0  0  0  0  0  0  0  0  0  0
   12.0519    0.1077   22.7276 C   0  0  0  0  0  0  0  0  0  0  0  0
    9.1280   -1.2090   23.4870 C   0  0  0  0  0  0  0  0  0  0  0  0
    5.7970    0.9500   18.6730 C   0  0  0  0  0  0  0  0  0  0  0  0
    6.1460    0.6070   19.9750 C   0  0  0  0  0  0  0  0  0  0  0  0
    8.3450   -3.3440   25.0980 C   0  0  0  0  0  0  0  0  0  0  0  0
    9.0430    0.2380   21.4940 C   0  0  0  0  0  0  0  0  0  0  0  0
    7.2615   -5.5563   25.3804 C   0  0  0  0  0  0  0  0  0  0  0  0
    8.3045   -4.4045   27.3385 C   0  0  0  0  0  0  0  0  0  0  0  0
   10.7220    0.6590   23.1850 C   0  0  0  0  0  0  0  0  0  0  0  0
    9.5820   -0.1080   22.7000 C   0  0  1  0  0  0  0  0  0  0  0  0
    6.7100    0.3850   17.8100 N   0  0  0  0  0  0  0  0  0  0  0  0
    7.5840   -0.2700   18.5160 N   0  0  0  0  0  0  0  0  0  0  0  0
    7.2710   -0.1460   19.8310 N   0  0  0  0  0  0  0  0  0  0  0  0
    8.0950   -0.7700   20.8440 N   0  0  0  0  0  0  0  0  0  0  0  0
    7.9717   -4.4175   25.9277 N   0  0  0  0  0  0  0  0  0  0  0  0
    9.2950    1.3000   20.9480 O   0  0  0  0  0  0  0  0  0  0  0  0
   15.4637   -1.3068   21.5522 H   0  0  0  0  0  0  0  0  0  0  0  0
   15.2959   -0.1151   23.7217 H   0  0  0  0  0  0  0  0  0  0  0  0
   13.4470   -1.5927   20.1349 H   0  0  0  0  0  0  0  0  0  0  0  0
    2.9846    2.6932   19.3610 H   0  0  0  0  0  0  0  0  0  0  0  0
    3.6235    2.0692   21.6570 H   0  0  0  0  0  0  0  0  0  0  0  0
   13.1215    0.7889   24.4763 H   0  0  0  0  0  0  0  0  0  0  0  0
   11.2683   -0.6924   20.8805 H   0  0  0  0  0  0  0  0  0  0  0  0
   10.2684   -2.6719   22.3867 H   0  0  0  0  0  0  0  0  0  0  0  0
    7.8717   -0.0016   24.7596 H   0  0  0  0  0  0  0  0  0  0  0  0
    4.3785    2.0113   17.4257 H   0  0  0  0  0  0  0  0  0  0  0  0
    5.6763    0.7332   22.0915 H   0  0  0  0  0  0  0  0  0  0  0  0
    9.5443   -4.5616   23.7817 H   0  0  0  0  0  0  0  0  0  0  0  0
    7.1921   -1.8821   26.1908 H   0  0  0  0  0  0  0  0  0  0  0  0
    7.0607   -6.2832   26.1812 H   0  0  0  0  0  0  0  0  0  0  0  0
    6.3096   -5.2194   24.9441 H   0  0  0  0  0  0  0  0  0  0  0  0
    7.8750   -6.0305   24.6002 H   0  0  0  0  0  0  0  0  0  0  0  0
    7.9297   -5.3236   27.8126 H   0  0  0  0  0  0  0  0  0  0  0  0
    9.3968   -4.3501   27.4569 H   0  0  0  0  0  0  0  0  0  0  0  0
    7.8398   -3.5297   27.8167 H   0  0  0  0  0  0  0  0  0  0  0  0
   10.7195    0.6680   24.2839 H   0  0  0  0  0  0  0  0  0  0  0  0
   10.6395    1.7141   22.8921 H   0  0  0  0  0  0  0  0  0  0  0  0
    8.6943    0.7922   23.3819 H   0  0  0  0  0  0  0  0  0  0  0  0
    8.1038   -1.6155   21.0990 H   0  0  0  0  0  0  0  0  0  0  0  0
  1  2  1  0  0  0  0
  1  3  2  0  0  0  0
  2  6  2  0  0  0  0
  3  7  1  0  0  0  0
  4  5  1  0  0  0  0
  4 10  2  0  0  0  0
  5 11  2  0  0  0  0
  6 14  1  0  0  0  0
  7 14  2  0  0  0  0
  8 12  2  0  0  0  0
  8 15  1  0  0  0  0
  9 13  1  0  0  0  0
  9 15  2  0  0  0  0
 10 16  1  0  0  0  0
 11 17  1  0  0  0  0
 12 18  1  0  0  0  0
 13 18  2  0  0  0  0
 14 22  1  0  0  0  0
 15 23  1  0  0  0  0
 16 17  2  0  0  0  0
 16 24  1  0  0  0  0
 17 26  1  0  0  0  0
 18 28  1  0  0  0  0
 19 23  1  0  0  0  0
 19 27  1  0  0  0  0
 19 29  2  0  0  0  0
 20 28  1  0  0  0  0
 21 28  1  0  0  0  0
 22 23  1  1  0  0  0
 24 25  2  0  0  0  0
 25 26  1  0  0  0  0
 26 27  1  0  0  0  0
  1 30  1  0  0  0  0
  2 31  1  0  0  0  0
  3 32  1  0  0  0  0
  4 33  1  0  0  0  0
  5 34  1  0  0  0  0
  6 35  1  0  0  0  0
  7 36  1  0  0  0  0
  8 37  1  0  0  0  0
  9 38  1  0  0  0  0
 10 39  1  0  0  0  0
 11 40  1  0  0  0  0
 12 41  1  0  0  0  0
 13 42  1  0  0  0  0
 20 43  1  0  0  0  0
 20 44  1  0  0  0  0
 20 45  1  0  0  0  0
 21 46  1  0  0  0  0
 21 47  1  0  0  0  0
 21 48  1  0  0  0  0
 22 49  1  0  0  0  0
 22 50  1  0  0  0  0
 23 51  1  0  0  0  0
 27 52  1  0  0  0  0
M  END
> <clash_score>
0

> <docking_score>
-7.2196550369262695

> <overlap_score>
0.9079724550247192

$$$$
BENZO_169_2
  -OEChem-08222022443D

 52 55  0     1  0  0  0  0  0999 V2000
   14.0513   -1.7974   24.3577 C   0  0  0  0  0  0  0  0  0  0  0  0
   13.0726   -1.4574   25.2916 C   0  0  0  0  0  0  0  0  0  0  0  0
   13.9501   -1.3405   23.0436 C   0  0  0  0  0  0  0  0  0  0  0  0
    3.8860    2.1050   19.5250 C   0  0  0  0  0  0  0  0  0  0  0  0
    4.2460    1.7520   20.8250 C   0  0  0  0  0  0  0  0  0  0  0  0
   11.9927   -0.6606   24.9115 C   0  0  0  0  0  0  0  0  0  0  0  0
   12.8701   -0.5437   22.6635 C   0  0  0  0  0  0  0  0  0  0  0  0
    9.5890   -2.4950   23.2210 C   0  0  0  0  0  0  0  0  0  0  0  0
    8.2550   -1.0010   24.5520 C   0  0  0  0  0  0  0  0  0  0  0  0
    4.6610    1.7170   18.4380 C   0  0  0  0  0  0  0  0  0  0  0  0
    5.3890    1.0010   21.0690 C   0  0  0  0  0  0  0  0  0  0  0  0
    9.1890   -3.5540   24.0140 C   0  0  0  0  0  0  0  0  0  0  0  0
    7.8700   -2.0610   25.3550 C   0  0  0  0  0  0  0  0  0  0  0  0
   11.8914   -0.2037   23.5974 C   0  0  0  0  0  0  0  0  0  0  0  0
    9.1280   -1.2090   23.4870 C   0  0  0  0  0  0  0  0  0  0  0  0
    5.7970    0.9500   18.6730 C   0  0  0  0  0  0  0  0  0  0  0  0
    6.1460    0.6070   19.9750 C   0  0  0  0  0  0  0  0  0  0  0  0
    8.3450   -3.3440   25.0980 C   0  0  0  0  0  0  0  0  0  0  0  0
    9.0430    0.2380   21.4940 C   0  0  0  0  0  0  0  0  0  0  0  0
    7.2615   -5.5563   25.3804 C   0  0  0  0  0  0  0  0  0  0  0  0
    8.3045   -4.4045   27.3385 C   0  0  0  0  0  0  0  0  0  0  0  0
   10.7220    0.6590   23.1850 C   0  0  0  0  0  0  0  0  0  0  0  0
    9.5820   -0.1080   22.7000 C   0  0  2  0  0  0  0  0  0  0  0  0
    6.7100    0.3850   17.8100 N   0  0  0  0  0  0  0  0  0  0  0  0
    7.5840   -0.2700   18.5160 N   0  0  0  0  0  0  0  0  0  0  0  0
    7.2710   -0.1460   19.8310 N   0  0  0  0  0  0  0  0  0  0  0  0
    8.0950   -0.7700   20.8440 N   0  0  0  0  0  0  0  0  0  0  0  0
    7.9717   -4.4175   25.9277 N   0  0  0  0  0  0  0  0  0  0  0  0
    9.2950    1.3000   20.9480 O   0  0  0  0  0  0  0  0  0  0  0  0
   14.8928   -2.4167   24.6542 H   0  0  0  0  0  0  0  0  0  0  0  0
   13.1518   -1.8121   26.3151 H   0  0  0  0  0  0  0  0  0  0  0  0
   14.7124   -1.6041   22.3165 H   0  0  0  0  0  0  0  0  0  0  0  0
    2.9846    2.6932   19.3610 H   0  0  0  0  0  0  0  0  0  0  0  0
    3.6235    2.0692   21.6570 H   0  0  0  0  0  0  0  0  0  0  0  0
   11.2348   -0.4008   25.6459 H   0  0  0  0  0  0  0  0  0  0  0  0
   12.7995   -0.1925   21.6375 H   0  0  0  0  0  0  0  0  0  0  0  0
   10.2684   -2.6719   22.3867 H   0  0  0  0  0  0  0  0  0  0  0  0
    7.8717   -0.0016   24.7596 H   0  0  0  0  0  0  0  0  0  0  0  0
    4.3785    2.0113   17.4257 H   0  0  0  0  0  0  0  0  0  0  0  0
    5.6763    0.7332   22.0915 H   0  0  0  0  0  0  0  0  0  0  0  0
    9.5443   -4.5616   23.7817 H   0  0  0  0  0  0  0  0  0  0  0  0
    7.1921   -1.8821   26.1908 H   0  0  0  0  0  0  0  0  0  0  0  0
    7.0607   -6.2832   26.1812 H   0  0  0  0  0  0  0  0  0  0  0  0
    6.3096   -5.2194   24.9441 H   0  0  0  0  0  0  0  0  0  0  0  0
    7.8750   -6.0305   24.6002 H   0  0  0  0  0  0  0  0  0  0  0  0
    7.9297   -5.3236   27.8126 H   0  0  0  0  0  0  0  0  0  0  0  0
    9.3968   -4.3501   27.4569 H   0  0  0  0  0  0  0  0  0  0  0  0
    7.8398   -3.5297   27.8167 H   0  0  0  0  0  0  0  0  0  0  0  0
   10.4198    1.2578   24.0555 H   0  0  0  0  0  0  0  0  0  0  0  0
   11.0503    1.3920   22.4361 H   0  0  0  0  0  0  0  0  0  0  0  0
   10.5231   -0.9933   22.0106 H   0  0  0  0  0  0  0  0  0  0  0  0
    8.1038   -1.6155   21.0990 H   0  0  0  0  0  0  0  0  0  0  0  0
  1  2  1  0  0  0  0
  1  3  2  0  0  0  0
  2  6  2  0  0  0  0
  3  7  1  0  0  0  0
  4  5  1  0  0  0  0
  4 10  2  0  0  0  0
  5 11  2  0  0  0  0
  6 14  1  0  0  0  0
  7 14  2  0  0  0  0
  8 12  2  0  0  0  0
  8 15  1  0  0  0  0
  9 13  1  0  0  0  0
  9 15  2  0  0  0  0
 10 16  1  0  0  0  0
 11 17  1  0  0  0  0
 12 18  1  0  0  0  0
 13 18  2  0  0  0  0
 14 22  1  0  0  0  0
 15 23  1  0  0  0  0
 16 17  2  0  0  0  0
 16 24  1  0  0  0  0
 17 26  1  0  0  0  0
 18 28  1  0  0  0  0
 19 23  1  0  0  0  0
 19 27  1  0  0  0  0
 19 29  2  0  0  0  0
 20 28  1  0  0  0  0
 21 28  1  0  0  0  0
 22 23  1  6  0  0  0
 24 25  2  0  0  0  0
 25 26  1  0  0  0  0
 26 27  1  0  0  0  0
  1 30  1  0  0  0  0
  2 31  1  0  0  0  0
  3 32  1  0  0  0  0
  4 33  1  0  0  0  0
  5 34  1  0  0  0  0
  6 35  1  0  0  0  0
  7 36  1  0  0  0  0
  8 37  1  0  0  0  0
  9 38  1  0  0  0  0
 10 39  1  0  0  0  0
 11 40  1  0  0  0  0
 12 41  1  0  0  0  0
 13 42  1  0  0  0  0
 20 43  1  0  0  0  0
 20 44  1  0  0  0  0
 20 45  1  0  0  0  0
 21 46  1  0  0  0  0
 21 47  1  0  0  0  0
 21 48  1  0  0  0  0
 22 49  1  0  0  0  0
 22 50  1  0  0  0  0
 23 51  1  0  0  0  0
 27 52  1  0  0  0  0
M  END
> <clash_score>
0

> <docking_score>
-7.7598724365234375

> <overlap_score>
0.928766667842865

$$$$
BENZO_170_1
  -OEChem-08222022443D

 52 55  0     1  0  0  0  0  0999 V2000
    3.8860    2.1050   19.5250 C   0  0  0  0  0  0  0  0  0  0  0  0
    4.2460    1.7520   20.8250 C   0  0  0  0  0  0  0  0  0  0  0  0
   13.8445    0.0438   21.1092 C   0  0  0  0  0  0  0  0  0  0  0  0
   12.6160    0.5516   21.5316 C   0  0  0  0  0  0  0  0  0  0  0  0
    9.5890   -2.4950   23.2210 C   0  0  0  0  0  0  0  0  0  0  0  0
    8.2550   -1.0010   24.5520 C   0  0  0  0  0  0  0  0  0  0  0  0
    4.6610    1.7170   18.4380 C   0  0  0  0  0  0  0  0  0  0  0  0
    5.3890    1.0010   21.0690 C   0  0  0  0  0  0  0  0  0  0  0  0
    9.1890   -3.5540   24.0140 C   0  0  0  0  0  0  0  0  0  0  0  0
    7.8700   -2.0610   25.3550 C   0  0  0  0  0  0  0  0  0  0  0  0
   14.5090   -0.9080   21.8827 C   0  0  0  0  0  0  0  0  0  0  0  0
   12.7164   -0.8440   23.5012 C   0  0  0  0  0  0  0  0  0  0  0  0
    9.1280   -1.2090   23.4870 C   0  0  0  0  0  0  0  0  0  0  0  0
   12.0519    0.1077   22.7276 C   0  0  0  0  0  0  0  0  0  0  0  0
    5.7970    0.9500   18.6730 C   0  0  0  0  0  0  0  0  0  0  0  0
    6.1460    0.6070   19.9750 C   0  0  0  0  0  0  0  0  0  0  0  0
    8.3450   -3.3440   25.0980 C   0  0  0  0  0  0  0  0  0  0  0  0
   13.9449   -1.3519   23.0787 C   0  0  0  0  0  0  0  0  0  0  0  0
    9.0430    0.2380   21.4940 C   0  0  0  0  0  0  0  0  0  0  0  0
    7.2615   -5.5563   25.3804 C   0  0  0  0  0  0  0  0  0  0  0  0
    8.3045   -4.4045   27.3385 C   0  0  0  0  0  0  0  0  0  0  0  0
   10.7220    0.6590   23.1850 C   0  0  0  0  0  0  0  0  0  0  0  0
    9.5820   -0.1080   22.7000 C   0  0  1  0  0  0  0  0  0  0  0  0
    6.7100    0.3850   17.8100 N   0  0  0  0  0  0  0  0  0  0  0  0
    7.5840   -0.2700   18.5160 N   0  0  0  0  0  0  0  0  0  0  0  0
    7.2710   -0.1460   19.8310 N   0  0  0  0  0  0  0  0  0  0  0  0
    8.0950   -0.7700   20.8440 N   0  0  0  0  0  0  0  0  0  0  0  0
    7.9717   -4.4175   25.9277 N   0  0  0  0  0  0  0  0  0  0  0  0
    9.2950    1.3000   20.9480 O   0  0  0  0  0  0  0  0  0  0  0  0
   14.7657   -2.5253   24.0333 Cl  0  0  0  0  0  0  0  0  0  0  0  0
    2.9846    2.6932   19.3610 H   0  0  0  0  0  0  0  0  0  0  0  0
    3.6235    2.0692   21.6570 H   0  0  0  0  0  0  0  0  0  0  0  0
   14.2835    0.3898   20.1778 H   0  0  0  0  0  0  0  0  0  0  0  0
   12.1054    1.2930   20.9225 H   0  0  0  0  0  0  0  0  0  0  0  0
   10.2684   -2.6719   22.3867 H   0  0  0  0  0  0  0  0  0  0  0  0
    7.8717   -0.0016   24.7596 H   0  0  0  0  0  0  0  0  0  0  0  0
    4.3785    2.0113   17.4257 H   0  0  0  0  0  0  0  0  0  0  0  0
    5.6763    0.7332   22.0915 H   0  0  0  0  0  0  0  0  0  0  0  0
    9.5443   -4.5616   23.7817 H   0  0  0  0  0  0  0  0  0  0  0  0
    7.1921   -1.8821   26.1908 H   0  0  0  0  0  0  0  0  0  0  0  0
   15.4660   -1.2948   21.5412 H   0  0  0  0  0  0  0  0  0  0  0  0
   12.2722   -1.1873   24.4326 H   0  0  0  0  0  0  0  0  0  0  0  0
    7.0607   -6.2832   26.1812 H   0  0  0  0  0  0  0  0  0  0  0  0
    6.3096   -5.2194   24.9441 H   0  0  0  0  0  0  0  0  0  0  0  0
    7.8750   -6.0305   24.6002 H   0  0  0  0  0  0  0  0  0  0  0  0
    7.9297   -5.3236   27.8126 H   0  0  0  0  0  0  0  0  0  0  0  0
    9.3968   -4.3501   27.4569 H   0  0  0  0  0  0  0  0  0  0  0  0
    7.8398   -3.5297   27.8167 H   0  0  0  0  0  0  0  0  0  0  0  0
   10.7195    0.6680   24.2839 H   0  0  0  0  0  0  0  0  0  0  0  0
   10.6395    1.7141   22.8921 H   0  0  0  0  0  0  0  0  0  0  0  0
    8.6943    0.7922   23.3819 H   0  0  0  0  0  0  0  0  0  0  0  0
    8.1038   -1.6155   21.0990 H   0  0  0  0  0  0  0  0  0  0  0  0
  1  2  1  0  0  0  0
  1  7  2  0  0  0  0
  2  8  2  0  0  0  0
  3  4  2  0  0  0  0
  3 11  1  0  0  0  0
  4 14  1  0  0  0  0
  5  9  2  0  0  0  0
  5 13  1  0  0  0  0
  6 10  1  0  0  0  0
  6 13  2  0  0  0  0
  7 15  1  0  0  0  0
  8 16  1  0  0  0  0
  9 17  1  0  0  0  0
 10 17  2  0  0  0  0
 11 18  2  0  0  0  0
 12 14  2  0  0  0  0
 12 18  1  0  0  0  0
 13 23  1  0  0  0  0
 14 22  1  0  0  0  0
 15 16  2  0  0  0  0
 15 24  1  0  0  0  0
 16 26  1  0  0  0  0
 17 28  1  0  0  0  0
 18 30  1  0  0  0  0
 19 23  1  0  0  0  0
 19 27  1  0  0  0  0
 19 29  2  0  0  0  0
 20 28  1  0  0  0  0
 21 28  1  0  0  0  0
 22 23  1  1  0  0  0
 24 25  2  0  0  0  0
 25 26  1  0  0  0  0
 26 27  1  0  0  0  0
  1 31  1  0  0  0  0
  2 32  1  0  0  0  0
  3 33  1  0  0  0  0
  4 34  1  0  0  0  0
  5 35  1  0  0  0  0
  6 36  1  0  0  0  0
  7 37  1  0  0  0  0
  8 38  1  0  0  0  0
  9 39  1  0  0  0  0
 10 40  1  0  0  0  0
 11 41  1  0  0  0  0
 12 42  1  0  0  0  0
 20 43  1  0  0  0  0
 20 44  1  0  0  0  0
 20 45  1  0  0  0  0
 21 46  1  0  0  0  0
 21 47  1  0  0  0  0
 21 48  1  0  0  0  0
 22 49  1  0  0  0  0
 22 50  1  0  0  0  0
 23 51  1  0  0  0  0
 27 52  1  0  0  0  0
M  END
> <clash_score>
0

> <docking_score>
-6.269111633300781

> <overlap_score>
0.9220975041389465

$$$$
BENZO_170_2
  -OEChem-08222022443D

 52 55  0     1  0  0  0  0  0999 V2000
    3.8860    2.1050   19.5250 C   0  0  0  0  0  0  0  0  0  0  0  0
    4.2460    1.7520   20.8250 C   0  0  0  0  0  0  0  0  0  0  0  0
   13.0699   -1.4582   25.2928 C   0  0  0  0  0  0  0  0  0  0  0  0
   11.9910   -0.6606   24.9116 C   0  0  0  0  0  0  0  0  0  0  0  0
    9.5890   -2.4950   23.2210 C   0  0  0  0  0  0  0  0  0  0  0  0
    8.2550   -1.0010   24.5520 C   0  0  0  0  0  0  0  0  0  0  0  0
    4.6610    1.7170   18.4380 C   0  0  0  0  0  0  0  0  0  0  0  0
    5.3890    1.0010   21.0690 C   0  0  0  0  0  0  0  0  0  0  0  0
    9.1890   -3.5540   24.0140 C   0  0  0  0  0  0  0  0  0  0  0  0
    7.8700   -2.0610   25.3550 C   0  0  0  0  0  0  0  0  0  0  0  0
   14.0494   -1.7989   24.3598 C   0  0  0  0  0  0  0  0  0  0  0  0
   12.8708   -0.5445   22.6644 C   0  0  0  0  0  0  0  0  0  0  0  0
    9.1280   -1.2090   23.4870 C   0  0  0  0  0  0  0  0  0  0  0  0
   11.8914   -0.2037   23.5974 C   0  0  0  0  0  0  0  0  0  0  0  0
    5.7970    0.9500   18.6730 C   0  0  0  0  0  0  0  0  0  0  0  0
    6.1460    0.6070   19.9750 C   0  0  0  0  0  0  0  0  0  0  0  0
    8.3450   -3.3440   25.0980 C   0  0  0  0  0  0  0  0  0  0  0  0
   13.9498   -1.3420   23.0457 C   0  0  0  0  0  0  0  0  0  0  0  0
    9.0430    0.2380   21.4940 C   0  0  0  0  0  0  0  0  0  0  0  0
    7.2615   -5.5563   25.3804 C   0  0  0  0  0  0  0  0  0  0  0  0
    8.3045   -4.4045   27.3385 C   0  0  0  0  0  0  0  0  0  0  0  0
   10.7220    0.6590   23.1850 C   0  0  0  0  0  0  0  0  0  0  0  0
    9.5820   -0.1080   22.7000 C   0  0  2  0  0  0  0  0  0  0  0  0
    6.7100    0.3850   17.8100 N   0  0  0  0  0  0  0  0  0  0  0  0
    7.5840   -0.2700   18.5160 N   0  0  0  0  0  0  0  0  0  0  0  0
    7.2710   -0.1460   19.8310 N   0  0  0  0  0  0  0  0  0  0  0  0
    8.0950   -0.7700   20.8440 N   0  0  0  0  0  0  0  0  0  0  0  0
    7.9717   -4.4175   25.9277 N   0  0  0  0  0  0  0  0  0  0  0  0
    9.2950    1.3000   20.9480 O   0  0  0  0  0  0  0  0  0  0  0  0
   15.1579   -1.7637   21.8948 Cl  0  0  0  0  0  0  0  0  0  0  0  0
    2.9846    2.6932   19.3610 H   0  0  0  0  0  0  0  0  0  0  0  0
    3.6235    2.0692   21.6570 H   0  0  0  0  0  0  0  0  0  0  0  0
   13.1470   -1.8139   26.3162 H   0  0  0  0  0  0  0  0  0  0  0  0
   11.2324   -0.4002   25.6451 H   0  0  0  0  0  0  0  0  0  0  0  0
   10.2684   -2.6719   22.3867 H   0  0  0  0  0  0  0  0  0  0  0  0
    7.8717   -0.0016   24.7596 H   0  0  0  0  0  0  0  0  0  0  0  0
    4.3785    2.0113   17.4257 H   0  0  0  0  0  0  0  0  0  0  0  0
    5.6763    0.7332   22.0915 H   0  0  0  0  0  0  0  0  0  0  0  0
    9.5443   -4.5616   23.7817 H   0  0  0  0  0  0  0  0  0  0  0  0
    7.1921   -1.8821   26.1908 H   0  0  0  0  0  0  0  0  0  0  0  0
   14.8846   -2.4215   24.6710 H   0  0  0  0  0  0  0  0  0  0  0  0
   12.7889   -0.1853   21.6412 H   0  0  0  0  0  0  0  0  0  0  0  0
    7.0607   -6.2832   26.1812 H   0  0  0  0  0  0  0  0  0  0  0  0
    6.3096   -5.2194   24.9441 H   0  0  0  0  0  0  0  0  0  0  0  0
    7.8750   -6.0305   24.6002 H   0  0  0  0  0  0  0  0  0  0  0  0
    7.9297   -5.3236   27.8126 H   0  0  0  0  0  0  0  0  0  0  0  0
    9.3968   -4.3501   27.4569 H   0  0  0  0  0  0  0  0  0  0  0  0
    7.8398   -3.5297   27.8167 H   0  0  0  0  0  0  0  0  0  0  0  0
   10.4198    1.2578   24.0555 H   0  0  0  0  0  0  0  0  0  0  0  0
   11.0503    1.3920   22.4361 H   0  0  0  0  0  0  0  0  0  0  0  0
   10.5231   -0.9933   22.0106 H   0  0  0  0  0  0  0  0  0  0  0  0
    8.1038   -1.6155   21.0990 H   0  0  0  0  0  0  0  0  0  0  0  0
  1  2  1  0  0  0  0
  1  7  2  0  0  0  0
  2  8  2  0  0  0  0
  3  4  2  0  0  0  0
  3 11  1  0  0  0  0
  4 14  1  0  0  0  0
  5  9  2  0  0  0  0
  5 13  1  0  0  0  0
  6 10  1  0  0  0  0
  6 13  2  0  0  0  0
  7 15  1  0  0  0  0
  8 16  1  0  0  0  0
  9 17  1  0  0  0  0
 10 17  2  0  0  0  0
 11 18  2  0  0  0  0
 12 14  2  0  0  0  0
 12 18  1  0  0  0  0
 13 23  1  0  0  0  0
 14 22  1  0  0  0  0
 15 16  2  0  0  0  0
 15 24  1  0  0  0  0
 16 26  1  0  0  0  0
 17 28  1  0  0  0  0
 18 30  1  0  0  0  0
 19 23  1  0  0  0  0
 19 27  1  0  0  0  0
 19 29  2  0  0  0  0
 20 28  1  0  0  0  0
 21 28  1  0  0  0  0
 22 23  1  6  0  0  0
 24 25  2  0  0  0  0
 25 26  1  0  0  0  0
 26 27  1  0  0  0  0
  1 31  1  0  0  0  0
  2 32  1  0  0  0  0
  3 33  1  0  0  0  0
  4 34  1  0  0  0  0
  5 35  1  0  0  0  0
  6 36  1  0  0  0  0
  7 37  1  0  0  0  0
  8 38  1  0  0  0  0
  9 39  1  0  0  0  0
 10 40  1  0  0  0  0
 11 41  1  0  0  0  0
 12 42  1  0  0  0  0
 20 43  1  0  0  0  0
 20 44  1  0  0  0  0
 20 45  1  0  0  0  0
 21 46  1  0  0  0  0
 21 47  1  0  0  0  0
 21 48  1  0  0  0  0
 22 49  1  0  0  0  0
 22 50  1  0  0  0  0
 23 51  1  0  0  0  0
 27 52  1  0  0  0  0
M  END
> <clash_score>
0

> <docking_score>
-6.885781288146973

> <overlap_score>
0.9345608353614807

$$$$
BENZO_171_1
  -OEChem-08222022443D

 52 55  0     1  0  0  0  0  0999 V2000
    3.8860    2.1050   19.5250 C   0  0  0  0  0  0  0  0  0  0  0  0
    4.2460    1.7520   20.8250 C   0  0  0  0  0  0  0  0  0  0  0  0
    9.5890   -2.4950   23.2210 C   0  0  0  0  0  0  0  0  0  0  0  0
    8.2550   -1.0010   24.5520 C   0  0  0  0  0  0  0  0  0  0  0  0
    4.6610    1.7170   18.4380 C   0  0  0  0  0  0  0  0  0  0  0  0
    5.3890    1.0010   21.0690 C   0  0  0  0  0  0  0  0  0  0  0  0
    9.1890   -3.5540   24.0140 C   0  0  0  0  0  0  0  0  0  0  0  0
    7.8700   -2.0610   25.3550 C   0  0  0  0  0  0  0  0  0  0  0  0
   13.2896    0.1726   23.3952 C   0  0  0  0  0  0  0  0  0  0  0  0
   12.3237   -0.5728   21.5659 C   0  0  0  0  0  0  0  0  0  0  0  0
    9.1280   -1.2090   23.4870 C   0  0  0  0  0  0  0  0  0  0  0  0
   12.0519    0.1077   22.7276 C   0  0  0  0  0  0  0  0  0  0  0  0
    5.7970    0.9500   18.6730 C   0  0  0  0  0  0  0  0  0  0  0  0
    6.1460    0.6070   19.9750 C   0  0  0  0  0  0  0  0  0  0  0  0
    8.3450   -3.3440   25.0980 C   0  0  0  0  0  0  0  0  0  0  0  0
    9.0430    0.2380   21.4940 C   0  0  0  0  0  0  0  0  0  0  0  0
   14.4085   -1.5736   20.6011 C   0  0  0  0  0  0  0  0  0  0  0  0
    7.2615   -5.5563   25.3804 C   0  0  0  0  0  0  0  0  0  0  0  0
    8.3045   -4.4045   27.3385 C   0  0  0  0  0  0  0  0  0  0  0  0
   10.7220    0.6590   23.1850 C   0  0  0  0  0  0  0  0  0  0  0  0
    9.5820   -0.1080   22.7000 C   0  0  1  0  0  0  0  0  0  0  0  0
   14.2744   -0.4196   22.7144 N   0  0  0  0  0  0  0  0  0  0  0  0
    6.7100    0.3850   17.8100 N   0  0  0  0  0  0  0  0  0  0  0  0
    7.5840   -0.2700   18.5160 N   0  0  0  0  0  0  0  0  0  0  0  0
   13.6557   -0.8631   21.6068 N   0  0  0  0  0  0  0  0  0  0  0  0
    7.2710   -0.1460   19.8310 N   0  0  0  0  0  0  0  0  0  0  0  0
    8.0950   -0.7700   20.8440 N   0  0  0  0  0  0  0  0  0  0  0  0
    7.9717   -4.4175   25.9277 N   0  0  0  0  0  0  0  0  0  0  0  0
    9.2950    1.3000   20.9480 O   0  0  0  0  0  0  0  0  0  0  0  0
    2.9846    2.6932   19.3610 H   0  0  0  0  0  0  0  0  0  0  0  0
    3.6235    2.0692   21.6570 H   0  0  0  0  0  0  0  0  0  0  0  0
   10.2684   -2.6719   22.3867 H   0  0  0  0  0  0  0  0  0  0  0  0
    7.8717   -0.0016   24.7596 H   0  0  0  0  0  0  0  0  0  0  0  0
    4.3785    2.0113   17.4257 H   0  0  0  0  0  0  0  0  0  0  0  0
    5.6763    0.7332   22.0915 H   0  0  0  0  0  0  0  0  0  0  0  0
    9.5443   -4.5616   23.7817 H   0  0  0  0  0  0  0  0  0  0  0  0
    7.1921   -1.8821   26.1908 H   0  0  0  0  0  0  0  0  0  0  0  0
   13.5173    0.6253   24.3499 H   0  0  0  0  0  0  0  0  0  0  0  0
   11.6981   -0.8689   20.7348 H   0  0  0  0  0  0  0  0  0  0  0  0
   14.7952   -0.8403   19.8885 H   0  0  0  0  0  0  0  0  0  0  0  0
   15.2310   -2.1150   21.0767 H   0  0  0  0  0  0  0  0  0  0  0  0
   13.7528   -2.2891   20.0972 H   0  0  0  0  0  0  0  0  0  0  0  0
    7.0607   -6.2832   26.1812 H   0  0  0  0  0  0  0  0  0  0  0  0
    6.3096   -5.2194   24.9441 H   0  0  0  0  0  0  0  0  0  0  0  0
    7.8750   -6.0305   24.6002 H   0  0  0  0  0  0  0  0  0  0  0  0
    7.9297   -5.3236   27.8126 H   0  0  0  0  0  0  0  0  0  0  0  0
    9.3968   -4.3501   27.4569 H   0  0  0  0  0  0  0  0  0  0  0  0
    7.8398   -3.5297   27.8167 H   0  0  0  0  0  0  0  0  0  0  0  0
   10.7195    0.6680   24.2839 H   0  0  0  0  0  0  0  0  0  0  0  0
   10.6395    1.7141   22.8921 H   0  0  0  0  0  0  0  0  0  0  0  0
    8.6943    0.7922   23.3819 H   0  0  0  0  0  0  0  0  0  0  0  0
    8.1038   -1.6155   21.0990 H   0  0  0  0  0  0  0  0  0  0  0  0
  1  2  1  0  0  0  0
  1  5  2  0  0  0  0
  2  6  2  0  0  0  0
  3  7  2  0  0  0  0
  3 11  1  0  0  0  0
  4  8  1  0  0  0  0
  4 11  2  0  0  0  0
  5 13  1  0  0  0  0
  6 14  1  0  0  0  0
  7 15  1  0  0  0  0
  8 15  2  0  0  0  0
  9 12  1  0  0  0  0
  9 22  2  0  0  0  0
 10 12  2  0  0  0  0
 10 25  1  0  0  0  0
 11 21  1  0  0  0  0
 12 20  1  0  0  0  0
 13 14  2  0  0  0  0
 13 23  1  0  0  0  0
 14 26  1  0  0  0  0
 15 28  1  0  0  0  0
 16 21  1  0  0  0  0
 16 27  1  0  0  0  0
 16 29  2  0  0  0  0
 17 25  1  0  0  0  0
 18 28  1  0  0  0  0
 19 28  1  0  0  0  0
 20 21  1  1  0  0  0
 22 25  1  0  0  0  0
 23 24  2  0  0  0  0
 24 26  1  0  0  0  0
 26 27  1  0  0  0  0
  1 30  1  0  0  0  0
  2 31  1  0  0  0  0
  3 32  1  0  0  0  0
  4 33  1  0  0  0  0
  5 34  1  0  0  0  0
  6 35  1  0  0  0  0
  7 36  1  0  0  0  0
  8 37  1  0  0  0  0
  9 38  1  0  0  0  0
 10 39  1  0  0  0  0
 17 40  1  0  0  0  0
 17 41  1  0  0  0  0
 17 42  1  0  0  0  0
 18 43  1  0  0  0  0
 18 44  1  0  0  0  0
 18 45  1  0  0  0  0
 19 46  1  0  0  0  0
 19 47  1  0  0  0  0
 19 48  1  0  0  0  0
 20 49  1  0  0  0  0
 20 50  1  0  0  0  0
 21 51  1  0  0  0  0
 27 52  1  0  0  0  0
M  END
> <clash_score>
0

> <docking_score>
-8.327624320983887

> <overlap_score>
0.9078220129013062

$$$$
BENZO_171_2
  -OEChem-08222022443D

 52 55  0     1  0  0  0  0  0999 V2000
    3.8860    2.1050   19.5250 C   0  0  0  0  0  0  0  0  0  0  0  0
    4.2460    1.7520   20.8250 C   0  0  0  0  0  0  0  0  0  0  0  0
    9.5890   -2.4950   23.2210 C   0  0  0  0  0  0  0  0  0  0  0  0
    8.2550   -1.0010   24.5520 C   0  0  0  0  0  0  0  0  0  0  0  0
    4.6610    1.7170   18.4380 C   0  0  0  0  0  0  0  0  0  0  0  0
    5.3890    1.0010   21.0690 C   0  0  0  0  0  0  0  0  0  0  0  0
    9.1890   -3.5540   24.0140 C   0  0  0  0  0  0  0  0  0  0  0  0
    7.8700   -2.0610   25.3550 C   0  0  0  0  0  0  0  0  0  0  0  0
   12.1546   -0.7527   24.8667 C   0  0  0  0  0  0  0  0  0  0  0  0
   12.9364   -0.6310   22.8152 C   0  0  0  0  0  0  0  0  0  0  0  0
    9.1280   -1.2090   23.4870 C   0  0  0  0  0  0  0  0  0  0  0  0
   11.8914   -0.2037   23.5974 C   0  0  0  0  0  0  0  0  0  0  0  0
    5.7970    0.9500   18.6730 C   0  0  0  0  0  0  0  0  0  0  0  0
    6.1460    0.6070   19.9750 C   0  0  0  0  0  0  0  0  0  0  0  0
    8.3450   -3.3440   25.0980 C   0  0  0  0  0  0  0  0  0  0  0  0
    9.0430    0.2380   21.4940 C   0  0  0  0  0  0  0  0  0  0  0  0
   14.9563   -2.0460   23.2586 C   0  0  0  0  0  0  0  0  0  0  0  0
    7.2615   -5.5563   25.3804 C   0  0  0  0  0  0  0  0  0  0  0  0
    8.3045   -4.4045   27.3385 C   0  0  0  0  0  0  0  0  0  0  0  0
   10.7220    0.6590   23.1850 C   0  0  0  0  0  0  0  0  0  0  0  0
    9.5820   -0.1080   22.7000 C   0  0  2  0  0  0  0  0  0  0  0  0
   13.2786   -1.4738   24.8937 N   0  0  0  0  0  0  0  0  0  0  0  0
    6.7100    0.3850   17.8100 N   0  0  0  0  0  0  0  0  0  0  0  0
    7.5840   -0.2700   18.5160 N   0  0  0  0  0  0  0  0  0  0  0  0
   13.7309   -1.3809   23.6316 N   0  0  0  0  0  0  0  0  0  0  0  0
    7.2710   -0.1460   19.8310 N   0  0  0  0  0  0  0  0  0  0  0  0
    8.0950   -0.7700   20.8440 N   0  0  0  0  0  0  0  0  0  0  0  0
    7.9717   -4.4175   25.9277 N   0  0  0  0  0  0  0  0  0  0  0  0
    9.2950    1.3000   20.9480 O   0  0  0  0  0  0  0  0  0  0  0  0
    2.9846    2.6932   19.3610 H   0  0  0  0  0  0  0  0  0  0  0  0
    3.6235    2.0692   21.6570 H   0  0  0  0  0  0  0  0  0  0  0  0
   10.2684   -2.6719   22.3867 H   0  0  0  0  0  0  0  0  0  0  0  0
    7.8717   -0.0016   24.7596 H   0  0  0  0  0  0  0  0  0  0  0  0
    4.3785    2.0113   17.4257 H   0  0  0  0  0  0  0  0  0  0  0  0
    5.6763    0.7332   22.0915 H   0  0  0  0  0  0  0  0  0  0  0  0
    9.5443   -4.5616   23.7817 H   0  0  0  0  0  0  0  0  0  0  0  0
    7.1921   -1.8821   26.1908 H   0  0  0  0  0  0  0  0  0  0  0  0
   11.5753   -0.6595   25.7744 H   0  0  0  0  0  0  0  0  0  0  0  0
   13.1758   -0.4703   21.7727 H   0  0  0  0  0  0  0  0  0  0  0  0
   15.7825   -1.3505   23.4278 H   0  0  0  0  0  0  0  0  0  0  0  0
   15.0826   -2.9452   23.8680 H   0  0  0  0  0  0  0  0  0  0  0  0
   14.9057   -2.3321   22.2043 H   0  0  0  0  0  0  0  0  0  0  0  0
    7.0607   -6.2832   26.1812 H   0  0  0  0  0  0  0  0  0  0  0  0
    6.3096   -5.2194   24.9441 H   0  0  0  0  0  0  0  0  0  0  0  0
    7.8750   -6.0305   24.6002 H   0  0  0  0  0  0  0  0  0  0  0  0
    7.9297   -5.3236   27.8126 H   0  0  0  0  0  0  0  0  0  0  0  0
    9.3968   -4.3501   27.4569 H   0  0  0  0  0  0  0  0  0  0  0  0
    7.8398   -3.5297   27.8167 H   0  0  0  0  0  0  0  0  0  0  0  0
   10.4198    1.2578   24.0555 H   0  0  0  0  0  0  0  0  0  0  0  0
   11.0503    1.3920   22.4361 H   0  0  0  0  0  0  0  0  0  0  0  0
   10.5231   -0.9933   22.0106 H   0  0  0  0  0  0  0  0  0  0  0  0
    8.1038   -1.6155   21.0990 H   0  0  0  0  0  0  0  0  0  0  0  0
  1  2  1  0  0  0  0
  1  5  2  0  0  0  0
  2  6  2  0  0  0  0
  3  7  2  0  0  0  0
  3 11  1  0  0  0  0
  4  8  1  0  0  0  0
  4 11  2  0  0  0  0
  5 13  1  0  0  0  0
  6 14  1  0  0  0  0
  7 15  1  0  0  0  0
  8 15  2  0  0  0  0
  9 12  1  0  0  0  0
  9 22  2  0  0  0  0
 10 12  2  0  0  0  0
 10 25  1  0  0  0  0
 11 21  1  0  0  0  0
 12 20  1  0  0  0  0
 13 14  2  0  0  0  0
 13 23  1  0  0  0  0
 14 26  1  0  0  0  0
 15 28  1  0  0  0  0
 16 21  1  0  0  0  0
 16 27  1  0  0  0  0
 16 29  2  0  0  0  0
 17 25  1  0  0  0  0
 18 28  1  0  0  0  0
 19 28  1  0  0  0  0
 20 21  1  6  0  0  0
 22 25  1  0  0  0  0
 23 24  2  0  0  0  0
 24 26  1  0  0  0  0
 26 27  1  0  0  0  0
  1 30  1  0  0  0  0
  2 31  1  0  0  0  0
  3 32  1  0  0  0  0
  4 33  1  0  0  0  0
  5 34  1  0  0  0  0
  6 35  1  0  0  0  0
  7 36  1  0  0  0  0
  8 37  1  0  0  0  0
  9 38  1  0  0  0  0
 10 39  1  0  0  0  0
 17 40  1  0  0  0  0
 17 41  1  0  0  0  0
 17 42  1  0  0  0  0
 18 43  1  0  0  0  0
 18 44  1  0  0  0  0
 18 45  1  0  0  0  0
 19 46  1  0  0  0  0
 19 47  1  0  0  0  0
 19 48  1  0  0  0  0
 20 49  1  0  0  0  0
 20 50  1  0  0  0  0
 21 51  1  0  0  0  0
 27 52  1  0  0  0  0
M  END
> <clash_score>
0

> <docking_score>
-6.812842845916748

> <overlap_score>
0.93050616979599

$$$$
BENZO_173_1
  -OEChem-08222022443D

 54 57  0     1  0  0  0  0  0999 V2000
   14.5077   -0.9101   21.8815 C   0  0  0  0  0  0  0  0  0  0  0  0
   13.9442   -1.3531   23.0780 C   0  0  0  0  0  0  0  0  0  0  0  0
   13.8435    0.0419   21.1080 C   0  0  0  0  0  0  0  0  0  0  0  0
    3.8860    2.1050   19.5250 C   0  0  0  0  0  0  0  0  0  0  0  0
    4.2460    1.7520   20.8250 C   0  0  0  0  0  0  0  0  0  0  0  0
   12.7163   -0.8442   23.5011 C   0  0  0  0  0  0  0  0  0  0  0  0
   12.6156    0.5507   21.5310 C   0  0  0  0  0  0  0  0  0  0  0  0
    9.5890   -2.4950   23.2210 C   0  0  0  0  0  0  0  0  0  0  0  0
    8.2550   -1.0010   24.5520 C   0  0  0  0  0  0  0  0  0  0  0  0
    4.6610    1.7170   18.4380 C   0  0  0  0  0  0  0  0  0  0  0  0
    5.3890    1.0010   21.0690 C   0  0  0  0  0  0  0  0  0  0  0  0
    9.1890   -3.5540   24.0140 C   0  0  0  0  0  0  0  0  0  0  0  0
    7.8700   -2.0610   25.3550 C   0  0  0  0  0  0  0  0  0  0  0  0
   12.0519    0.1077   22.7276 C   0  0  0  0  0  0  0  0  0  0  0  0
    9.1280   -1.2090   23.4870 C   0  0  0  0  0  0  0  0  0  0  0  0
    5.7970    0.9500   18.6730 C   0  0  0  0  0  0  0  0  0  0  0  0
    6.1460    0.6070   19.9750 C   0  0  0  0  0  0  0  0  0  0  0  0
    8.3450   -3.3440   25.0980 C   0  0  0  0  0  0  0  0  0  0  0  0
    8.2026   -4.5566   27.2975 C   0  0  0  0  0  0  0  0  0  0  0  0
    9.0430    0.2380   21.4940 C   0  0  0  0  0  0  0  0  0  0  0  0
    7.8889   -6.0881   29.2879 C   0  0  0  0  0  0  0  0  0  0  0  0
   10.7220    0.6590   23.1850 C   0  0  0  0  0  0  0  0  0  0  0  0
    7.6343   -5.8728   27.8068 C   0  0  0  0  0  0  0  0  0  0  0  0
    9.5820   -0.1080   22.7000 C   0  0  1  0  0  0  0  0  0  0  0  0
    6.7100    0.3850   17.8100 N   0  0  0  0  0  0  0  0  0  0  0  0
    7.5840   -0.2700   18.5160 N   0  0  0  0  0  0  0  0  0  0  0  0
    7.2710   -0.1460   19.8310 N   0  0  0  0  0  0  0  0  0  0  0  0
    7.9771   -4.4057   25.9197 N   0  0  0  0  0  0  0  0  0  0  0  0
    8.0950   -0.7700   20.8440 N   0  0  0  0  0  0  0  0  0  0  0  0
    8.7749   -3.7648   28.0392 O   0  0  0  0  0  0  0  0  0  0  0  0
    9.2950    1.3000   20.9480 O   0  0  0  0  0  0  0  0  0  0  0  0
   15.4645   -1.3054   21.5529 H   0  0  0  0  0  0  0  0  0  0  0  0
   14.4618   -2.0934   23.6809 H   0  0  0  0  0  0  0  0  0  0  0  0
   14.2825    0.3878   20.1769 H   0  0  0  0  0  0  0  0  0  0  0  0
    2.9846    2.6932   19.3610 H   0  0  0  0  0  0  0  0  0  0  0  0
    3.6235    2.0692   21.6570 H   0  0  0  0  0  0  0  0  0  0  0  0
   12.2846   -1.1954   24.4347 H   0  0  0  0  0  0  0  0  0  0  0  0
   12.1051    1.2920   20.9218 H   0  0  0  0  0  0  0  0  0  0  0  0
   10.2695   -2.6718   22.3873 H   0  0  0  0  0  0  0  0  0  0  0  0
    7.8712   -0.0014   24.7587 H   0  0  0  0  0  0  0  0  0  0  0  0
    4.3785    2.0113   17.4257 H   0  0  0  0  0  0  0  0  0  0  0  0
    5.6763    0.7332   22.0915 H   0  0  0  0  0  0  0  0  0  0  0  0
    9.5431   -4.5618   23.7801 H   0  0  0  0  0  0  0  0  0  0  0  0
    7.1923   -1.8823   26.1912 H   0  0  0  0  0  0  0  0  0  0  0  0
    8.9617   -6.0835   29.5073 H   0  0  0  0  0  0  0  0  0  0  0  0
    7.4783   -7.0503   29.6092 H   0  0  0  0  0  0  0  0  0  0  0  0
    7.4206   -5.2995   29.8861 H   0  0  0  0  0  0  0  0  0  0  0  0
   10.7195    0.6680   24.2839 H   0  0  0  0  0  0  0  0  0  0  0  0
   10.6395    1.7141   22.8921 H   0  0  0  0  0  0  0  0  0  0  0  0
    6.5549   -5.8820   27.6165 H   0  0  0  0  0  0  0  0  0  0  0  0
    8.0869   -6.6912   27.2352 H   0  0  0  0  0  0  0  0  0  0  0  0
    8.6943    0.7922   23.3819 H   0  0  0  0  0  0  0  0  0  0  0  0
    7.4775   -5.1797   25.4665 H   0  0  0  0  0  0  0  0  0  0  0  0
    8.1038   -1.6155   21.0990 H   0  0  0  0  0  0  0  0  0  0  0  0
  1  2  1  0  0  0  0
  1  3  2  0  0  0  0
  2  6  2  0  0  0  0
  3  7  1  0  0  0  0
  4  5  1  0  0  0  0
  4 10  2  0  0  0  0
  5 11  2  0  0  0  0
  6 14  1  0  0  0  0
  7 14  2  0  0  0  0
  8 12  2  0  0  0  0
  8 15  1  0  0  0  0
  9 13  1  0  0  0  0
  9 15  2  0  0  0  0
 10 16  1  0  0  0  0
 11 17  1  0  0  0  0
 12 18  1  0  0  0  0
 13 18  2  0  0  0  0
 14 22  1  0  0  0  0
 15 24  1  0  0  0  0
 16 17  2  0  0  0  0
 16 25  1  0  0  0  0
 17 27  1  0  0  0  0
 18 28  1  0  0  0  0
 19 23  1  0  0  0  0
 19 28  1  0  0  0  0
 19 30  2  0  0  0  0
 20 24  1  0  0  0  0
 20 29  1  0  0  0  0
 20 31  2  0  0  0  0
 21 23  1  0  0  0  0
 22 24  1  1  0  0  0
 25 26  2  0  0  0  0
 26 27  1  0  0  0  0
 27 29  1  0  0  0  0
  1 32  1  0  0  0  0
  2 33  1  0  0  0  0
  3 34  1  0  0  0  0
  4 35  1  0  0  0  0
  5 36  1  0  0  0  0
  6 37  1  0  0  0  0
  7 38  1  0  0  0  0
  8 39  1  0  0  0  0
  9 40  1  0  0  0  0
 10 41  1  0  0  0  0
 11 42  1  0  0  0  0
 12 43  1  0  0  0  0
 13 44  1  0  0  0  0
 21 45  1  0  0  0  0
 21 46  1  0  0  0  0
 21 47  1  0  0  0  0
 22 48  1  0  0  0  0
 22 49  1  0  0  0  0
 23 50  1  0  0  0  0
 23 51  1  0  0  0  0
 24 52  1  0  0  0  0
 28 53  1  0  0  0  0
 29 54  1  0  0  0  0
M  END
> <clash_score>
0

> <docking_score>
-7.124138355255127

> <overlap_score>
0.9704540371894836

$$$$
BENZO_173_2
  -OEChem-08222022443D

 54 57  0     1  0  0  0  0  0999 V2000
   14.0513   -1.7974   24.3577 C   0  0  0  0  0  0  0  0  0  0  0  0
   13.0726   -1.4574   25.2916 C   0  0  0  0  0  0  0  0  0  0  0  0
   13.9501   -1.3405   23.0436 C   0  0  0  0  0  0  0  0  0  0  0  0
    3.8860    2.1050   19.5250 C   0  0  0  0  0  0  0  0  0  0  0  0
    4.2460    1.7520   20.8250 C   0  0  0  0  0  0  0  0  0  0  0  0
   11.9927   -0.6606   24.9115 C   0  0  0  0  0  0  0  0  0  0  0  0
   12.8701   -0.5437   22.6635 C   0  0  0  0  0  0  0  0  0  0  0  0
    9.5890   -2.4950   23.2210 C   0  0  0  0  0  0  0  0  0  0  0  0
    8.2550   -1.0010   24.5520 C   0  0  0  0  0  0  0  0  0  0  0  0
    4.6610    1.7170   18.4380 C   0  0  0  0  0  0  0  0  0  0  0  0
    5.3890    1.0010   21.0690 C   0  0  0  0  0  0  0  0  0  0  0  0
    9.1890   -3.5540   24.0140 C   0  0  0  0  0  0  0  0  0  0  0  0
    7.8700   -2.0610   25.3550 C   0  0  0  0  0  0  0  0  0  0  0  0
   11.8914   -0.2037   23.5974 C   0  0  0  0  0  0  0  0  0  0  0  0
    9.1280   -1.2090   23.4870 C   0  0  0  0  0  0  0  0  0  0  0  0
    5.7970    0.9500   18.6730 C   0  0  0  0  0  0  0  0  0  0  0  0
    6.1460    0.6070   19.9750 C   0  0  0  0  0  0  0  0  0  0  0  0
    8.3450   -3.3440   25.0980 C   0  0  0  0  0  0  0  0  0  0  0  0
    7.6607   -4.3765   27.2876 C   0  0  0  0  0  0  0  0  0  0  0  0
    9.0430    0.2380   21.4940 C   0  0  0  0  0  0  0  0  0  0  0  0
    8.4364   -6.7651   27.6016 C   0  0  0  0  0  0  0  0  0  0  0  0
   10.7220    0.6590   23.1850 C   0  0  0  0  0  0  0  0  0  0  0  0
    7.3113   -5.7655   27.8009 C   0  0  0  0  0  0  0  0  0  0  0  0
    9.5820   -0.1080   22.7000 C   0  0  2  0  0  0  0  0  0  0  0  0
    6.7100    0.3850   17.8100 N   0  0  0  0  0  0  0  0  0  0  0  0
    7.5840   -0.2700   18.5160 N   0  0  0  0  0  0  0  0  0  0  0  0
    7.2710   -0.1460   19.8310 N   0  0  0  0  0  0  0  0  0  0  0  0
    7.9771   -4.4057   25.9197 N   0  0  0  0  0  0  0  0  0  0  0  0
    8.0950   -0.7700   20.8440 N   0  0  0  0  0  0  0  0  0  0  0  0
    7.6510   -3.3914   28.0184 O   0  0  0  0  0  0  0  0  0  0  0  0
    9.2950    1.3000   20.9480 O   0  0  0  0  0  0  0  0  0  0  0  0
   14.8928   -2.4167   24.6542 H   0  0  0  0  0  0  0  0  0  0  0  0
   13.1518   -1.8121   26.3151 H   0  0  0  0  0  0  0  0  0  0  0  0
   14.7124   -1.6041   22.3165 H   0  0  0  0  0  0  0  0  0  0  0  0
    2.9846    2.6932   19.3610 H   0  0  0  0  0  0  0  0  0  0  0  0
    3.6235    2.0692   21.6570 H   0  0  0  0  0  0  0  0  0  0  0  0
   11.2348   -0.4008   25.6459 H   0  0  0  0  0  0  0  0  0  0  0  0
   12.7995   -0.1925   21.6375 H   0  0  0  0  0  0  0  0  0  0  0  0
   10.2695   -2.6718   22.3873 H   0  0  0  0  0  0  0  0  0  0  0  0
    7.8712   -0.0014   24.7587 H   0  0  0  0  0  0  0  0  0  0  0  0
    4.3785    2.0113   17.4257 H   0  0  0  0  0  0  0  0  0  0  0  0
    5.6763    0.7332   22.0915 H   0  0  0  0  0  0  0  0  0  0  0  0
    9.5431   -4.5618   23.7801 H   0  0  0  0  0  0  0  0  0  0  0  0
    7.1923   -1.8823   26.1912 H   0  0  0  0  0  0  0  0  0  0  0  0
    8.6959   -6.8591   26.5420 H   0  0  0  0  0  0  0  0  0  0  0  0
    8.1391   -7.7519   27.9697 H   0  0  0  0  0  0  0  0  0  0  0  0
    9.3373   -6.4558   28.1416 H   0  0  0  0  0  0  0  0  0  0  0  0
   10.4198    1.2578   24.0555 H   0  0  0  0  0  0  0  0  0  0  0  0
   11.0503    1.3920   22.4361 H   0  0  0  0  0  0  0  0  0  0  0  0
    7.0728   -5.6917   28.8682 H   0  0  0  0  0  0  0  0  0  0  0  0
    6.4147   -6.1147   27.2759 H   0  0  0  0  0  0  0  0  0  0  0  0
   10.5231   -0.9933   22.0106 H   0  0  0  0  0  0  0  0  0  0  0  0
    7.9296   -5.3298   25.4749 H   0  0  0  0  0  0  0  0  0  0  0  0
    8.1038   -1.6155   21.0990 H   0  0  0  0  0  0  0  0  0  0  0  0
  1  2  1  0  0  0  0
  1  3  2  0  0  0  0
  2  6  2  0  0  0  0
  3  7  1  0  0  0  0
  4  5  1  0  0  0  0
  4 10  2  0  0  0  0
  5 11  2  0  0  0  0
  6 14  1  0  0  0  0
  7 14  2  0  0  0  0
  8 12  2  0  0  0  0
  8 15  1  0  0  0  0
  9 13  1  0  0  0  0
  9 15  2  0  0  0  0
 10 16  1  0  0  0  0
 11 17  1  0  0  0  0
 12 18  1  0  0  0  0
 13 18  2  0  0  0  0
 14 22  1  0  0  0  0
 15 24  1  0  0  0  0
 16 17  2  0  0  0  0
 16 25  1  0  0  0  0
 17 27  1  0  0  0  0
 18 28  1  0  0  0  0
 19 23  1  0  0  0  0
 19 28  1  0  0  0  0
 19 30  2  0  0  0  0
 20 24  1  0  0  0  0
 20 29  1  0  0  0  0
 20 31  2  0  0  0  0
 21 23  1  0  0  0  0
 22 24  1  6  0  0  0
 25 26  2  0  0  0  0
 26 27  1  0  0  0  0
 27 29  1  0  0  0  0
  1 32  1  0  0  0  0
  2 33  1  0  0  0  0
  3 34  1  0  0  0  0
  4 35  1  0  0  0  0
  5 36  1  0  0  0  0
  6 37  1  0  0  0  0
  7 38  1  0  0  0  0
  8 39  1  0  0  0  0
  9 40  1  0  0  0  0
 10 41  1  0  0  0  0
 11 42  1  0  0  0  0
 12 43  1  0  0  0  0
 13 44  1  0  0  0  0
 21 45  1  0  0  0  0
 21 46  1  0  0  0  0
 21 47  1  0  0  0  0
 22 48  1  0  0  0  0
 22 49  1  0  0  0  0
 23 50  1  0  0  0  0
 23 51  1  0  0  0  0
 24 52  1  0  0  0  0
 28 53  1  0  0  0  0
 29 54  1  0  0  0  0
M  END
> <clash_score>
0

> <docking_score>
-7.5297417640686035

> <overlap_score>
0.9679391384124756

$$$$
BENZO_172_1
  -OEChem-08222022443D

 51 54  0     1  0  0  0  0  0999 V2000
    3.8860    2.1050   19.5250 C   0  0  0  0  0  0  0  0  0  0  0  0
    4.2460    1.7520   20.8250 C   0  0  0  0  0  0  0  0  0  0  0  0
    9.5890   -2.4950   23.2210 C   0  0  0  0  0  0  0  0  0  0  0  0
    8.2550   -1.0010   24.5520 C   0  0  0  0  0  0  0  0  0  0  0  0
    4.6610    1.7170   18.4380 C   0  0  0  0  0  0  0  0  0  0  0  0
    5.3890    1.0010   21.0690 C   0  0  0  0  0  0  0  0  0  0  0  0
    9.1890   -3.5540   24.0140 C   0  0  0  0  0  0  0  0  0  0  0  0
    7.8700   -2.0610   25.3550 C   0  0  0  0  0  0  0  0  0  0  0  0
   13.0855   -0.3117   23.6141 C   0  0  0  0  0  0  0  0  0  0  0  0
   14.1930   -0.7722   22.9367 C   0  0  0  0  0  0  0  0  0  0  0  0
   12.4091   -0.0480   21.4061 C   0  0  0  0  0  0  0  0  0  0  0  0
    9.1280   -1.2090   23.4870 C   0  0  0  0  0  0  0  0  0  0  0  0
   12.0519    0.1077   22.7276 C   0  0  0  0  0  0  0  0  0  0  0  0
    5.7970    0.9500   18.6730 C   0  0  0  0  0  0  0  0  0  0  0  0
    6.1460    0.6070   19.9750 C   0  0  0  0  0  0  0  0  0  0  0  0
    8.3450   -3.3440   25.0980 C   0  0  0  0  0  0  0  0  0  0  0  0
    8.2026   -4.5566   27.2975 C   0  0  0  0  0  0  0  0  0  0  0  0
    9.0430    0.2380   21.4940 C   0  0  0  0  0  0  0  0  0  0  0  0
    7.8889   -6.0881   29.2879 C   0  0  0  0  0  0  0  0  0  0  0  0
   10.7220    0.6590   23.1850 C   0  0  0  0  0  0  0  0  0  0  0  0
    7.6343   -5.8728   27.8068 C   0  0  0  0  0  0  0  0  0  0  0  0
    9.5820   -0.1080   22.7000 C   0  0  1  0  0  0  0  0  0  0  0  0
    6.7100    0.3850   17.8100 N   0  0  0  0  0  0  0  0  0  0  0  0
    7.5840   -0.2700   18.5160 N   0  0  0  0  0  0  0  0  0  0  0  0
    7.2710   -0.1460   19.8310 N   0  0  0  0  0  0  0  0  0  0  0  0
    7.9771   -4.4057   25.9197 N   0  0  0  0  0  0  0  0  0  0  0  0
    8.0950   -0.7700   20.8440 N   0  0  0  0  0  0  0  0  0  0  0  0
    8.7749   -3.7648   28.0392 O   0  0  0  0  0  0  0  0  0  0  0  0
    9.2950    1.3000   20.9480 O   0  0  0  0  0  0  0  0  0  0  0  0
   13.9845   -0.6978   21.2387 S   0  0  0  0  0  0  0  0  0  0  0  0
    2.9846    2.6932   19.3610 H   0  0  0  0  0  0  0  0  0  0  0  0
    3.6235    2.0692   21.6570 H   0  0  0  0  0  0  0  0  0  0  0  0
   10.2695   -2.6718   22.3873 H   0  0  0  0  0  0  0  0  0  0  0  0
    7.8712   -0.0014   24.7587 H   0  0  0  0  0  0  0  0  0  0  0  0
    4.3785    2.0113   17.4257 H   0  0  0  0  0  0  0  0  0  0  0  0
    5.6763    0.7332   22.0915 H   0  0  0  0  0  0  0  0  0  0  0  0
    9.5431   -4.5618   23.7801 H   0  0  0  0  0  0  0  0  0  0  0  0
    7.1923   -1.8823   26.1912 H   0  0  0  0  0  0  0  0  0  0  0  0
   13.0241   -0.2787   24.6946 H   0  0  0  0  0  0  0  0  0  0  0  0
   15.1149   -1.1481   23.3576 H   0  0  0  0  0  0  0  0  0  0  0  0
   11.8238    0.1885   20.5283 H   0  0  0  0  0  0  0  0  0  0  0  0
    8.9617   -6.0835   29.5073 H   0  0  0  0  0  0  0  0  0  0  0  0
    7.4783   -7.0503   29.6092 H   0  0  0  0  0  0  0  0  0  0  0  0
    7.4206   -5.2995   29.8861 H   0  0  0  0  0  0  0  0  0  0  0  0
   10.7195    0.6680   24.2839 H   0  0  0  0  0  0  0  0  0  0  0  0
   10.6395    1.7141   22.8921 H   0  0  0  0  0  0  0  0  0  0  0  0
    6.5549   -5.8820   27.6165 H   0  0  0  0  0  0  0  0  0  0  0  0
    8.0869   -6.6912   27.2352 H   0  0  0  0  0  0  0  0  0  0  0  0
    8.6943    0.7922   23.3819 H   0  0  0  0  0  0  0  0  0  0  0  0
    7.4775   -5.1797   25.4665 H   0  0  0  0  0  0  0  0  0  0  0  0
    8.1038   -1.6155   21.0990 H   0  0  0  0  0  0  0  0  0  0  0  0
  1  2  1  0  0  0  0
  1  5  2  0  0  0  0
  2  6  2  0  0  0  0
  3  7  2  0  0  0  0
  3 12  1  0  0  0  0
  4  8  1  0  0  0  0
  4 12  2  0  0  0  0
  5 14  1  0  0  0  0
  6 15  1  0  0  0  0
  7 16  1  0  0  0  0
  8 16  2  0  0  0  0
  9 10  2  0  0  0  0
  9 13  1  0  0  0  0
 10 30  1  0  0  0  0
 11 13  2  0  0  0  0
 11 30  1  0  0  0  0
 12 22  1  0  0  0  0
 13 20  1  0  0  0  0
 14 15  2  0  0  0  0
 14 23  1  0  0  0  0
 15 25  1  0  0  0  0
 16 26  1  0  0  0  0
 17 21  1  0  0  0  0
 17 26  1  0  0  0  0
 17 28  2  0  0  0  0
 18 22  1  0  0  0  0
 18 27  1  0  0  0  0
 18 29  2  0  0  0  0
 19 21  1  0  0  0  0
 20 22  1  1  0  0  0
 23 24  2  0  0  0  0
 24 25  1  0  0  0  0
 25 27  1  0  0  0  0
  1 31  1  0  0  0  0
  2 32  1  0  0  0  0
  3 33  1  0  0  0  0
  4 34  1  0  0  0  0
  5 35  1  0  0  0  0
  6 36  1  0  0  0  0
  7 37  1  0  0  0  0
  8 38  1  0  0  0  0
  9 39  1  0  0  0  0
 10 40  1  0  0  0  0
 11 41  1  0  0  0  0
 19 42  1  0  0  0  0
 19 43  1  0  0  0  0
 19 44  1  0  0  0  0
 20 45  1  0  0  0  0
 20 46  1  0  0  0  0
 21 47  1  0  0  0  0
 21 48  1  0  0  0  0
 22 49  1  0  0  0  0
 26 50  1  0  0  0  0
 27 51  1  0  0  0  0
M  END
> <clash_score>
0

> <docking_score>
-7.189075946807861

> <overlap_score>
0.9610059857368469

$$$$
BENZO_172_2
  -OEChem-08222022443D

 51 54  0     1  0  0  0  0  0999 V2000
    3.8860    2.1050   19.5250 C   0  0  0  0  0  0  0  0  0  0  0  0
    4.2460    1.7520   20.8250 C   0  0  0  0  0  0  0  0  0  0  0  0
    9.5890   -2.4950   23.2210 C   0  0  0  0  0  0  0  0  0  0  0  0
    8.2550   -1.0010   24.5520 C   0  0  0  0  0  0  0  0  0  0  0  0
    4.6610    1.7170   18.4380 C   0  0  0  0  0  0  0  0  0  0  0  0
    5.3890    1.0010   21.0690 C   0  0  0  0  0  0  0  0  0  0  0  0
    9.1890   -3.5540   24.0140 C   0  0  0  0  0  0  0  0  0  0  0  0
    7.8700   -2.0610   25.3550 C   0  0  0  0  0  0  0  0  0  0  0  0
   12.5521   -1.1164   22.7252 C   0  0  0  0  0  0  0  0  0  0  0  0
   13.5845   -1.7774   23.3535 C   0  0  0  0  0  0  0  0  0  0  0  0
   12.4440   -0.2022   24.8594 C   0  0  0  0  0  0  0  0  0  0  0  0
    9.1280   -1.2090   23.4870 C   0  0  0  0  0  0  0  0  0  0  0  0
   11.8914   -0.2037   23.5974 C   0  0  0  0  0  0  0  0  0  0  0  0
    5.7970    0.9500   18.6730 C   0  0  0  0  0  0  0  0  0  0  0  0
    6.1460    0.6070   19.9750 C   0  0  0  0  0  0  0  0  0  0  0  0
    8.3450   -3.3440   25.0980 C   0  0  0  0  0  0  0  0  0  0  0  0
    7.1421   -4.3818   27.0485 C   0  0  0  0  0  0  0  0  0  0  0  0
    9.0430    0.2380   21.4940 C   0  0  0  0  0  0  0  0  0  0  0  0
    5.6766   -5.9650   28.3720 C   0  0  0  0  0  0  0  0  0  0  0  0
   10.7220    0.6590   23.1850 C   0  0  0  0  0  0  0  0  0  0  0  0
    7.0021   -5.7686   27.6584 C   0  0  0  0  0  0  0  0  0  0  0  0
    9.5820   -0.1080   22.7000 C   0  0  2  0  0  0  0  0  0  0  0  0
    6.7100    0.3850   17.8100 N   0  0  0  0  0  0  0  0  0  0  0  0
    7.5840   -0.2700   18.5160 N   0  0  0  0  0  0  0  0  0  0  0  0
    7.2710   -0.1460   19.8310 N   0  0  0  0  0  0  0  0  0  0  0  0
    7.9771   -4.4057   25.9197 N   0  0  0  0  0  0  0  0  0  0  0  0
    8.0950   -0.7700   20.8440 N   0  0  0  0  0  0  0  0  0  0  0  0
    6.5755   -3.4026   27.5224 O   0  0  0  0  0  0  0  0  0  0  0  0
    9.2950    1.3000   20.9480 O   0  0  0  0  0  0  0  0  0  0  0  0
   13.7539   -1.2974   24.9886 S   0  0  0  0  0  0  0  0  0  0  0  0
    2.9846    2.6932   19.3610 H   0  0  0  0  0  0  0  0  0  0  0  0
    3.6235    2.0692   21.6570 H   0  0  0  0  0  0  0  0  0  0  0  0
   10.2695   -2.6718   22.3873 H   0  0  0  0  0  0  0  0  0  0  0  0
    7.8712   -0.0014   24.7587 H   0  0  0  0  0  0  0  0  0  0  0  0
    4.3785    2.0113   17.4257 H   0  0  0  0  0  0  0  0  0  0  0  0
    5.6763    0.7332   22.0915 H   0  0  0  0  0  0  0  0  0  0  0  0
    9.5431   -4.5618   23.7801 H   0  0  0  0  0  0  0  0  0  0  0  0
    7.1923   -1.8823   26.1912 H   0  0  0  0  0  0  0  0  0  0  0  0
   12.2866   -1.2830   21.6889 H   0  0  0  0  0  0  0  0  0  0  0  0
   14.2469   -2.5196   22.9310 H   0  0  0  0  0  0  0  0  0  0  0  0
   12.1435    0.3872   25.7147 H   0  0  0  0  0  0  0  0  0  0  0  0
    5.5520   -5.2344   29.1782 H   0  0  0  0  0  0  0  0  0  0  0  0
    5.6232   -6.9674   28.8077 H   0  0  0  0  0  0  0  0  0  0  0  0
    4.8363   -5.8476   27.6799 H   0  0  0  0  0  0  0  0  0  0  0  0
   10.4198    1.2578   24.0555 H   0  0  0  0  0  0  0  0  0  0  0  0
   11.0503    1.3920   22.4361 H   0  0  0  0  0  0  0  0  0  0  0  0
    7.0999   -6.5115   26.8584 H   0  0  0  0  0  0  0  0  0  0  0  0
    7.8247   -5.9216   28.3664 H   0  0  0  0  0  0  0  0  0  0  0  0
   10.5231   -0.9933   22.0106 H   0  0  0  0  0  0  0  0  0  0  0  0
    8.3622   -5.3253   25.6745 H   0  0  0  0  0  0  0  0  0  0  0  0
    8.1038   -1.6155   21.0990 H   0  0  0  0  0  0  0  0  0  0  0  0
  1  2  1  0  0  0  0
  1  5  2  0  0  0  0
  2  6  2  0  0  0  0
  3  7  2  0  0  0  0
  3 12  1  0  0  0  0
  4  8  1  0  0  0  0
  4 12  2  0  0  0  0
  5 14  1  0  0  0  0
  6 15  1  0  0  0  0
  7 16  1  0  0  0  0
  8 16  2  0  0  0  0
  9 10  2  0  0  0  0
  9 13  1  0  0  0  0
 10 30  1  0  0  0  0
 11 13  2  0  0  0  0
 11 30  1  0  0  0  0
 12 22  1  0  0  0  0
 13 20  1  0  0  0  0
 14 15  2  0  0  0  0
 14 23  1  0  0  0  0
 15 25  1  0  0  0  0
 16 26  1  0  0  0  0
 17 21  1  0  0  0  0
 17 26  1  0  0  0  0
 17 28  2  0  0  0  0
 18 22  1  0  0  0  0
 18 27  1  0  0  0  0
 18 29  2  0  0  0  0
 19 21  1  0  0  0  0
 20 22  1  6  0  0  0
 23 24  2  0  0  0  0
 24 25  1  0  0  0  0
 25 27  1  0  0  0  0
  1 31  1  0  0  0  0
  2 32  1  0  0  0  0
  3 33  1  0  0  0  0
  4 34  1  0  0  0  0
  5 35  1  0  0  0  0
  6 36  1  0  0  0  0
  7 37  1  0  0  0  0
  8 38  1  0  0  0  0
  9 39  1  0  0  0  0
 10 40  1  0  0  0  0
 11 41  1  0  0  0  0
 19 42  1  0  0  0  0
 19 43  1  0  0  0  0
 19 44  1  0  0  0  0
 20 45  1  0  0  0  0
 20 46  1  0  0  0  0
 21 47  1  0  0  0  0
 21 48  1  0  0  0  0
 22 49  1  0  0  0  0
 26 50  1  0  0  0  0
 27 51  1  0  0  0  0
M  END
> <clash_score>
0

> <docking_score>
-7.330206394195557

> <overlap_score>
0.9328876733779907

$$$$
BENZO_174_1
  -OEChem-08222022443D

 54 57  0     1  0  0  0  0  0999 V2000
    3.8860    2.1050   19.5250 C   0  0  0  0  0  0  0  0  0  0  0  0
    4.2460    1.7520   20.8250 C   0  0  0  0  0  0  0  0  0  0  0  0
   13.8445    0.0438   21.1092 C   0  0  0  0  0  0  0  0  0  0  0  0
   12.6160    0.5516   21.5316 C   0  0  0  0  0  0  0  0  0  0  0  0
    9.5890   -2.4950   23.2210 C   0  0  0  0  0  0  0  0  0  0  0  0
    8.2550   -1.0010   24.5520 C   0  0  0  0  0  0  0  0  0  0  0  0
    4.6610    1.7170   18.4380 C   0  0  0  0  0  0  0  0  0  0  0  0
    5.3890    1.0010   21.0690 C   0  0  0  0  0  0  0  0  0  0  0  0
    9.1890   -3.5540   24.0140 C   0  0  0  0  0  0  0  0  0  0  0  0
    7.8700   -2.0610   25.3550 C   0  0  0  0  0  0  0  0  0  0  0  0
   14.5090   -0.9080   21.8827 C   0  0  0  0  0  0  0  0  0  0  0  0
   12.7164   -0.8440   23.5012 C   0  0  0  0  0  0  0  0  0  0  0  0
    9.1280   -1.2090   23.4870 C   0  0  0  0  0  0  0  0  0  0  0  0
   12.0519    0.1077   22.7276 C   0  0  0  0  0  0  0  0  0  0  0  0
    5.7970    0.9500   18.6730 C   0  0  0  0  0  0  0  0  0  0  0  0
    6.1460    0.6070   19.9750 C   0  0  0  0  0  0  0  0  0  0  0  0
    8.3450   -3.3440   25.0980 C   0  0  0  0  0  0  0  0  0  0  0  0
   13.9449   -1.3519   23.0787 C   0  0  0  0  0  0  0  0  0  0  0  0
    8.2026   -4.5566   27.2975 C   0  0  0  0  0  0  0  0  0  0  0  0
    9.0430    0.2380   21.4940 C   0  0  0  0  0  0  0  0  0  0  0  0
    7.8889   -6.0881   29.2879 C   0  0  0  0  0  0  0  0  0  0  0  0
   10.7220    0.6590   23.1850 C   0  0  0  0  0  0  0  0  0  0  0  0
    7.6343   -5.8728   27.8068 C   0  0  0  0  0  0  0  0  0  0  0  0
    9.5820   -0.1080   22.7000 C   0  0  1  0  0  0  0  0  0  0  0  0
    6.7100    0.3850   17.8100 N   0  0  0  0  0  0  0  0  0  0  0  0
    7.5840   -0.2700   18.5160 N   0  0  0  0  0  0  0  0  0  0  0  0
    7.2710   -0.1460   19.8310 N   0  0  0  0  0  0  0  0  0  0  0  0
    7.9771   -4.4057   25.9197 N   0  0  0  0  0  0  0  0  0  0  0  0
    8.0950   -0.7700   20.8440 N   0  0  0  0  0  0  0  0  0  0  0  0
    8.7749   -3.7648   28.0392 O   0  0  0  0  0  0  0  0  0  0  0  0
    9.2950    1.3000   20.9480 O   0  0  0  0  0  0  0  0  0  0  0  0
   14.7657   -2.5253   24.0333 Cl  0  0  0  0  0  0  0  0  0  0  0  0
    2.9846    2.6932   19.3610 H   0  0  0  0  0  0  0  0  0  0  0  0
    3.6235    2.0692   21.6570 H   0  0  0  0  0  0  0  0  0  0  0  0
   14.2835    0.3898   20.1778 H   0  0  0  0  0  0  0  0  0  0  0  0
   12.1054    1.2930   20.9225 H   0  0  0  0  0  0  0  0  0  0  0  0
   10.2695   -2.6718   22.3873 H   0  0  0  0  0  0  0  0  0  0  0  0
    7.8712   -0.0014   24.7587 H   0  0  0  0  0  0  0  0  0  0  0  0
    4.3785    2.0113   17.4257 H   0  0  0  0  0  0  0  0  0  0  0  0
    5.6763    0.7332   22.0915 H   0  0  0  0  0  0  0  0  0  0  0  0
    9.5431   -4.5618   23.7801 H   0  0  0  0  0  0  0  0  0  0  0  0
    7.1923   -1.8823   26.1912 H   0  0  0  0  0  0  0  0  0  0  0  0
   15.4660   -1.2948   21.5412 H   0  0  0  0  0  0  0  0  0  0  0  0
   12.2722   -1.1873   24.4326 H   0  0  0  0  0  0  0  0  0  0  0  0
    8.9617   -6.0835   29.5073 H   0  0  0  0  0  0  0  0  0  0  0  0
    7.4783   -7.0503   29.6092 H   0  0  0  0  0  0  0  0  0  0  0  0
    7.4206   -5.2995   29.8861 H   0  0  0  0  0  0  0  0  0  0  0  0
   10.7195    0.6680   24.2839 H   0  0  0  0  0  0  0  0  0  0  0  0
   10.6395    1.7141   22.8921 H   0  0  0  0  0  0  0  0  0  0  0  0
    6.5549   -5.8820   27.6165 H   0  0  0  0  0  0  0  0  0  0  0  0
    8.0869   -6.6912   27.2352 H   0  0  0  0  0  0  0  0  0  0  0  0
    8.6943    0.7922   23.3819 H   0  0  0  0  0  0  0  0  0  0  0  0
    7.4775   -5.1797   25.4665 H   0  0  0  0  0  0  0  0  0  0  0  0
    8.1038   -1.6155   21.0990 H   0  0  0  0  0  0  0  0  0  0  0  0
  1  2  1  0  0  0  0
  1  7  2  0  0  0  0
  2  8  2  0  0  0  0
  3  4  2  0  0  0  0
  3 11  1  0  0  0  0
  4 14  1  0  0  0  0
  5  9  2  0  0  0  0
  5 13  1  0  0  0  0
  6 10  1  0  0  0  0
  6 13  2  0  0  0  0
  7 15  1  0  0  0  0
  8 16  1  0  0  0  0
  9 17  1  0  0  0  0
 10 17  2  0  0  0  0
 11 18  2  0  0  0  0
 12 14  2  0  0  0  0
 12 18  1  0  0  0  0
 13 24  1  0  0  0  0
 14 22  1  0  0  0  0
 15 16  2  0  0  0  0
 15 25  1  0  0  0  0
 16 27  1  0  0  0  0
 17 28  1  0  0  0  0
 18 32  1  0  0  0  0
 19 23  1  0  0  0  0
 19 28  1  0  0  0  0
 19 30  2  0  0  0  0
 20 24  1  0  0  0  0
 20 29  1  0  0  0  0
 20 31  2  0  0  0  0
 21 23  1  0  0  0  0
 22 24  1  1  0  0  0
 25 26  2  0  0  0  0
 26 27  1  0  0  0  0
 27 29  1  0  0  0  0
  1 33  1  0  0  0  0
  2 34  1  0  0  0  0
  3 35  1  0  0  0  0
  4 36  1  0  0  0  0
  5 37  1  0  0  0  0
  6 38  1  0  0  0  0
  7 39  1  0  0  0  0
  8 40  1  0  0  0  0
  9 41  1  0  0  0  0
 10 42  1  0  0  0  0
 11 43  1  0  0  0  0
 12 44  1  0  0  0  0
 21 45  1  0  0  0  0
 21 46  1  0  0  0  0
 21 47  1  0  0  0  0
 22 48  1  0  0  0  0
 22 49  1  0  0  0  0
 23 50  1  0  0  0  0
 23 51  1  0  0  0  0
 24 52  1  0  0  0  0
 28 53  1  0  0  0  0
 29 54  1  0  0  0  0
M  END
> <clash_score>
0

> <docking_score>
-6.545238971710205

> <overlap_score>
0.9783534407615662

$$$$
BENZO_174_2
  -OEChem-08222022443D

 54 57  0     1  0  0  0  0  0999 V2000
    3.8860    2.1050   19.5250 C   0  0  0  0  0  0  0  0  0  0  0  0
    4.2460    1.7520   20.8250 C   0  0  0  0  0  0  0  0  0  0  0  0
   13.0699   -1.4582   25.2928 C   0  0  0  0  0  0  0  0  0  0  0  0
   11.9910   -0.6606   24.9116 C   0  0  0  0  0  0  0  0  0  0  0  0
    9.5890   -2.4950   23.2210 C   0  0  0  0  0  0  0  0  0  0  0  0
    8.2550   -1.0010   24.5520 C   0  0  0  0  0  0  0  0  0  0  0  0
    4.6610    1.7170   18.4380 C   0  0  0  0  0  0  0  0  0  0  0  0
    5.3890    1.0010   21.0690 C   0  0  0  0  0  0  0  0  0  0  0  0
    9.1890   -3.5540   24.0140 C   0  0  0  0  0  0  0  0  0  0  0  0
    7.8700   -2.0610   25.3550 C   0  0  0  0  0  0  0  0  0  0  0  0
   14.0494   -1.7989   24.3598 C   0  0  0  0  0  0  0  0  0  0  0  0
   12.8708   -0.5445   22.6644 C   0  0  0  0  0  0  0  0  0  0  0  0
    9.1280   -1.2090   23.4870 C   0  0  0  0  0  0  0  0  0  0  0  0
   11.8914   -0.2037   23.5974 C   0  0  0  0  0  0  0  0  0  0  0  0
    5.7970    0.9500   18.6730 C   0  0  0  0  0  0  0  0  0  0  0  0
    6.1460    0.6070   19.9750 C   0  0  0  0  0  0  0  0  0  0  0  0
    8.3450   -3.3440   25.0980 C   0  0  0  0  0  0  0  0  0  0  0  0
   13.9498   -1.3420   23.0457 C   0  0  0  0  0  0  0  0  0  0  0  0
    7.6607   -4.3765   27.2876 C   0  0  0  0  0  0  0  0  0  0  0  0
    9.0430    0.2380   21.4940 C   0  0  0  0  0  0  0  0  0  0  0  0
    8.4364   -6.7651   27.6016 C   0  0  0  0  0  0  0  0  0  0  0  0
   10.7220    0.6590   23.1850 C   0  0  0  0  0  0  0  0  0  0  0  0
    7.3113   -5.7655   27.8009 C   0  0  0  0  0  0  0  0  0  0  0  0
    9.5820   -0.1080   22.7000 C   0  0  2  0  0  0  0  0  0  0  0  0
    6.7100    0.3850   17.8100 N   0  0  0  0  0  0  0  0  0  0  0  0
    7.5840   -0.2700   18.5160 N   0  0  0  0  0  0  0  0  0  0  0  0
    7.2710   -0.1460   19.8310 N   0  0  0  0  0  0  0  0  0  0  0  0
    7.9771   -4.4057   25.9197 N   0  0  0  0  0  0  0  0  0  0  0  0
    8.0950   -0.7700   20.8440 N   0  0  0  0  0  0  0  0  0  0  0  0
    7.6510   -3.3914   28.0184 O   0  0  0  0  0  0  0  0  0  0  0  0
    9.2950    1.3000   20.9480 O   0  0  0  0  0  0  0  0  0  0  0  0
   15.1579   -1.7637   21.8948 Cl  0  0  0  0  0  0  0  0  0  0  0  0
    2.9846    2.6932   19.3610 H   0  0  0  0  0  0  0  0  0  0  0  0
    3.6235    2.0692   21.6570 H   0  0  0  0  0  0  0  0  0  0  0  0
   13.1470   -1.8139   26.3162 H   0  0  0  0  0  0  0  0  0  0  0  0
   11.2324   -0.4002   25.6451 H   0  0  0  0  0  0  0  0  0  0  0  0
   10.2695   -2.6718   22.3873 H   0  0  0  0  0  0  0  0  0  0  0  0
    7.8712   -0.0014   24.7587 H   0  0  0  0  0  0  0  0  0  0  0  0
    4.3785    2.0113   17.4257 H   0  0  0  0  0  0  0  0  0  0  0  0
    5.6763    0.7332   22.0915 H   0  0  0  0  0  0  0  0  0  0  0  0
    9.5431   -4.5618   23.7801 H   0  0  0  0  0  0  0  0  0  0  0  0
    7.1923   -1.8823   26.1912 H   0  0  0  0  0  0  0  0  0  0  0  0
   14.8846   -2.4215   24.6710 H   0  0  0  0  0  0  0  0  0  0  0  0
   12.7889   -0.1853   21.6412 H   0  0  0  0  0  0  0  0  0  0  0  0
    8.6959   -6.8591   26.5420 H   0  0  0  0  0  0  0  0  0  0  0  0
    8.1391   -7.7519   27.9697 H   0  0  0  0  0  0  0  0  0  0  0  0
    9.3373   -6.4558   28.1416 H   0  0  0  0  0  0  0  0  0  0  0  0
   10.4198    1.2578   24.0555 H   0  0  0  0  0  0  0  0  0  0  0  0
   11.0503    1.3920   22.4361 H   0  0  0  0  0  0  0  0  0  0  0  0
    7.0728   -5.6917   28.8682 H   0  0  0  0  0  0  0  0  0  0  0  0
    6.4147   -6.1147   27.2759 H   0  0  0  0  0  0  0  0  0  0  0  0
   10.5231   -0.9933   22.0106 H   0  0  0  0  0  0  0  0  0  0  0  0
    7.9296   -5.3298   25.4749 H   0  0  0  0  0  0  0  0  0  0  0  0
    8.1038   -1.6155   21.0990 H   0  0  0  0  0  0  0  0  0  0  0  0
  1  2  1  0  0  0  0
  1  7  2  0  0  0  0
  2  8  2  0  0  0  0
  3  4  2  0  0  0  0
  3 11  1  0  0  0  0
  4 14  1  0  0  0  0
  5  9  2  0  0  0  0
  5 13  1  0  0  0  0
  6 10  1  0  0  0  0
  6 13  2  0  0  0  0
  7 15  1  0  0  0  0
  8 16  1  0  0  0  0
  9 17  1  0  0  0  0
 10 17  2  0  0  0  0
 11 18  2  0  0  0  0
 12 14  2  0  0  0  0
 12 18  1  0  0  0  0
 13 24  1  0  0  0  0
 14 22  1  0  0  0  0
 15 16  2  0  0  0  0
 15 25  1  0  0  0  0
 16 27  1  0  0  0  0
 17 28  1  0  0  0  0
 18 32  1  0  0  0  0
 19 23  1  0  0  0  0
 19 28  1  0  0  0  0
 19 30  2  0  0  0  0
 20 24  1  0  0  0  0
 20 29  1  0  0  0  0
 20 31  2  0  0  0  0
 21 23  1  0  0  0  0
 22 24  1  6  0  0  0
 25 26  2  0  0  0  0
 26 27  1  0  0  0  0
 27 29  1  0  0  0  0
  1 33  1  0  0  0  0
  2 34  1  0  0  0  0
  3 35  1  0  0  0  0
  4 36  1  0  0  0  0
  5 37  1  0  0  0  0
  6 38  1  0  0  0  0
  7 39  1  0  0  0  0
  8 40  1  0  0  0  0
  9 41  1  0  0  0  0
 10 42  1  0  0  0  0
 11 43  1  0  0  0  0
 12 44  1  0  0  0  0
 21 45  1  0  0  0  0
 21 46  1  0  0  0  0
 21 47  1  0  0  0  0
 22 48  1  0  0  0  0
 22 49  1  0  0  0  0
 23 50  1  0  0  0  0
 23 51  1  0  0  0  0
 24 52  1  0  0  0  0
 28 53  1  0  0  0  0
 29 54  1  0  0  0  0
M  END
> <clash_score>
0

> <docking_score>
-6.655651569366455

> <overlap_score>
0.9736642241477966

$$$$
BENZO_175_2
  -OEChem-08222022443D

 54 57  0     1  0  0  0  0  0999 V2000
    3.8860    2.1050   19.5250 C   0  0  0  0  0  0  0  0  0  0  0  0
    4.2460    1.7520   20.8250 C   0  0  0  0  0  0  0  0  0  0  0  0
    9.5890   -2.4950   23.2210 C   0  0  0  0  0  0  0  0  0  0  0  0
    8.2550   -1.0010   24.5520 C   0  0  0  0  0  0  0  0  0  0  0  0
    4.6610    1.7170   18.4380 C   0  0  0  0  0  0  0  0  0  0  0  0
    5.3890    1.0010   21.0690 C   0  0  0  0  0  0  0  0  0  0  0  0
    9.1890   -3.5540   24.0140 C   0  0  0  0  0  0  0  0  0  0  0  0
    7.8700   -2.0610   25.3550 C   0  0  0  0  0  0  0  0  0  0  0  0
   12.1546   -0.7527   24.8667 C   0  0  0  0  0  0  0  0  0  0  0  0
   12.9364   -0.6310   22.8152 C   0  0  0  0  0  0  0  0  0  0  0  0
    9.1280   -1.2090   23.4870 C   0  0  0  0  0  0  0  0  0  0  0  0
   11.8914   -0.2037   23.5974 C   0  0  0  0  0  0  0  0  0  0  0  0
    5.7970    0.9500   18.6730 C   0  0  0  0  0  0  0  0  0  0  0  0
    6.1460    0.6070   19.9750 C   0  0  0  0  0  0  0  0  0  0  0  0
    8.3450   -3.3440   25.0980 C   0  0  0  0  0  0  0  0  0  0  0  0
    7.6607   -4.3765   27.2876 C   0  0  0  0  0  0  0  0  0  0  0  0
    9.0430    0.2380   21.4940 C   0  0  0  0  0  0  0  0  0  0  0  0
    8.4364   -6.7651   27.6016 C   0  0  0  0  0  0  0  0  0  0  0  0
   14.9563   -2.0460   23.2586 C   0  0  0  0  0  0  0  0  0  0  0  0
   10.7220    0.6590   23.1850 C   0  0  0  0  0  0  0  0  0  0  0  0
    7.3113   -5.7655   27.8009 C   0  0  0  0  0  0  0  0  0  0  0  0
    9.5820   -0.1080   22.7000 C   0  0  2  0  0  0  0  0  0  0  0  0
   13.2786   -1.4738   24.8937 N   0  0  0  0  0  0  0  0  0  0  0  0
    6.7100    0.3850   17.8100 N   0  0  0  0  0  0  0  0  0  0  0  0
    7.5840   -0.2700   18.5160 N   0  0  0  0  0  0  0  0  0  0  0  0
   13.7309   -1.3809   23.6316 N   0  0  0  0  0  0  0  0  0  0  0  0
    7.2710   -0.1460   19.8310 N   0  0  0  0  0  0  0  0  0  0  0  0
    7.9771   -4.4057   25.9197 N   0  0  0  0  0  0  0  0  0  0  0  0
    8.0950   -0.7700   20.8440 N   0  0  0  0  0  0  0  0  0  0  0  0
    7.6510   -3.3914   28.0184 O   0  0  0  0  0  0  0  0  0  0  0  0
    9.2950    1.3000   20.9480 O   0  0  0  0  0  0  0  0  0  0  0  0
    2.9846    2.6932   19.3610 H   0  0  0  0  0  0  0  0  0  0  0  0
    3.6235    2.0692   21.6570 H   0  0  0  0  0  0  0  0  0  0  0  0
   10.2695   -2.6718   22.3873 H   0  0  0  0  0  0  0  0  0  0  0  0
    7.8712   -0.0014   24.7587 H   0  0  0  0  0  0  0  0  0  0  0  0
    4.3785    2.0113   17.4257 H   0  0  0  0  0  0  0  0  0  0  0  0
    5.6763    0.7332   22.0915 H   0  0  0  0  0  0  0  0  0  0  0  0
    9.5431   -4.5618   23.7801 H   0  0  0  0  0  0  0  0  0  0  0  0
    7.1923   -1.8823   26.1912 H   0  0  0  0  0  0  0  0  0  0  0  0
   11.5753   -0.6595   25.7744 H   0  0  0  0  0  0  0  0  0  0  0  0
   13.1758   -0.4703   21.7727 H   0  0  0  0  0  0  0  0  0  0  0  0
    8.6959   -6.8591   26.5420 H   0  0  0  0  0  0  0  0  0  0  0  0
    8.1391   -7.7519   27.9697 H   0  0  0  0  0  0  0  0  0  0  0  0
    9.3373   -6.4558   28.1416 H   0  0  0  0  0  0  0  0  0  0  0  0
   15.7825   -1.3505   23.4278 H   0  0  0  0  0  0  0  0  0  0  0  0
   15.0826   -2.9452   23.8680 H   0  0  0  0  0  0  0  0  0  0  0  0
   14.9057   -2.3321   22.2043 H   0  0  0  0  0  0  0  0  0  0  0  0
   10.4198    1.2578   24.0555 H   0  0  0  0  0  0  0  0  0  0  0  0
   11.0503    1.3920   22.4361 H   0  0  0  0  0  0  0  0  0  0  0  0
    7.0728   -5.6917   28.8682 H   0  0  0  0  0  0  0  0  0  0  0  0
    6.4147   -6.1147   27.2759 H   0  0  0  0  0  0  0  0  0  0  0  0
   10.5231   -0.9933   22.0106 H   0  0  0  0  0  0  0  0  0  0  0  0
    7.9296   -5.3298   25.4749 H   0  0  0  0  0  0  0  0  0  0  0  0
    8.1038   -1.6155   21.0990 H   0  0  0  0  0  0  0  0  0  0  0  0
  1  2  1  0  0  0  0
  1  5  2  0  0  0  0
  2  6  2  0  0  0  0
  3  7  2  0  0  0  0
  3 11  1  0  0  0  0
  4  8  1  0  0  0  0
  4 11  2  0  0  0  0
  5 13  1  0  0  0  0
  6 14  1  0  0  0  0
  7 15  1  0  0  0  0
  8 15  2  0  0  0  0
  9 12  1  0  0  0  0
  9 23  2  0  0  0  0
 10 12  2  0  0  0  0
 10 26  1  0  0  0  0
 11 22  1  0  0  0  0
 12 20  1  0  0  0  0
 13 14  2  0  0  0  0
 13 24  1  0  0  0  0
 14 27  1  0  0  0  0
 15 28  1  0  0  0  0
 16 21  1  0  0  0  0
 16 28  1  0  0  0  0
 16 30  2  0  0  0  0
 17 22  1  0  0  0  0
 17 29  1  0  0  0  0
 17 31  2  0  0  0  0
 18 21  1  0  0  0  0
 19 26  1  0  0  0  0
 20 22  1  6  0  0  0
 23 26  1  0  0  0  0
 24 25  2  0  0  0  0
 25 27  1  0  0  0  0
 27 29  1  0  0  0  0
  1 32  1  0  0  0  0
  2 33  1  0  0  0  0
  3 34  1  0  0  0  0
  4 35  1  0  0  0  0
  5 36  1  0  0  0  0
  6 37  1  0  0  0  0
  7 38  1  0  0  0  0
  8 39  1  0  0  0  0
  9 40  1  0  0  0  0
 10 41  1  0  0  0  0
 18 42  1  0  0  0  0
 18 43  1  0  0  0  0
 18 44  1  0  0  0  0
 19 45  1  0  0  0  0
 19 46  1  0  0  0  0
 19 47  1  0  0  0  0
 20 48  1  0  0  0  0
 20 49  1  0  0  0  0
 21 50  1  0  0  0  0
 21 51  1  0  0  0  0
 22 52  1  0  0  0  0
 28 53  1  0  0  0  0
 29 54  1  0  0  0  0
M  END
> <clash_score>
0

> <docking_score>
-6.582712650299072

> <overlap_score>
0.9696614146232605

$$$$
BENZO_175_1
  -OEChem-08222022443D

 54 57  0     1  0  0  0  0  0999 V2000
    3.8860    2.1050   19.5250 C   0  0  0  0  0  0  0  0  0  0  0  0
    4.2460    1.7520   20.8250 C   0  0  0  0  0  0  0  0  0  0  0  0
    9.5890   -2.4950   23.2210 C   0  0  0  0  0  0  0  0  0  0  0  0
    8.2550   -1.0010   24.5520 C   0  0  0  0  0  0  0  0  0  0  0  0
    4.6610    1.7170   18.4380 C   0  0  0  0  0  0  0  0  0  0  0  0
    5.3890    1.0010   21.0690 C   0  0  0  0  0  0  0  0  0  0  0  0
    9.1890   -3.5540   24.0140 C   0  0  0  0  0  0  0  0  0  0  0  0
    7.8700   -2.0610   25.3550 C   0  0  0  0  0  0  0  0  0  0  0  0
   13.3377    0.6029   23.0163 C   0  0  0  0  0  0  0  0  0  0  0  0
   12.2774   -0.9929   21.9374 C   0  0  0  0  0  0  0  0  0  0  0  0
    9.1280   -1.2090   23.4870 C   0  0  0  0  0  0  0  0  0  0  0  0
   12.0519    0.1077   22.7276 C   0  0  0  0  0  0  0  0  0  0  0  0
    5.7970    0.9500   18.6730 C   0  0  0  0  0  0  0  0  0  0  0  0
    6.1460    0.6070   19.9750 C   0  0  0  0  0  0  0  0  0  0  0  0
    8.3450   -3.3440   25.0980 C   0  0  0  0  0  0  0  0  0  0  0  0
    7.6607   -4.3765   27.2876 C   0  0  0  0  0  0  0  0  0  0  0  0
    9.0430    0.2380   21.4940 C   0  0  0  0  0  0  0  0  0  0  0  0
    6.9961   -5.7803   29.2859 C   0  0  0  0  0  0  0  0  0  0  0  0
   14.3524   -2.0905   21.0609 C   0  0  0  0  0  0  0  0  0  0  0  0
   10.7220    0.6590   23.1850 C   0  0  0  0  0  0  0  0  0  0  0  0
    7.3113   -5.7655   27.8009 C   0  0  0  0  0  0  0  0  0  0  0  0
    9.5820   -0.1080   22.7000 C   0  0  1  0  0  0  0  0  0  0  0  0
   14.3080   -0.1235   22.4553 N   0  0  0  0  0  0  0  0  0  0  0  0
    6.7100    0.3850   17.8100 N   0  0  0  0  0  0  0  0  0  0  0  0
    7.5840   -0.2700   18.5160 N   0  0  0  0  0  0  0  0  0  0  0  0
   13.6317   -1.0865   21.8063 N   0  0  0  0  0  0  0  0  0  0  0  0
    7.2710   -0.1460   19.8310 N   0  0  0  0  0  0  0  0  0  0  0  0
    7.9771   -4.4057   25.9197 N   0  0  0  0  0  0  0  0  0  0  0  0
    8.0950   -0.7700   20.8440 N   0  0  0  0  0  0  0  0  0  0  0  0
    7.6510   -3.3914   28.0184 O   0  0  0  0  0  0  0  0  0  0  0  0
    9.2950    1.3000   20.9480 O   0  0  0  0  0  0  0  0  0  0  0  0
    2.9846    2.6932   19.3610 H   0  0  0  0  0  0  0  0  0  0  0  0
    3.6235    2.0692   21.6570 H   0  0  0  0  0  0  0  0  0  0  0  0
   10.2695   -2.6718   22.3873 H   0  0  0  0  0  0  0  0  0  0  0  0
    7.8712   -0.0014   24.7587 H   0  0  0  0  0  0  0  0  0  0  0  0
    4.3785    2.0113   17.4257 H   0  0  0  0  0  0  0  0  0  0  0  0
    5.6763    0.7332   22.0915 H   0  0  0  0  0  0  0  0  0  0  0  0
    9.5431   -4.5618   23.7801 H   0  0  0  0  0  0  0  0  0  0  0  0
    7.1923   -1.8823   26.1912 H   0  0  0  0  0  0  0  0  0  0  0  0
   13.6106    1.4622   23.6125 H   0  0  0  0  0  0  0  0  0  0  0  0
   11.6062   -1.7006   21.4699 H   0  0  0  0  0  0  0  0  0  0  0  0
    7.8457   -5.4146   29.8719 H   0  0  0  0  0  0  0  0  0  0  0  0
    6.7654   -6.7977   29.6164 H   0  0  0  0  0  0  0  0  0  0  0  0
    6.1341   -5.1438   29.5113 H   0  0  0  0  0  0  0  0  0  0  0  0
   14.4802   -1.7247   20.0387 H   0  0  0  0  0  0  0  0  0  0  0  0
   15.3252   -2.2636   21.5295 H   0  0  0  0  0  0  0  0  0  0  0  0
   13.7816   -3.0233   21.0657 H   0  0  0  0  0  0  0  0  0  0  0  0
   10.7195    0.6680   24.2839 H   0  0  0  0  0  0  0  0  0  0  0  0
   10.6395    1.7141   22.8921 H   0  0  0  0  0  0  0  0  0  0  0  0
    6.4454   -6.1356   27.2399 H   0  0  0  0  0  0  0  0  0  0  0  0
    8.1569   -6.4333   27.5999 H   0  0  0  0  0  0  0  0  0  0  0  0
    8.6943    0.7922   23.3819 H   0  0  0  0  0  0  0  0  0  0  0  0
    7.9296   -5.3298   25.4749 H   0  0  0  0  0  0  0  0  0  0  0  0
    8.1038   -1.6155   21.0990 H   0  0  0  0  0  0  0  0  0  0  0  0
  1  2  1  0  0  0  0
  1  5  2  0  0  0  0
  2  6  2  0  0  0  0
  3  7  2  0  0  0  0
  3 11  1  0  0  0  0
  4  8  1  0  0  0  0
  4 11  2  0  0  0  0
  5 13  1  0  0  0  0
  6 14  1  0  0  0  0
  7 15  1  0  0  0  0
  8 15  2  0  0  0  0
  9 12  1  0  0  0  0
  9 23  2  0  0  0  0
 10 12  2  0  0  0  0
 10 26  1  0  0  0  0
 11 22  1  0  0  0  0
 12 20  1  0  0  0  0
 13 14  2  0  0  0  0
 13 24  1  0  0  0  0
 14 27  1  0  0  0  0
 15 28  1  0  0  0  0
 16 21  1  0  0  0  0
 16 28  1  0  0  0  0
 16 30  2  0  0  0  0
 17 22  1  0  0  0  0
 17 29  1  0  0  0  0
 17 31  2  0  0  0  0
 18 21  1  0  0  0  0
 19 26  1  0  0  0  0
 20 22  1  1  0  0  0
 23 26  1  0  0  0  0
 24 25  2  0  0  0  0
 25 27  1  0  0  0  0
 27 29  1  0  0  0  0
  1 32  1  0  0  0  0
  2 33  1  0  0  0  0
  3 34  1  0  0  0  0
  4 35  1  0  0  0  0
  5 36  1  0  0  0  0
  6 37  1  0  0  0  0
  7 38  1  0  0  0  0
  8 39  1  0  0  0  0
  9 40  1  0  0  0  0
 10 41  1  0  0  0  0
 18 42  1  0  0  0  0
 18 43  1  0  0  0  0
 18 44  1  0  0  0  0
 19 45  1  0  0  0  0
 19 46  1  0  0  0  0
 19 47  1  0  0  0  0
 20 48  1  0  0  0  0
 20 49  1  0  0  0  0
 21 50  1  0  0  0  0
 21 51  1  0  0  0  0
 22 52  1  0  0  0  0
 28 53  1  0  0  0  0
 29 54  1  0  0  0  0
M  END
> <clash_score>
0

> <docking_score>
-9.432584762573242

> <overlap_score>
0.9479943513870239

$$$$
BENZO_177_1
  -OEChem-08222022443D

 59 63  0     1  0  0  0  0  0999 V2000
   14.0375   -1.8230   24.3427 C   0  0  0  0  0  0  0  0  0  0  0  0
   13.0623   -1.4808   25.2794 C   0  0  0  0  0  0  0  0  0  0  0  0
   13.9373   -1.3600   23.0307 C   0  0  0  0  0  0  0  0  0  0  0  0
    3.8860    2.1050   19.5250 C   0  0  0  0  0  0  0  0  0  0  0  0
    4.2460    1.7520   20.8250 C   0  0  0  0  0  0  0  0  0  0  0  0
   11.9868   -0.6757   24.9042 C   0  0  0  0  0  0  0  0  0  0  0  0
   12.8619   -0.5549   22.6555 C   0  0  0  0  0  0  0  0  0  0  0  0
    9.5890   -2.4950   23.2210 C   0  0  0  0  0  0  0  0  0  0  0  0
    8.2550   -1.0010   24.5520 C   0  0  0  0  0  0  0  0  0  0  0  0
    4.6610    1.7170   18.4380 C   0  0  0  0  0  0  0  0  0  0  0  0
    5.3890    1.0010   21.0690 C   0  0  0  0  0  0  0  0  0  0  0  0
    9.1890   -3.5540   24.0140 C   0  0  0  0  0  0  0  0  0  0  0  0
    7.8700   -2.0610   25.3550 C   0  0  0  0  0  0  0  0  0  0  0  0
   11.8866   -0.2127   23.5922 C   0  0  0  0  0  0  0  0  0  0  0  0
    9.1280   -1.2090   23.4870 C   0  0  0  0  0  0  0  0  0  0  0  0
    5.7970    0.9500   18.6730 C   0  0  0  0  0  0  0  0  0  0  0  0
    6.1460    0.6070   19.9750 C   0  0  0  0  0  0  0  0  0  0  0  0
    8.3450   -3.3440   25.0980 C   0  0  0  0  0  0  0  0  0  0  0  0
    9.0430    0.2380   21.4940 C   0  0  0  0  0  0  0  0  0  0  0  0
    7.9496   -4.9537   28.7345 C   0  0  0  0  0  0  0  0  0  0  0  0
    6.8919   -4.0607   28.0818 C   0  0  0  0  0  0  0  0  0  0  0  0
    9.2470   -4.9693   27.9230 C   0  0  0  0  0  0  0  0  0  0  0  0
    6.6889   -4.4385   26.6147 C   0  0  0  0  0  0  0  0  0  0  0  0
    8.9871   -5.3207   26.4549 C   0  0  0  0  0  0  0  0  0  0  0  0
   10.7220    0.6590   23.1850 C   0  0  0  0  0  0  0  0  0  0  0  0
    9.5820   -0.1080   22.7000 C   0  0  1  0  0  0  0  0  0  0  0  0
    6.7100    0.3850   17.8100 N   0  0  0  0  0  0  0  0  0  0  0  0
    7.5840   -0.2700   18.5160 N   0  0  0  0  0  0  0  0  0  0  0  0
    7.2710   -0.1460   19.8310 N   0  0  0  0  0  0  0  0  0  0  0  0
    7.9769   -4.4027   25.9163 N   0  0  0  0  0  0  0  0  0  0  0  0
    8.0950   -0.7700   20.8440 N   0  0  0  0  0  0  0  0  0  0  0  0
    9.2950    1.3000   20.9480 O   0  0  0  0  0  0  0  0  0  0  0  0
   14.8756   -2.4488   24.6355 H   0  0  0  0  0  0  0  0  0  0  0  0
   13.1407   -1.8403   26.3013 H   0  0  0  0  0  0  0  0  0  0  0  0
   14.6970   -1.6253   22.3015 H   0  0  0  0  0  0  0  0  0  0  0  0
    2.9846    2.6932   19.3610 H   0  0  0  0  0  0  0  0  0  0  0  0
    3.6235    2.0692   21.6570 H   0  0  0  0  0  0  0  0  0  0  0  0
   11.2315   -0.4143   25.6407 H   0  0  0  0  0  0  0  0  0  0  0  0
   12.7920   -0.1989   21.6310 H   0  0  0  0  0  0  0  0  0  0  0  0
   10.2684   -2.6719   22.3867 H   0  0  0  0  0  0  0  0  0  0  0  0
    7.8717   -0.0016   24.7596 H   0  0  0  0  0  0  0  0  0  0  0  0
    4.3785    2.0113   17.4257 H   0  0  0  0  0  0  0  0  0  0  0  0
    5.6763    0.7332   22.0915 H   0  0  0  0  0  0  0  0  0  0  0  0
    9.5443   -4.5616   23.7817 H   0  0  0  0  0  0  0  0  0  0  0  0
    7.1921   -1.8821   26.1908 H   0  0  0  0  0  0  0  0  0  0  0  0
    8.1558   -4.5961   29.7550 H   0  0  0  0  0  0  0  0  0  0  0  0
    7.5611   -5.9778   28.8324 H   0  0  0  0  0  0  0  0  0  0  0  0
    5.9459   -4.1594   28.6209 H   0  0  0  0  0  0  0  0  0  0  0  0
    7.2011   -3.0160   28.1536 H   0  0  0  0  0  0  0  0  0  0  0  0
    9.7290   -3.9880   27.9846 H   0  0  0  0  0  0  0  0  0  0  0  0
    9.9437   -5.6964   28.3562 H   0  0  0  0  0  0  0  0  0  0  0  0
    6.2543   -5.4402   26.5659 H   0  0  0  0  0  0  0  0  0  0  0  0
    5.9909   -3.7397   26.1451 H   0  0  0  0  0  0  0  0  0  0  0  0
    9.9128   -5.2367   25.8843 H   0  0  0  0  0  0  0  0  0  0  0  0
    8.6365   -6.3517   26.3987 H   0  0  0  0  0  0  0  0  0  0  0  0
   10.4364    1.2691   24.0532 H   0  0  0  0  0  0  0  0  0  0  0  0
   11.0496    1.3814   22.4256 H   0  0  0  0  0  0  0  0  0  0  0  0
   10.5267   -0.9929   22.0072 H   0  0  0  0  0  0  0  0  0  0  0  0
    8.0815   -1.6117   21.0754 H   0  0  0  0  0  0  0  0  0  0  0  0
  1  2  1  0  0  0  0
  1  3  2  0  0  0  0
  2  6  2  0  0  0  0
  3  7  1  0  0  0  0
  4  5  1  0  0  0  0
  4 10  2  0  0  0  0
  5 11  2  0  0  0  0
  6 14  1  0  0  0  0
  7 14  2  0  0  0  0
  8 12  2  0  0  0  0
  8 15  1  0  0  0  0
  9 13  1  0  0  0  0
  9 15  2  0  0  0  0
 10 16  1  0  0  0  0
 11 17  1  0  0  0  0
 12 18  1  0  0  0  0
 13 18  2  0  0  0  0
 14 25  1  0  0  0  0
 15 26  1  0  0  0  0
 16 17  2  0  0  0  0
 16 27  1  0  0  0  0
 17 29  1  0  0  0  0
 18 30  1  0  0  0  0
 19 26  1  1  0  0  0
 19 31  1  0  0  0  0
 19 32  2  0  0  0  0
 20 21  1  0  0  0  0
 20 22  1  0  0  0  0
 21 23  1  0  0  0  0
 22 24  1  0  0  0  0
 23 30  1  0  0  0  0
 24 30  1  0  0  0  0
 25 26  1  0  0  0  0
 27 28  2  0  0  0  0
 28 29  1  0  0  0  0
 29 31  1  0  0  0  0
  1 33  1  0  0  0  0
  2 34  1  0  0  0  0
  3 35  1  0  0  0  0
  4 36  1  0  0  0  0
  5 37  1  0  0  0  0
  6 38  1  0  0  0  0
  7 39  1  0  0  0  0
  8 40  1  0  0  0  0
  9 41  1  0  0  0  0
 10 42  1  0  0  0  0
 11 43  1  0  0  0  0
 12 44  1  0  0  0  0
 13 45  1  0  0  0  0
 20 46  1  0  0  0  0
 20 47  1  0  0  0  0
 21 48  1  0  0  0  0
 21 49  1  0  0  0  0
 22 50  1  0  0  0  0
 22 51  1  0  0  0  0
 23 52  1  0  0  0  0
 23 53  1  0  0  0  0
 24 54  1  0  0  0  0
 24 55  1  0  0  0  0
 25 56  1  0  0  0  0
 25 57  1  0  0  0  0
 26 58  1  0  0  0  0
 31 59  1  0  0  0  0
M  END
> <clash_score>
0

> <docking_score>
-8.287275314331055

> <overlap_score>
0.9721696376800537

$$$$
BENZO_177_2
  -OEChem-08222022443D

 59 63  0     1  0  0  0  0  0999 V2000
   14.4929   -0.9443   21.8802 C   0  0  0  0  0  0  0  0  0  0  0  0
   14.4062   -0.2690   23.0976 C   0  0  0  0  0  0  0  0  0  0  0  0
   13.3566   -1.0994   21.0861 C   0  0  0  0  0  0  0  0  0  0  0  0
    3.8860    2.1050   19.5250 C   0  0  0  0  0  0  0  0  0  0  0  0
    4.2460    1.7520   20.8250 C   0  0  0  0  0  0  0  0  0  0  0  0
   13.1832    0.2512   23.5210 C   0  0  0  0  0  0  0  0  0  0  0  0
   12.1336   -0.5792   21.5095 C   0  0  0  0  0  0  0  0  0  0  0  0
    9.5890   -2.4950   23.2210 C   0  0  0  0  0  0  0  0  0  0  0  0
    8.2550   -1.0010   24.5520 C   0  0  0  0  0  0  0  0  0  0  0  0
    4.6610    1.7170   18.4380 C   0  0  0  0  0  0  0  0  0  0  0  0
    5.3890    1.0010   21.0690 C   0  0  0  0  0  0  0  0  0  0  0  0
    9.1890   -3.5540   24.0140 C   0  0  0  0  0  0  0  0  0  0  0  0
    7.8700   -2.0610   25.3550 C   0  0  0  0  0  0  0  0  0  0  0  0
   12.0469    0.0961   22.7270 C   0  0  0  0  0  0  0  0  0  0  0  0
    9.1280   -1.2090   23.4870 C   0  0  0  0  0  0  0  0  0  0  0  0
    5.7970    0.9500   18.6730 C   0  0  0  0  0  0  0  0  0  0  0  0
    6.1460    0.6070   19.9750 C   0  0  0  0  0  0  0  0  0  0  0  0
    8.3450   -3.3440   25.0980 C   0  0  0  0  0  0  0  0  0  0  0  0
    9.0430    0.2380   21.4940 C   0  0  0  0  0  0  0  0  0  0  0  0
    7.9496   -4.9537   28.7345 C   0  0  0  0  0  0  0  0  0  0  0  0
    6.8919   -4.0607   28.0818 C   0  0  0  0  0  0  0  0  0  0  0  0
    9.2470   -4.9693   27.9230 C   0  0  0  0  0  0  0  0  0  0  0  0
    6.6889   -4.4385   26.6147 C   0  0  0  0  0  0  0  0  0  0  0  0
    8.9871   -5.3207   26.4549 C   0  0  0  0  0  0  0  0  0  0  0  0
   10.7220    0.6590   23.1850 C   0  0  0  0  0  0  0  0  0  0  0  0
    9.5820   -0.1080   22.7000 C   0  0  2  0  0  0  0  0  0  0  0  0
    6.7100    0.3850   17.8100 N   0  0  0  0  0  0  0  0  0  0  0  0
    7.5840   -0.2700   18.5160 N   0  0  0  0  0  0  0  0  0  0  0  0
    7.2710   -0.1460   19.8310 N   0  0  0  0  0  0  0  0  0  0  0  0
    7.9769   -4.4027   25.9163 N   0  0  0  0  0  0  0  0  0  0  0  0
    8.0950   -0.7700   20.8440 N   0  0  0  0  0  0  0  0  0  0  0  0
    9.2950    1.3000   20.9480 O   0  0  0  0  0  0  0  0  0  0  0  0
   15.4456   -1.3481   21.5500 H   0  0  0  0  0  0  0  0  0  0  0  0
   15.2911   -0.1472   23.7155 H   0  0  0  0  0  0  0  0  0  0  0  0
   13.4240   -1.6241   20.1377 H   0  0  0  0  0  0  0  0  0  0  0  0
    2.9846    2.6932   19.3610 H   0  0  0  0  0  0  0  0  0  0  0  0
    3.6235    2.0692   21.6570 H   0  0  0  0  0  0  0  0  0  0  0  0
   13.1250    0.7757   24.4711 H   0  0  0  0  0  0  0  0  0  0  0  0
   11.2536   -0.7049   20.8844 H   0  0  0  0  0  0  0  0  0  0  0  0
   10.2684   -2.6719   22.3867 H   0  0  0  0  0  0  0  0  0  0  0  0
    7.8717   -0.0016   24.7596 H   0  0  0  0  0  0  0  0  0  0  0  0
    4.3785    2.0113   17.4257 H   0  0  0  0  0  0  0  0  0  0  0  0
    5.6763    0.7332   22.0915 H   0  0  0  0  0  0  0  0  0  0  0  0
    9.5443   -4.5616   23.7817 H   0  0  0  0  0  0  0  0  0  0  0  0
    7.1921   -1.8821   26.1908 H   0  0  0  0  0  0  0  0  0  0  0  0
    8.1558   -4.5961   29.7550 H   0  0  0  0  0  0  0  0  0  0  0  0
    7.5611   -5.9778   28.8324 H   0  0  0  0  0  0  0  0  0  0  0  0
    5.9459   -4.1594   28.6209 H   0  0  0  0  0  0  0  0  0  0  0  0
    7.2011   -3.0160   28.1536 H   0  0  0  0  0  0  0  0  0  0  0  0
    9.7290   -3.9880   27.9846 H   0  0  0  0  0  0  0  0  0  0  0  0
    9.9437   -5.6964   28.3562 H   0  0  0  0  0  0  0  0  0  0  0  0
    6.2543   -5.4402   26.5659 H   0  0  0  0  0  0  0  0  0  0  0  0
    5.9909   -3.7397   26.1451 H   0  0  0  0  0  0  0  0  0  0  0  0
    9.9128   -5.2367   25.8843 H   0  0  0  0  0  0  0  0  0  0  0  0
    8.6365   -6.3517   26.3987 H   0  0  0  0  0  0  0  0  0  0  0  0
   10.7288    0.6889   24.2835 H   0  0  0  0  0  0  0  0  0  0  0  0
   10.6393    1.7086   22.8728 H   0  0  0  0  0  0  0  0  0  0  0  0
    8.6955    0.7993   23.3793 H   0  0  0  0  0  0  0  0  0  0  0  0
    8.0815   -1.6117   21.0754 H   0  0  0  0  0  0  0  0  0  0  0  0
  1  2  1  0  0  0  0
  1  3  2  0  0  0  0
  2  6  2  0  0  0  0
  3  7  1  0  0  0  0
  4  5  1  0  0  0  0
  4 10  2  0  0  0  0
  5 11  2  0  0  0  0
  6 14  1  0  0  0  0
  7 14  2  0  0  0  0
  8 12  2  0  0  0  0
  8 15  1  0  0  0  0
  9 13  1  0  0  0  0
  9 15  2  0  0  0  0
 10 16  1  0  0  0  0
 11 17  1  0  0  0  0
 12 18  1  0  0  0  0
 13 18  2  0  0  0  0
 14 25  1  0  0  0  0
 15 26  1  0  0  0  0
 16 17  2  0  0  0  0
 16 27  1  0  0  0  0
 17 29  1  0  0  0  0
 18 30  1  0  0  0  0
 19 26  1  6  0  0  0
 19 31  1  0  0  0  0
 19 32  2  0  0  0  0
 20 21  1  0  0  0  0
 20 22  1  0  0  0  0
 21 23  1  0  0  0  0
 22 24  1  0  0  0  0
 23 30  1  0  0  0  0
 24 30  1  0  0  0  0
 25 26  1  0  0  0  0
 27 28  2  0  0  0  0
 28 29  1  0  0  0  0
 29 31  1  0  0  0  0
  1 33  1  0  0  0  0
  2 34  1  0  0  0  0
  3 35  1  0  0  0  0
  4 36  1  0  0  0  0
  5 37  1  0  0  0  0
  6 38  1  0  0  0  0
  7 39  1  0  0  0  0
  8 40  1  0  0  0  0
  9 41  1  0  0  0  0
 10 42  1  0  0  0  0
 11 43  1  0  0  0  0
 12 44  1  0  0  0  0
 13 45  1  0  0  0  0
 20 46  1  0  0  0  0
 20 47  1  0  0  0  0
 21 48  1  0  0  0  0
 21 49  1  0  0  0  0
 22 50  1  0  0  0  0
 22 51  1  0  0  0  0
 23 52  1  0  0  0  0
 23 53  1  0  0  0  0
 24 54  1  0  0  0  0
 24 55  1  0  0  0  0
 25 56  1  0  0  0  0
 25 57  1  0  0  0  0
 26 58  1  0  0  0  0
 31 59  1  0  0  0  0
M  END
> <clash_score>
0

> <docking_score>
-7.844586372375488

> <overlap_score>
0.9526594877243042

$$$$
BENZO_176_1
  -OEChem-08222022443D

 56 60  0     1  0  0  0  0  0999 V2000
    3.8860    2.1050   19.5250 C   0  0  0  0  0  0  0  0  0  0  0  0
    4.2460    1.7520   20.8250 C   0  0  0  0  0  0  0  0  0  0  0  0
    9.5890   -2.4950   23.2210 C   0  0  0  0  0  0  0  0  0  0  0  0
    8.2550   -1.0010   24.5520 C   0  0  0  0  0  0  0  0  0  0  0  0
    4.6610    1.7170   18.4380 C   0  0  0  0  0  0  0  0  0  0  0  0
    5.3890    1.0010   21.0690 C   0  0  0  0  0  0  0  0  0  0  0  0
    9.1890   -3.5540   24.0140 C   0  0  0  0  0  0  0  0  0  0  0  0
    7.8700   -2.0610   25.3550 C   0  0  0  0  0  0  0  0  0  0  0  0
   12.5272   -1.1406   22.7211 C   0  0  0  0  0  0  0  0  0  0  0  0
   13.5595   -1.8071   23.3438 C   0  0  0  0  0  0  0  0  0  0  0  0
   12.4536   -0.2056   24.8477 C   0  0  0  0  0  0  0  0  0  0  0  0
    9.1280   -1.2090   23.4870 C   0  0  0  0  0  0  0  0  0  0  0  0
   11.8866   -0.2127   23.5922 C   0  0  0  0  0  0  0  0  0  0  0  0
    5.7970    0.9500   18.6730 C   0  0  0  0  0  0  0  0  0  0  0  0
    6.1460    0.6070   19.9750 C   0  0  0  0  0  0  0  0  0  0  0  0
    8.3450   -3.3440   25.0980 C   0  0  0  0  0  0  0  0  0  0  0  0
    9.0430    0.2380   21.4940 C   0  0  0  0  0  0  0  0  0  0  0  0
    7.1332   -6.6676   27.5104 C   0  0  0  0  0  0  0  0  0  0  0  0
    8.6006   -6.2699   27.4092 C   0  0  0  0  0  0  0  0  0  0  0  0
    6.2435   -5.4423   27.3384 C   0  0  0  0  0  0  0  0  0  0  0  0
    8.8968   -5.5368   26.1018 C   0  0  0  0  0  0  0  0  0  0  0  0
    6.5407   -4.7160   26.0284 C   0  0  0  0  0  0  0  0  0  0  0  0
   10.7220    0.6590   23.1850 C   0  0  0  0  0  0  0  0  0  0  0  0
    9.5820   -0.1080   22.7000 C   0  0  1  0  0  0  0  0  0  0  0  0
    6.7100    0.3850   17.8100 N   0  0  0  0  0  0  0  0  0  0  0  0
    7.5840   -0.2700   18.5160 N   0  0  0  0  0  0  0  0  0  0  0  0
    7.2710   -0.1460   19.8310 N   0  0  0  0  0  0  0  0  0  0  0  0
    7.9744   -4.4098   25.9218 N   0  0  0  0  0  0  0  0  0  0  0  0
    8.0950   -0.7700   20.8440 N   0  0  0  0  0  0  0  0  0  0  0  0
    9.2950    1.3000   20.9480 O   0  0  0  0  0  0  0  0  0  0  0  0
   13.7529   -1.3140   24.9722 S   0  0  0  0  0  0  0  0  0  0  0  0
    2.9846    2.6932   19.3610 H   0  0  0  0  0  0  0  0  0  0  0  0
    3.6235    2.0692   21.6570 H   0  0  0  0  0  0  0  0  0  0  0  0
   10.2684   -2.6719   22.3867 H   0  0  0  0  0  0  0  0  0  0  0  0
    7.8717   -0.0016   24.7596 H   0  0  0  0  0  0  0  0  0  0  0  0
    4.3785    2.0113   17.4257 H   0  0  0  0  0  0  0  0  0  0  0  0
    5.6763    0.7332   22.0915 H   0  0  0  0  0  0  0  0  0  0  0  0
    9.5443   -4.5616   23.7817 H   0  0  0  0  0  0  0  0  0  0  0  0
    7.1921   -1.8821   26.1908 H   0  0  0  0  0  0  0  0  0  0  0  0
   12.2480   -1.3139   21.6894 H   0  0  0  0  0  0  0  0  0  0  0  0
   14.2088   -2.5605   22.9207 H   0  0  0  0  0  0  0  0  0  0  0  0
   12.1694    0.3949   25.7008 H   0  0  0  0  0  0  0  0  0  0  0  0
    6.8959   -7.4107   26.7395 H   0  0  0  0  0  0  0  0  0  0  0  0
    6.9397   -7.1354   28.4820 H   0  0  0  0  0  0  0  0  0  0  0  0
    8.8680   -5.6272   28.2575 H   0  0  0  0  0  0  0  0  0  0  0  0
    9.2298   -7.1645   27.4783 H   0  0  0  0  0  0  0  0  0  0  0  0
    5.1908   -5.7466   27.3580 H   0  0  0  0  0  0  0  0  0  0  0  0
    6.3923   -4.7556   28.1809 H   0  0  0  0  0  0  0  0  0  0  0  0
    9.9344   -5.1808   26.1246 H   0  0  0  0  0  0  0  0  0  0  0  0
    8.8025   -6.2317   25.2571 H   0  0  0  0  0  0  0  0  0  0  0  0
    6.2290   -5.3369   25.1786 H   0  0  0  0  0  0  0  0  0  0  0  0
    5.9514   -3.7910   25.9971 H   0  0  0  0  0  0  0  0  0  0  0  0
   10.4364    1.2691   24.0532 H   0  0  0  0  0  0  0  0  0  0  0  0
   11.0496    1.3814   22.4256 H   0  0  0  0  0  0  0  0  0  0  0  0
   10.5267   -0.9929   22.0072 H   0  0  0  0  0  0  0  0  0  0  0  0
    8.0815   -1.6117   21.0754 H   0  0  0  0  0  0  0  0  0  0  0  0
  1  2  1  0  0  0  0
  1  5  2  0  0  0  0
  2  6  2  0  0  0  0
  3  7  2  0  0  0  0
  3 12  1  0  0  0  0
  4  8  1  0  0  0  0
  4 12  2  0  0  0  0
  5 14  1  0  0  0  0
  6 15  1  0  0  0  0
  7 16  1  0  0  0  0
  8 16  2  0  0  0  0
  9 10  2  0  0  0  0
  9 13  1  0  0  0  0
 10 31  1  0  0  0  0
 11 13  2  0  0  0  0
 11 31  1  0  0  0  0
 12 24  1  0  0  0  0
 13 23  1  0  0  0  0
 14 15  2  0  0  0  0
 14 25  1  0  0  0  0
 15 27  1  0  0  0  0
 16 28  1  0  0  0  0
 17 24  1  1  0  0  0
 17 29  1  0  0  0  0
 17 30  2  0  0  0  0
 18 19  1  0  0  0  0
 18 20  1  0  0  0  0
 19 21  1  0  0  0  0
 20 22  1  0  0  0  0
 21 28  1  0  0  0  0
 22 28  1  0  0  0  0
 23 24  1  0  0  0  0
 25 26  2  0  0  0  0
 26 27  1  0  0  0  0
 27 29  1  0  0  0  0
  1 32  1  0  0  0  0
  2 33  1  0  0  0  0
  3 34  1  0  0  0  0
  4 35  1  0  0  0  0
  5 36  1  0  0  0  0
  6 37  1  0  0  0  0
  7 38  1  0  0  0  0
  8 39  1  0  0  0  0
  9 40  1  0  0  0  0
 10 41  1  0  0  0  0
 11 42  1  0  0  0  0
 18 43  1  0  0  0  0
 18 44  1  0  0  0  0
 19 45  1  0  0  0  0
 19 46  1  0  0  0  0
 20 47  1  0  0  0  0
 20 48  1  0  0  0  0
 21 49  1  0  0  0  0
 21 50  1  0  0  0  0
 22 51  1  0  0  0  0
 22 52  1  0  0  0  0
 23 53  1  0  0  0  0
 23 54  1  0  0  0  0
 24 55  1  0  0  0  0
 29 56  1  0  0  0  0
M  END
> <clash_score>
0

> <docking_score>
-7.7322797775268555

> <overlap_score>
0.9449204802513123

$$$$
BENZO_176_2
  -OEChem-08222022443D

 56 60  0     1  0  0  0  0  0999 V2000
    3.8860    2.1050   19.5250 C   0  0  0  0  0  0  0  0  0  0  0  0
    4.2460    1.7520   20.8250 C   0  0  0  0  0  0  0  0  0  0  0  0
    9.5890   -2.4950   23.2210 C   0  0  0  0  0  0  0  0  0  0  0  0
    8.2550   -1.0010   24.5520 C   0  0  0  0  0  0  0  0  0  0  0  0
    4.6610    1.7170   18.4380 C   0  0  0  0  0  0  0  0  0  0  0  0
    5.3890    1.0010   21.0690 C   0  0  0  0  0  0  0  0  0  0  0  0
    9.1890   -3.5540   24.0140 C   0  0  0  0  0  0  0  0  0  0  0  0
    7.8700   -2.0610   25.3550 C   0  0  0  0  0  0  0  0  0  0  0  0
   13.0870   -0.3087   23.6126 C   0  0  0  0  0  0  0  0  0  0  0  0
   14.1878   -0.7845   22.9348 C   0  0  0  0  0  0  0  0  0  0  0  0
   12.3925   -0.0855   21.4058 C   0  0  0  0  0  0  0  0  0  0  0  0
    9.1280   -1.2090   23.4870 C   0  0  0  0  0  0  0  0  0  0  0  0
   12.0469    0.0961   22.7270 C   0  0  0  0  0  0  0  0  0  0  0  0
    5.7970    0.9500   18.6730 C   0  0  0  0  0  0  0  0  0  0  0  0
    6.1460    0.6070   19.9750 C   0  0  0  0  0  0  0  0  0  0  0  0
    8.3450   -3.3440   25.0980 C   0  0  0  0  0  0  0  0  0  0  0  0
    9.0430    0.2380   21.4940 C   0  0  0  0  0  0  0  0  0  0  0  0
    7.9496   -4.9537   28.7345 C   0  0  0  0  0  0  0  0  0  0  0  0
    6.8919   -4.0607   28.0818 C   0  0  0  0  0  0  0  0  0  0  0  0
    9.2470   -4.9693   27.9230 C   0  0  0  0  0  0  0  0  0  0  0  0
    6.6889   -4.4385   26.6147 C   0  0  0  0  0  0  0  0  0  0  0  0
    8.9871   -5.3207   26.4549 C   0  0  0  0  0  0  0  0  0  0  0  0
   10.7220    0.6590   23.1850 C   0  0  0  0  0  0  0  0  0  0  0  0
    9.5820   -0.1080   22.7000 C   0  0  2  0  0  0  0  0  0  0  0  0
    6.7100    0.3850   17.8100 N   0  0  0  0  0  0  0  0  0  0  0  0
    7.5840   -0.2700   18.5160 N   0  0  0  0  0  0  0  0  0  0  0  0
    7.2710   -0.1460   19.8310 N   0  0  0  0  0  0  0  0  0  0  0  0
    7.9769   -4.4027   25.9163 N   0  0  0  0  0  0  0  0  0  0  0  0
    8.0950   -0.7700   20.8440 N   0  0  0  0  0  0  0  0  0  0  0  0
    9.2950    1.3000   20.9480 O   0  0  0  0  0  0  0  0  0  0  0  0
   13.9651   -0.7419   21.2374 S   0  0  0  0  0  0  0  0  0  0  0  0
    2.9846    2.6932   19.3610 H   0  0  0  0  0  0  0  0  0  0  0  0
    3.6235    2.0692   21.6570 H   0  0  0  0  0  0  0  0  0  0  0  0
   10.2684   -2.6719   22.3867 H   0  0  0  0  0  0  0  0  0  0  0  0
    7.8717   -0.0016   24.7596 H   0  0  0  0  0  0  0  0  0  0  0  0
    4.3785    2.0113   17.4257 H   0  0  0  0  0  0  0  0  0  0  0  0
    5.6763    0.7332   22.0915 H   0  0  0  0  0  0  0  0  0  0  0  0
    9.5443   -4.5616   23.7817 H   0  0  0  0  0  0  0  0  0  0  0  0
    7.1921   -1.8821   26.1908 H   0  0  0  0  0  0  0  0  0  0  0  0
   13.0348   -0.2550   24.6927 H   0  0  0  0  0  0  0  0  0  0  0  0
   15.1124   -1.1544   23.3549 H   0  0  0  0  0  0  0  0  0  0  0  0
   11.8003    0.1355   20.5285 H   0  0  0  0  0  0  0  0  0  0  0  0
    8.1558   -4.5961   29.7550 H   0  0  0  0  0  0  0  0  0  0  0  0
    7.5611   -5.9778   28.8324 H   0  0  0  0  0  0  0  0  0  0  0  0
    5.9459   -4.1594   28.6209 H   0  0  0  0  0  0  0  0  0  0  0  0
    7.2011   -3.0160   28.1536 H   0  0  0  0  0  0  0  0  0  0  0  0
    9.7290   -3.9880   27.9846 H   0  0  0  0  0  0  0  0  0  0  0  0
    9.9437   -5.6964   28.3562 H   0  0  0  0  0  0  0  0  0  0  0  0
    6.2543   -5.4402   26.5659 H   0  0  0  0  0  0  0  0  0  0  0  0
    5.9909   -3.7397   26.1451 H   0  0  0  0  0  0  0  0  0  0  0  0
    9.9128   -5.2367   25.8843 H   0  0  0  0  0  0  0  0  0  0  0  0
    8.6365   -6.3517   26.3987 H   0  0  0  0  0  0  0  0  0  0  0  0
   10.7288    0.6889   24.2835 H   0  0  0  0  0  0  0  0  0  0  0  0
   10.6393    1.7086   22.8728 H   0  0  0  0  0  0  0  0  0  0  0  0
    8.6955    0.7993   23.3793 H   0  0  0  0  0  0  0  0  0  0  0  0
    8.0815   -1.6117   21.0754 H   0  0  0  0  0  0  0  0  0  0  0  0
  1  2  1  0  0  0  0
  1  5  2  0  0  0  0
  2  6  2  0  0  0  0
  3  7  2  0  0  0  0
  3 12  1  0  0  0  0
  4  8  1  0  0  0  0
  4 12  2  0  0  0  0
  5 14  1  0  0  0  0
  6 15  1  0  0  0  0
  7 16  1  0  0  0  0
  8 16  2  0  0  0  0
  9 10  2  0  0  0  0
  9 13  1  0  0  0  0
 10 31  1  0  0  0  0
 11 13  2  0  0  0  0
 11 31  1  0  0  0  0
 12 24  1  0  0  0  0
 13 23  1  0  0  0  0
 14 15  2  0  0  0  0
 14 25  1  0  0  0  0
 15 27  1  0  0  0  0
 16 28  1  0  0  0  0
 17 24  1  6  0  0  0
 17 29  1  0  0  0  0
 17 30  2  0  0  0  0
 18 19  1  0  0  0  0
 18 20  1  0  0  0  0
 19 21  1  0  0  0  0
 20 22  1  0  0  0  0
 21 28  1  0  0  0  0
 22 28  1  0  0  0  0
 23 24  1  0  0  0  0
 25 26  2  0  0  0  0
 26 27  1  0  0  0  0
 27 29  1  0  0  0  0
  1 32  1  0  0  0  0
  2 33  1  0  0  0  0
  3 34  1  0  0  0  0
  4 35  1  0  0  0  0
  5 36  1  0  0  0  0
  6 37  1  0  0  0  0
  7 38  1  0  0  0  0
  8 39  1  0  0  0  0
  9 40  1  0  0  0  0
 10 41  1  0  0  0  0
 11 42  1  0  0  0  0
 18 43  1  0  0  0  0
 18 44  1  0  0  0  0
 19 45  1  0  0  0  0
 19 46  1  0  0  0  0
 20 47  1  0  0  0  0
 20 48  1  0  0  0  0
 21 49  1  0  0  0  0
 21 50  1  0  0  0  0
 22 51  1  0  0  0  0
 22 52  1  0  0  0  0
 23 53  1  0  0  0  0
 23 54  1  0  0  0  0
 24 55  1  0  0  0  0
 29 56  1  0  0  0  0
M  END
> <clash_score>
0

> <docking_score>
-7.518723487854004

> <overlap_score>
0.9489722847938538

$$$$
BENZO_178_1
  -OEChem-08222022443D

 59 63  0     1  0  0  0  0  0999 V2000
    3.8860    2.1050   19.5250 C   0  0  0  0  0  0  0  0  0  0  0  0
    4.2460    1.7520   20.8250 C   0  0  0  0  0  0  0  0  0  0  0  0
   13.0596   -1.4816   25.2806 C   0  0  0  0  0  0  0  0  0  0  0  0
   11.9851   -0.6757   24.9042 C   0  0  0  0  0  0  0  0  0  0  0  0
    9.5890   -2.4950   23.2210 C   0  0  0  0  0  0  0  0  0  0  0  0
    8.2550   -1.0010   24.5520 C   0  0  0  0  0  0  0  0  0  0  0  0
    4.6610    1.7170   18.4380 C   0  0  0  0  0  0  0  0  0  0  0  0
    5.3890    1.0010   21.0690 C   0  0  0  0  0  0  0  0  0  0  0  0
    9.1890   -3.5540   24.0140 C   0  0  0  0  0  0  0  0  0  0  0  0
    7.8700   -2.0610   25.3550 C   0  0  0  0  0  0  0  0  0  0  0  0
   14.0356   -1.8245   24.3449 C   0  0  0  0  0  0  0  0  0  0  0  0
   12.8626   -0.5556   22.6564 C   0  0  0  0  0  0  0  0  0  0  0  0
    9.1280   -1.2090   23.4870 C   0  0  0  0  0  0  0  0  0  0  0  0
   11.8866   -0.2127   23.5922 C   0  0  0  0  0  0  0  0  0  0  0  0
    5.7970    0.9500   18.6730 C   0  0  0  0  0  0  0  0  0  0  0  0
    6.1460    0.6070   19.9750 C   0  0  0  0  0  0  0  0  0  0  0  0
    8.3450   -3.3440   25.0980 C   0  0  0  0  0  0  0  0  0  0  0  0
   13.9370   -1.3615   23.0328 C   0  0  0  0  0  0  0  0  0  0  0  0
    9.0430    0.2380   21.4940 C   0  0  0  0  0  0  0  0  0  0  0  0
    7.9496   -4.9537   28.7345 C   0  0  0  0  0  0  0  0  0  0  0  0
    6.8919   -4.0607   28.0818 C   0  0  0  0  0  0  0  0  0  0  0  0
    9.2470   -4.9693   27.9230 C   0  0  0  0  0  0  0  0  0  0  0  0
    6.6889   -4.4385   26.6147 C   0  0  0  0  0  0  0  0  0  0  0  0
    8.9871   -5.3207   26.4549 C   0  0  0  0  0  0  0  0  0  0  0  0
   10.7220    0.6590   23.1850 C   0  0  0  0  0  0  0  0  0  0  0  0
    9.5820   -0.1080   22.7000 C   0  0  1  0  0  0  0  0  0  0  0  0
    6.7100    0.3850   17.8100 N   0  0  0  0  0  0  0  0  0  0  0  0
    7.5840   -0.2700   18.5160 N   0  0  0  0  0  0  0  0  0  0  0  0
    7.2710   -0.1460   19.8310 N   0  0  0  0  0  0  0  0  0  0  0  0
    7.9769   -4.4027   25.9163 N   0  0  0  0  0  0  0  0  0  0  0  0
    8.0950   -0.7700   20.8440 N   0  0  0  0  0  0  0  0  0  0  0  0
    9.2950    1.3000   20.9480 O   0  0  0  0  0  0  0  0  0  0  0  0
   15.1409   -1.7858   21.8785 Cl  0  0  0  0  0  0  0  0  0  0  0  0
    2.9846    2.6932   19.3610 H   0  0  0  0  0  0  0  0  0  0  0  0
    3.6235    2.0692   21.6570 H   0  0  0  0  0  0  0  0  0  0  0  0
   13.1359   -1.8421   26.3024 H   0  0  0  0  0  0  0  0  0  0  0  0
   11.2292   -0.4136   25.6399 H   0  0  0  0  0  0  0  0  0  0  0  0
   10.2684   -2.6719   22.3867 H   0  0  0  0  0  0  0  0  0  0  0  0
    7.8717   -0.0016   24.7596 H   0  0  0  0  0  0  0  0  0  0  0  0
    4.3785    2.0113   17.4257 H   0  0  0  0  0  0  0  0  0  0  0  0
    5.6763    0.7332   22.0915 H   0  0  0  0  0  0  0  0  0  0  0  0
    9.5443   -4.5616   23.7817 H   0  0  0  0  0  0  0  0  0  0  0  0
    7.1921   -1.8821   26.1908 H   0  0  0  0  0  0  0  0  0  0  0  0
   14.8673   -2.4536   24.6523 H   0  0  0  0  0  0  0  0  0  0  0  0
   12.7815   -0.1917   21.6347 H   0  0  0  0  0  0  0  0  0  0  0  0
    8.1558   -4.5961   29.7550 H   0  0  0  0  0  0  0  0  0  0  0  0
    7.5611   -5.9778   28.8324 H   0  0  0  0  0  0  0  0  0  0  0  0
    5.9459   -4.1594   28.6209 H   0  0  0  0  0  0  0  0  0  0  0  0
    7.2011   -3.0160   28.1536 H   0  0  0  0  0  0  0  0  0  0  0  0
    9.7290   -3.9880   27.9846 H   0  0  0  0  0  0  0  0  0  0  0  0
    9.9437   -5.6964   28.3562 H   0  0  0  0  0  0  0  0  0  0  0  0
    6.2543   -5.4402   26.5659 H   0  0  0  0  0  0  0  0  0  0  0  0
    5.9909   -3.7397   26.1451 H   0  0  0  0  0  0  0  0  0  0  0  0
    9.9128   -5.2367   25.8843 H   0  0  0  0  0  0  0  0  0  0  0  0
    8.6365   -6.3517   26.3987 H   0  0  0  0  0  0  0  0  0  0  0  0
   10.4364    1.2691   24.0532 H   0  0  0  0  0  0  0  0  0  0  0  0
   11.0496    1.3814   22.4256 H   0  0  0  0  0  0  0  0  0  0  0  0
   10.5267   -0.9929   22.0072 H   0  0  0  0  0  0  0  0  0  0  0  0
    8.0815   -1.6117   21.0754 H   0  0  0  0  0  0  0  0  0  0  0  0
  1  2  1  0  0  0  0
  1  7  2  0  0  0  0
  2  8  2  0  0  0  0
  3  4  2  0  0  0  0
  3 11  1  0  0  0  0
  4 14  1  0  0  0  0
  5  9  2  0  0  0  0
  5 13  1  0  0  0  0
  6 10  1  0  0  0  0
  6 13  2  0  0  0  0
  7 15  1  0  0  0  0
  8 16  1  0  0  0  0
  9 17  1  0  0  0  0
 10 17  2  0  0  0  0
 11 18  2  0  0  0  0
 12 14  2  0  0  0  0
 12 18  1  0  0  0  0
 13 26  1  0  0  0  0
 14 25  1  0  0  0  0
 15 16  2  0  0  0  0
 15 27  1  0  0  0  0
 16 29  1  0  0  0  0
 17 30  1  0  0  0  0
 18 33  1  0  0  0  0
 19 26  1  1  0  0  0
 19 31  1  0  0  0  0
 19 32  2  0  0  0  0
 20 21  1  0  0  0  0
 20 22  1  0  0  0  0
 21 23  1  0  0  0  0
 22 24  1  0  0  0  0
 23 30  1  0  0  0  0
 24 30  1  0  0  0  0
 25 26  1  0  0  0  0
 27 28  2  0  0  0  0
 28 29  1  0  0  0  0
 29 31  1  0  0  0  0
  1 34  1  0  0  0  0
  2 35  1  0  0  0  0
  3 36  1  0  0  0  0
  4 37  1  0  0  0  0
  5 38  1  0  0  0  0
  6 39  1  0  0  0  0
  7 40  1  0  0  0  0
  8 41  1  0  0  0  0
  9 42  1  0  0  0  0
 10 43  1  0  0  0  0
 11 44  1  0  0  0  0
 12 45  1  0  0  0  0
 20 46  1  0  0  0  0
 20 47  1  0  0  0  0
 21 48  1  0  0  0  0
 21 49  1  0  0  0  0
 22 50  1  0  0  0  0
 22 51  1  0  0  0  0
 23 52  1  0  0  0  0
 23 53  1  0  0  0  0
 24 54  1  0  0  0  0
 24 55  1  0  0  0  0
 25 56  1  0  0  0  0
 25 57  1  0  0  0  0
 26 58  1  0  0  0  0
 31 59  1  0  0  0  0
M  END
> <clash_score>
0

> <docking_score>
-7.404379844665527

> <overlap_score>
0.977918267250061

$$$$
BENZO_178_2
  -OEChem-08222022443D

 59 63  0     1  0  0  0  0  0999 V2000
    3.8860    2.1050   19.5250 C   0  0  0  0  0  0  0  0  0  0  0  0
    4.2460    1.7520   20.8250 C   0  0  0  0  0  0  0  0  0  0  0  0
   13.3570   -1.0972   21.0849 C   0  0  0  0  0  0  0  0  0  0  0  0
   12.1338   -0.5782   21.5090 C   0  0  0  0  0  0  0  0  0  0  0  0
    9.5890   -2.4950   23.2210 C   0  0  0  0  0  0  0  0  0  0  0  0
    8.2550   -1.0010   24.5520 C   0  0  0  0  0  0  0  0  0  0  0  0
    4.6610    1.7170   18.4380 C   0  0  0  0  0  0  0  0  0  0  0  0
    5.3890    1.0010   21.0690 C   0  0  0  0  0  0  0  0  0  0  0  0
    9.1890   -3.5540   24.0140 C   0  0  0  0  0  0  0  0  0  0  0  0
    7.8700   -2.0610   25.3550 C   0  0  0  0  0  0  0  0  0  0  0  0
   14.4934   -0.9420   21.8788 C   0  0  0  0  0  0  0  0  0  0  0  0
   13.1832    0.2514   23.5209 C   0  0  0  0  0  0  0  0  0  0  0  0
    9.1280   -1.2090   23.4870 C   0  0  0  0  0  0  0  0  0  0  0  0
   12.0469    0.0961   22.7270 C   0  0  0  0  0  0  0  0  0  0  0  0
    5.7970    0.9500   18.6730 C   0  0  0  0  0  0  0  0  0  0  0  0
    6.1460    0.6070   19.9750 C   0  0  0  0  0  0  0  0  0  0  0  0
    8.3450   -3.3440   25.0980 C   0  0  0  0  0  0  0  0  0  0  0  0
   14.4065   -0.2677   23.0968 C   0  0  0  0  0  0  0  0  0  0  0  0
    9.0430    0.2380   21.4940 C   0  0  0  0  0  0  0  0  0  0  0  0
    7.9496   -4.9537   28.7345 C   0  0  0  0  0  0  0  0  0  0  0  0
    6.8919   -4.0607   28.0818 C   0  0  0  0  0  0  0  0  0  0  0  0
    9.2470   -4.9693   27.9230 C   0  0  0  0  0  0  0  0  0  0  0  0
    6.6889   -4.4385   26.6147 C   0  0  0  0  0  0  0  0  0  0  0  0
    8.9871   -5.3207   26.4549 C   0  0  0  0  0  0  0  0  0  0  0  0
   10.7220    0.6590   23.1850 C   0  0  0  0  0  0  0  0  0  0  0  0
    9.5820   -0.1080   22.7000 C   0  0  2  0  0  0  0  0  0  0  0  0
    6.7100    0.3850   17.8100 N   0  0  0  0  0  0  0  0  0  0  0  0
    7.5840   -0.2700   18.5160 N   0  0  0  0  0  0  0  0  0  0  0  0
    7.2710   -0.1460   19.8310 N   0  0  0  0  0  0  0  0  0  0  0  0
    7.9769   -4.4027   25.9163 N   0  0  0  0  0  0  0  0  0  0  0  0
    8.0950   -0.7700   20.8440 N   0  0  0  0  0  0  0  0  0  0  0  0
    9.2950    1.3000   20.9480 O   0  0  0  0  0  0  0  0  0  0  0  0
   15.8091   -0.0755   24.0753 Cl  0  0  0  0  0  0  0  0  0  0  0  0
    2.9846    2.6932   19.3610 H   0  0  0  0  0  0  0  0  0  0  0  0
    3.6235    2.0692   21.6570 H   0  0  0  0  0  0  0  0  0  0  0  0
   13.4243   -1.6221   20.1364 H   0  0  0  0  0  0  0  0  0  0  0  0
   11.2535   -0.7038   20.8839 H   0  0  0  0  0  0  0  0  0  0  0  0
   10.2684   -2.6719   22.3867 H   0  0  0  0  0  0  0  0  0  0  0  0
    7.8717   -0.0016   24.7596 H   0  0  0  0  0  0  0  0  0  0  0  0
    4.3785    2.0113   17.4257 H   0  0  0  0  0  0  0  0  0  0  0  0
    5.6763    0.7332   22.0915 H   0  0  0  0  0  0  0  0  0  0  0  0
    9.5443   -4.5616   23.7817 H   0  0  0  0  0  0  0  0  0  0  0  0
    7.1921   -1.8821   26.1908 H   0  0  0  0  0  0  0  0  0  0  0  0
   15.4403   -1.3515   21.5355 H   0  0  0  0  0  0  0  0  0  0  0  0
   13.1102    0.7775   24.4699 H   0  0  0  0  0  0  0  0  0  0  0  0
    8.1558   -4.5961   29.7550 H   0  0  0  0  0  0  0  0  0  0  0  0
    7.5611   -5.9778   28.8324 H   0  0  0  0  0  0  0  0  0  0  0  0
    5.9459   -4.1594   28.6209 H   0  0  0  0  0  0  0  0  0  0  0  0
    7.2011   -3.0160   28.1536 H   0  0  0  0  0  0  0  0  0  0  0  0
    9.7290   -3.9880   27.9846 H   0  0  0  0  0  0  0  0  0  0  0  0
    9.9437   -5.6964   28.3562 H   0  0  0  0  0  0  0  0  0  0  0  0
    6.2543   -5.4402   26.5659 H   0  0  0  0  0  0  0  0  0  0  0  0
    5.9909   -3.7397   26.1451 H   0  0  0  0  0  0  0  0  0  0  0  0
    9.9128   -5.2367   25.8843 H   0  0  0  0  0  0  0  0  0  0  0  0
    8.6365   -6.3517   26.3987 H   0  0  0  0  0  0  0  0  0  0  0  0
   10.7288    0.6889   24.2835 H   0  0  0  0  0  0  0  0  0  0  0  0
   10.6393    1.7086   22.8728 H   0  0  0  0  0  0  0  0  0  0  0  0
    8.6955    0.7993   23.3793 H   0  0  0  0  0  0  0  0  0  0  0  0
    8.0815   -1.6117   21.0754 H   0  0  0  0  0  0  0  0  0  0  0  0
  1  2  1  0  0  0  0
  1  7  2  0  0  0  0
  2  8  2  0  0  0  0
  3  4  2  0  0  0  0
  3 11  1  0  0  0  0
  4 14  1  0  0  0  0
  5  9  2  0  0  0  0
  5 13  1  0  0  0  0
  6 10  1  0  0  0  0
  6 13  2  0  0  0  0
  7 15  1  0  0  0  0
  8 16  1  0  0  0  0
  9 17  1  0  0  0  0
 10 17  2  0  0  0  0
 11 18  2  0  0  0  0
 12 14  2  0  0  0  0
 12 18  1  0  0  0  0
 13 26  1  0  0  0  0
 14 25  1  0  0  0  0
 15 16  2  0  0  0  0
 15 27  1  0  0  0  0
 16 29  1  0  0  0  0
 17 30  1  0  0  0  0
 18 33  1  0  0  0  0
 19 26  1  6  0  0  0
 19 31  1  0  0  0  0
 19 32  2  0  0  0  0
 20 21  1  0  0  0  0
 20 22  1  0  0  0  0
 21 23  1  0  0  0  0
 22 24  1  0  0  0  0
 23 30  1  0  0  0  0
 24 30  1  0  0  0  0
 25 26  1  0  0  0  0
 27 28  2  0  0  0  0
 28 29  1  0  0  0  0
 29 31  1  0  0  0  0
  1 34  1  0  0  0  0
  2 35  1  0  0  0  0
  3 36  1  0  0  0  0
  4 37  1  0  0  0  0
  5 38  1  0  0  0  0
  6 39  1  0  0  0  0
  7 40  1  0  0  0  0
  8 41  1  0  0  0  0
  9 42  1  0  0  0  0
 10 43  1  0  0  0  0
 11 44  1  0  0  0  0
 12 45  1  0  0  0  0
 20 46  1  0  0  0  0
 20 47  1  0  0  0  0
 21 48  1  0  0  0  0
 21 49  1  0  0  0  0
 22 50  1  0  0  0  0
 22 51  1  0  0  0  0
 23 52  1  0  0  0  0
 23 53  1  0  0  0  0
 24 54  1  0  0  0  0
 24 55  1  0  0  0  0
 25 56  1  0  0  0  0
 25 57  1  0  0  0  0
 26 58  1  0  0  0  0
 31 59  1  0  0  0  0
M  END
> <clash_score>
1.4596612754093976

> <docking_score>
-7.008114814758301

> <overlap_score>
0.9542142152786255

$$$$
BENZO_181_1
  -OEChem-08222022443D

 47 50  0     1  0  0  0  0  0999 V2000
   14.5077   -0.9101   21.8815 C   0  0  0  0  0  0  0  0  0  0  0  0
   13.9442   -1.3531   23.0780 C   0  0  0  0  0  0  0  0  0  0  0  0
   13.8435    0.0419   21.1080 C   0  0  0  0  0  0  0  0  0  0  0  0
    3.8860    2.1050   19.5250 C   0  0  0  0  0  0  0  0  0  0  0  0
    4.2460    1.7520   20.8250 C   0  0  0  0  0  0  0  0  0  0  0  0
   12.7163   -0.8442   23.5011 C   0  0  0  0  0  0  0  0  0  0  0  0
   12.6156    0.5507   21.5310 C   0  0  0  0  0  0  0  0  0  0  0  0
    9.1890   -3.5540   24.0140 C   0  0  0  0  0  0  0  0  0  0  0  0
    7.8700   -2.0610   25.3550 C   0  0  0  0  0  0  0  0  0  0  0  0
    9.5890   -2.4950   23.2210 C   0  0  0  0  0  0  0  0  0  0  0  0
    8.2550   -1.0010   24.5520 C   0  0  0  0  0  0  0  0  0  0  0  0
    4.6610    1.7170   18.4380 C   0  0  0  0  0  0  0  0  0  0  0  0
    5.3890    1.0010   21.0690 C   0  0  0  0  0  0  0  0  0  0  0  0
    8.3450   -3.3440   25.0980 C   0  0  0  0  0  0  0  0  0  0  0  0
   12.0519    0.1077   22.7276 C   0  0  0  0  0  0  0  0  0  0  0  0
    9.1280   -1.2090   23.4870 C   0  0  0  0  0  0  0  0  0  0  0  0
    5.7970    0.9500   18.6730 C   0  0  0  0  0  0  0  0  0  0  0  0
    6.1460    0.6070   19.9750 C   0  0  0  0  0  0  0  0  0  0  0  0
    9.0430    0.2380   21.4940 C   0  0  0  0  0  0  0  0  0  0  0  0
    7.9517   -4.4787   25.9770 C   0  0  0  0  0  0  0  0  0  0  0  0
   10.7220    0.6590   23.1850 C   0  0  0  0  0  0  0  0  0  0  0  0
    9.5820   -0.1080   22.7000 C   0  0  1  0  0  0  0  0  0  0  0  0
    6.7100    0.3850   17.8100 N   0  0  0  0  0  0  0  0  0  0  0  0
    7.5840   -0.2700   18.5160 N   0  0  0  0  0  0  0  0  0  0  0  0
    7.2710   -0.1460   19.8310 N   0  0  0  0  0  0  0  0  0  0  0  0
    8.0950   -0.7700   20.8440 N   0  0  0  0  0  0  0  0  0  0  0  0
    9.2950    1.3000   20.9480 O   0  0  0  0  0  0  0  0  0  0  0  0
   15.4645   -1.3054   21.5529 H   0  0  0  0  0  0  0  0  0  0  0  0
   14.4618   -2.0934   23.6809 H   0  0  0  0  0  0  0  0  0  0  0  0
   14.2825    0.3878   20.1769 H   0  0  0  0  0  0  0  0  0  0  0  0
    2.9846    2.6932   19.3610 H   0  0  0  0  0  0  0  0  0  0  0  0
    3.6235    2.0692   21.6570 H   0  0  0  0  0  0  0  0  0  0  0  0
   12.2846   -1.1954   24.4347 H   0  0  0  0  0  0  0  0  0  0  0  0
   12.1051    1.2920   20.9218 H   0  0  0  0  0  0  0  0  0  0  0  0
    9.5416   -4.5625   23.7818 H   0  0  0  0  0  0  0  0  0  0  0  0
    7.1926   -1.8847   26.1916 H   0  0  0  0  0  0  0  0  0  0  0  0
   10.2688   -2.6720   22.3870 H   0  0  0  0  0  0  0  0  0  0  0  0
    7.8705   -0.0015   24.7579 H   0  0  0  0  0  0  0  0  0  0  0  0
    4.3785    2.0113   17.4257 H   0  0  0  0  0  0  0  0  0  0  0  0
    5.6763    0.7332   22.0915 H   0  0  0  0  0  0  0  0  0  0  0  0
    8.6661   -4.5883   26.8021 H   0  0  0  0  0  0  0  0  0  0  0  0
    6.9508   -4.3263   26.4014 H   0  0  0  0  0  0  0  0  0  0  0  0
    7.9188   -5.4228   25.4175 H   0  0  0  0  0  0  0  0  0  0  0  0
   10.7195    0.6680   24.2839 H   0  0  0  0  0  0  0  0  0  0  0  0
   10.6395    1.7141   22.8921 H   0  0  0  0  0  0  0  0  0  0  0  0
    8.6943    0.7922   23.3819 H   0  0  0  0  0  0  0  0  0  0  0  0
    8.1038   -1.6155   21.0990 H   0  0  0  0  0  0  0  0  0  0  0  0
  1  2  1  0  0  0  0
  1  3  2  0  0  0  0
  2  6  2  0  0  0  0
  3  7  1  0  0  0  0
  4  5  1  0  0  0  0
  4 12  2  0  0  0  0
  5 13  2  0  0  0  0
  6 15  1  0  0  0  0
  7 15  2  0  0  0  0
  8 10  2  0  0  0  0
  8 14  1  0  0  0  0
  9 11  1  0  0  0  0
  9 14  2  0  0  0  0
 10 16  1  0  0  0  0
 11 16  2  0  0  0  0
 12 17  1  0  0  0  0
 13 18  1  0  0  0  0
 14 20  1  0  0  0  0
 15 21  1  0  0  0  0
 16 22  1  0  0  0  0
 17 18  2  0  0  0  0
 17 23  1  0  0  0  0
 18 25  1  0  0  0  0
 19 22  1  0  0  0  0
 19 26  1  0  0  0  0
 19 27  2  0  0  0  0
 21 22  1  1  0  0  0
 23 24  2  0  0  0  0
 24 25  1  0  0  0  0
 25 26  1  0  0  0  0
  1 28  1  0  0  0  0
  2 29  1  0  0  0  0
  3 30  1  0  0  0  0
  4 31  1  0  0  0  0
  5 32  1  0  0  0  0
  6 33  1  0  0  0  0
  7 34  1  0  0  0  0
  8 35  1  0  0  0  0
  9 36  1  0  0  0  0
 10 37  1  0  0  0  0
 11 38  1  0  0  0  0
 12 39  1  0  0  0  0
 13 40  1  0  0  0  0
 20 41  1  0  0  0  0
 20 42  1  0  0  0  0
 20 43  1  0  0  0  0
 21 44  1  0  0  0  0
 21 45  1  0  0  0  0
 22 46  1  0  0  0  0
 26 47  1  0  0  0  0
M  END
> <clash_score>
0

> <docking_score>
-6.586071014404297

> <overlap_score>
0.8694387674331665

$$$$
BENZO_179_1
  -OEChem-08222022443D

 59 63  0     1  0  0  0  0  0999 V2000
    3.8860    2.1050   19.5250 C   0  0  0  0  0  0  0  0  0  0  0  0
    4.2460    1.7520   20.8250 C   0  0  0  0  0  0  0  0  0  0  0  0
    9.5890   -2.4950   23.2210 C   0  0  0  0  0  0  0  0  0  0  0  0
    8.2550   -1.0010   24.5520 C   0  0  0  0  0  0  0  0  0  0  0  0
    4.6610    1.7170   18.4380 C   0  0  0  0  0  0  0  0  0  0  0  0
    5.3890    1.0010   21.0690 C   0  0  0  0  0  0  0  0  0  0  0  0
    9.1890   -3.5540   24.0140 C   0  0  0  0  0  0  0  0  0  0  0  0
    7.8700   -2.0610   25.3550 C   0  0  0  0  0  0  0  0  0  0  0  0
   13.2863    0.1542   23.3919 C   0  0  0  0  0  0  0  0  0  0  0  0
   12.3112   -0.5906   21.5672 C   0  0  0  0  0  0  0  0  0  0  0  0
    9.1280   -1.2090   23.4870 C   0  0  0  0  0  0  0  0  0  0  0  0
   12.0469    0.0961   22.7270 C   0  0  0  0  0  0  0  0  0  0  0  0
    5.7970    0.9500   18.6730 C   0  0  0  0  0  0  0  0  0  0  0  0
    6.1460    0.6070   19.9750 C   0  0  0  0  0  0  0  0  0  0  0  0
    8.3450   -3.3440   25.0980 C   0  0  0  0  0  0  0  0  0  0  0  0
    9.0430    0.2380   21.4940 C   0  0  0  0  0  0  0  0  0  0  0  0
    7.9496   -4.9537   28.7345 C   0  0  0  0  0  0  0  0  0  0  0  0
    6.8919   -4.0607   28.0818 C   0  0  0  0  0  0  0  0  0  0  0  0
    9.2470   -4.9693   27.9230 C   0  0  0  0  0  0  0  0  0  0  0  0
    6.6889   -4.4385   26.6147 C   0  0  0  0  0  0  0  0  0  0  0  0
    8.9871   -5.3207   26.4549 C   0  0  0  0  0  0  0  0  0  0  0  0
   14.3866   -1.6105   20.6020 C   0  0  0  0  0  0  0  0  0  0  0  0
   10.7220    0.6590   23.1850 C   0  0  0  0  0  0  0  0  0  0  0  0
    9.5820   -0.1080   22.7000 C   0  0  1  0  0  0  0  0  0  0  0  0
   14.2653   -0.4478   22.7113 N   0  0  0  0  0  0  0  0  0  0  0  0
    6.7100    0.3850   17.8100 N   0  0  0  0  0  0  0  0  0  0  0  0
    7.5840   -0.2700   18.5160 N   0  0  0  0  0  0  0  0  0  0  0  0
   13.6411   -0.8907   21.6066 N   0  0  0  0  0  0  0  0  0  0  0  0
    7.2710   -0.1460   19.8310 N   0  0  0  0  0  0  0  0  0  0  0  0
    7.9769   -4.4027   25.9163 N   0  0  0  0  0  0  0  0  0  0  0  0
    8.0950   -0.7700   20.8440 N   0  0  0  0  0  0  0  0  0  0  0  0
    9.2950    1.3000   20.9480 O   0  0  0  0  0  0  0  0  0  0  0  0
    2.9846    2.6932   19.3610 H   0  0  0  0  0  0  0  0  0  0  0  0
    3.6235    2.0692   21.6570 H   0  0  0  0  0  0  0  0  0  0  0  0
   10.2684   -2.6719   22.3867 H   0  0  0  0  0  0  0  0  0  0  0  0
    7.8717   -0.0016   24.7596 H   0  0  0  0  0  0  0  0  0  0  0  0
    4.3785    2.0113   17.4257 H   0  0  0  0  0  0  0  0  0  0  0  0
    5.6763    0.7332   22.0915 H   0  0  0  0  0  0  0  0  0  0  0  0
    9.5443   -4.5616   23.7817 H   0  0  0  0  0  0  0  0  0  0  0  0
    7.1921   -1.8821   26.1908 H   0  0  0  0  0  0  0  0  0  0  0  0
   13.5193    0.6087   24.3444 H   0  0  0  0  0  0  0  0  0  0  0  0
   11.6817   -0.8851   20.7385 H   0  0  0  0  0  0  0  0  0  0  0  0
    8.1558   -4.5961   29.7550 H   0  0  0  0  0  0  0  0  0  0  0  0
    7.5611   -5.9778   28.8324 H   0  0  0  0  0  0  0  0  0  0  0  0
    5.9459   -4.1594   28.6209 H   0  0  0  0  0  0  0  0  0  0  0  0
    7.2011   -3.0160   28.1536 H   0  0  0  0  0  0  0  0  0  0  0  0
    9.7290   -3.9880   27.9846 H   0  0  0  0  0  0  0  0  0  0  0  0
    9.9437   -5.6964   28.3562 H   0  0  0  0  0  0  0  0  0  0  0  0
    6.2543   -5.4402   26.5659 H   0  0  0  0  0  0  0  0  0  0  0  0
    5.9909   -3.7397   26.1451 H   0  0  0  0  0  0  0  0  0  0  0  0
    9.9128   -5.2367   25.8843 H   0  0  0  0  0  0  0  0  0  0  0  0
    8.6365   -6.3517   26.3987 H   0  0  0  0  0  0  0  0  0  0  0  0
   14.7772   -0.8827   19.8859 H   0  0  0  0  0  0  0  0  0  0  0  0
   15.2060   -2.1563   21.0779 H   0  0  0  0  0  0  0  0  0  0  0  0
   13.7245   -2.3229   20.1020 H   0  0  0  0  0  0  0  0  0  0  0  0
   10.7288    0.6889   24.2835 H   0  0  0  0  0  0  0  0  0  0  0  0
   10.6393    1.7086   22.8728 H   0  0  0  0  0  0  0  0  0  0  0  0
    8.6955    0.7993   23.3793 H   0  0  0  0  0  0  0  0  0  0  0  0
    8.0815   -1.6117   21.0754 H   0  0  0  0  0  0  0  0  0  0  0  0
  1  2  1  0  0  0  0
  1  5  2  0  0  0  0
  2  6  2  0  0  0  0
  3  7  2  0  0  0  0
  3 11  1  0  0  0  0
  4  8  1  0  0  0  0
  4 11  2  0  0  0  0
  5 13  1  0  0  0  0
  6 14  1  0  0  0  0
  7 15  1  0  0  0  0
  8 15  2  0  0  0  0
  9 12  1  0  0  0  0
  9 25  2  0  0  0  0
 10 12  2  0  0  0  0
 10 28  1  0  0  0  0
 11 24  1  0  0  0  0
 12 23  1  0  0  0  0
 13 14  2  0  0  0  0
 13 26  1  0  0  0  0
 14 29  1  0  0  0  0
 15 30  1  0  0  0  0
 16 24  1  0  0  0  0
 16 31  1  0  0  0  0
 16 32  2  0  0  0  0
 17 18  1  0  0  0  0
 17 19  1  0  0  0  0
 18 20  1  0  0  0  0
 19 21  1  0  0  0  0
 20 30  1  0  0  0  0
 21 30  1  0  0  0  0
 22 28  1  0  0  0  0
 23 24  1  1  0  0  0
 25 28  1  0  0  0  0
 26 27  2  0  0  0  0
 27 29  1  0  0  0  0
 29 31  1  0  0  0  0
  1 33  1  0  0  0  0
  2 34  1  0  0  0  0
  3 35  1  0  0  0  0
  4 36  1  0  0  0  0
  5 37  1  0  0  0  0
  6 38  1  0  0  0  0
  7 39  1  0  0  0  0
  8 40  1  0  0  0  0
  9 41  1  0  0  0  0
 10 42  1  0  0  0  0
 17 43  1  0  0  0  0
 17 44  1  0  0  0  0
 18 45  1  0  0  0  0
 18 46  1  0  0  0  0
 19 47  1  0  0  0  0
 19 48  1  0  0  0  0
 20 49  1  0  0  0  0
 20 50  1  0  0  0  0
 21 51  1  0  0  0  0
 21 52  1  0  0  0  0
 22 53  1  0  0  0  0
 22 54  1  0  0  0  0
 22 55  1  0  0  0  0
 23 56  1  0  0  0  0
 23 57  1  0  0  0  0
 24 58  1  0  0  0  0
 31 59  1  0  0  0  0
M  END
> <clash_score>
0

> <docking_score>
-8.889019012451172

> <overlap_score>
0.9524790048599243

$$$$
BENZO_179_2
  -OEChem-08222022443D

 59 63  0     1  0  0  0  0  0999 V2000
    3.8860    2.1050   19.5250 C   0  0  0  0  0  0  0  0  0  0  0  0
    4.2460    1.7520   20.8250 C   0  0  0  0  0  0  0  0  0  0  0  0
    9.5890   -2.4950   23.2210 C   0  0  0  0  0  0  0  0  0  0  0  0
    8.2550   -1.0010   24.5520 C   0  0  0  0  0  0  0  0  0  0  0  0
    4.6610    1.7170   18.4380 C   0  0  0  0  0  0  0  0  0  0  0  0
    5.3890    1.0010   21.0690 C   0  0  0  0  0  0  0  0  0  0  0  0
    9.1890   -3.5540   24.0140 C   0  0  0  0  0  0  0  0  0  0  0  0
    7.8700   -2.0610   25.3550 C   0  0  0  0  0  0  0  0  0  0  0  0
   12.1481   -0.7687   24.8588 C   0  0  0  0  0  0  0  0  0  0  0  0
   12.9278   -0.6432   22.8067 C   0  0  0  0  0  0  0  0  0  0  0  0
    9.1280   -1.2090   23.4870 C   0  0  0  0  0  0  0  0  0  0  0  0
   11.8866   -0.2127   23.5922 C   0  0  0  0  0  0  0  0  0  0  0  0
    5.7970    0.9500   18.6730 C   0  0  0  0  0  0  0  0  0  0  0  0
    6.1460    0.6070   19.9750 C   0  0  0  0  0  0  0  0  0  0  0  0
    8.3450   -3.3440   25.0980 C   0  0  0  0  0  0  0  0  0  0  0  0
    9.0430    0.2380   21.4940 C   0  0  0  0  0  0  0  0  0  0  0  0
    7.9496   -4.9537   28.7345 C   0  0  0  0  0  0  0  0  0  0  0  0
    6.8919   -4.0607   28.0818 C   0  0  0  0  0  0  0  0  0  0  0  0
    9.2470   -4.9693   27.9230 C   0  0  0  0  0  0  0  0  0  0  0  0
    6.6889   -4.4385   26.6147 C   0  0  0  0  0  0  0  0  0  0  0  0
    8.9871   -5.3207   26.4549 C   0  0  0  0  0  0  0  0  0  0  0  0
   14.9394   -2.0726   23.2413 C   0  0  0  0  0  0  0  0  0  0  0  0
   10.7220    0.6590   23.1850 C   0  0  0  0  0  0  0  0  0  0  0  0
    9.5820   -0.1080   22.7000 C   0  0  2  0  0  0  0  0  0  0  0  0
   13.2676   -1.4968   24.8812 N   0  0  0  0  0  0  0  0  0  0  0  0
    6.7100    0.3850   17.8100 N   0  0  0  0  0  0  0  0  0  0  0  0
    7.5840   -0.2700   18.5160 N   0  0  0  0  0  0  0  0  0  0  0  0
   13.7187   -1.4015   23.6188 N   0  0  0  0  0  0  0  0  0  0  0  0
    7.2710   -0.1460   19.8310 N   0  0  0  0  0  0  0  0  0  0  0  0
    7.9769   -4.4027   25.9163 N   0  0  0  0  0  0  0  0  0  0  0  0
    8.0950   -0.7700   20.8440 N   0  0  0  0  0  0  0  0  0  0  0  0
    9.2950    1.3000   20.9480 O   0  0  0  0  0  0  0  0  0  0  0  0
    2.9846    2.6932   19.3610 H   0  0  0  0  0  0  0  0  0  0  0  0
    3.6235    2.0692   21.6570 H   0  0  0  0  0  0  0  0  0  0  0  0
   10.2684   -2.6719   22.3867 H   0  0  0  0  0  0  0  0  0  0  0  0
    7.8717   -0.0016   24.7596 H   0  0  0  0  0  0  0  0  0  0  0  0
    4.3785    2.0113   17.4257 H   0  0  0  0  0  0  0  0  0  0  0  0
    5.6763    0.7332   22.0915 H   0  0  0  0  0  0  0  0  0  0  0  0
    9.5443   -4.5616   23.7817 H   0  0  0  0  0  0  0  0  0  0  0  0
    7.1921   -1.8821   26.1908 H   0  0  0  0  0  0  0  0  0  0  0  0
   11.5706   -0.6757   25.7677 H   0  0  0  0  0  0  0  0  0  0  0  0
   13.1667   -0.4796   21.7645 H   0  0  0  0  0  0  0  0  0  0  0  0
    8.1558   -4.5961   29.7550 H   0  0  0  0  0  0  0  0  0  0  0  0
    7.5611   -5.9778   28.8324 H   0  0  0  0  0  0  0  0  0  0  0  0
    5.9459   -4.1594   28.6209 H   0  0  0  0  0  0  0  0  0  0  0  0
    7.2011   -3.0160   28.1536 H   0  0  0  0  0  0  0  0  0  0  0  0
    9.7290   -3.9880   27.9846 H   0  0  0  0  0  0  0  0  0  0  0  0
    9.9437   -5.6964   28.3562 H   0  0  0  0  0  0  0  0  0  0  0  0
    6.2543   -5.4402   26.5659 H   0  0  0  0  0  0  0  0  0  0  0  0
    5.9909   -3.7397   26.1451 H   0  0  0  0  0  0  0  0  0  0  0  0
    9.9128   -5.2367   25.8843 H   0  0  0  0  0  0  0  0  0  0  0  0
    8.6365   -6.3517   26.3987 H   0  0  0  0  0  0  0  0  0  0  0  0
   15.7702   -1.3830   23.4123 H   0  0  0  0  0  0  0  0  0  0  0  0
   15.0610   -2.9751   23.8468 H   0  0  0  0  0  0  0  0  0  0  0  0
   14.8856   -2.3540   22.1859 H   0  0  0  0  0  0  0  0  0  0  0  0
   10.4364    1.2691   24.0532 H   0  0  0  0  0  0  0  0  0  0  0  0
   11.0496    1.3814   22.4256 H   0  0  0  0  0  0  0  0  0  0  0  0
   10.5267   -0.9929   22.0072 H   0  0  0  0  0  0  0  0  0  0  0  0
    8.0815   -1.6117   21.0754 H   0  0  0  0  0  0  0  0  0  0  0  0
  1  2  1  0  0  0  0
  1  5  2  0  0  0  0
  2  6  2  0  0  0  0
  3  7  2  0  0  0  0
  3 11  1  0  0  0  0
  4  8  1  0  0  0  0
  4 11  2  0  0  0  0
  5 13  1  0  0  0  0
  6 14  1  0  0  0  0
  7 15  1  0  0  0  0
  8 15  2  0  0  0  0
  9 12  1  0  0  0  0
  9 25  2  0  0  0  0
 10 12  2  0  0  0  0
 10 28  1  0  0  0  0
 11 24  1  0  0  0  0
 12 23  1  0  0  0  0
 13 14  2  0  0  0  0
 13 26  1  0  0  0  0
 14 29  1  0  0  0  0
 15 30  1  0  0  0  0
 16 24  1  0  0  0  0
 16 31  1  0  0  0  0
 16 32  2  0  0  0  0
 17 18  1  0  0  0  0
 17 19  1  0  0  0  0
 18 20  1  0  0  0  0
 19 21  1  0  0  0  0
 20 30  1  0  0  0  0
 21 30  1  0  0  0  0
 22 28  1  0  0  0  0
 23 24  1  6  0  0  0
 25 28  1  0  0  0  0
 26 27  2  0  0  0  0
 27 29  1  0  0  0  0
 29 31  1  0  0  0  0
  1 33  1  0  0  0  0
  2 34  1  0  0  0  0
  3 35  1  0  0  0  0
  4 36  1  0  0  0  0
  5 37  1  0  0  0  0
  6 38  1  0  0  0  0
  7 39  1  0  0  0  0
  8 40  1  0  0  0  0
  9 41  1  0  0  0  0
 10 42  1  0  0  0  0
 17 43  1  0  0  0  0
 17 44  1  0  0  0  0
 18 45  1  0  0  0  0
 18 46  1  0  0  0  0
 19 47  1  0  0  0  0
 19 48  1  0  0  0  0
 20 49  1  0  0  0  0
 20 50  1  0  0  0  0
 21 51  1  0  0  0  0
 21 52  1  0  0  0  0
 22 53  1  0  0  0  0
 22 54  1  0  0  0  0
 22 55  1  0  0  0  0
 23 56  1  0  0  0  0
 23 57  1  0  0  0  0
 24 58  1  0  0  0  0
 31 59  1  0  0  0  0
M  END
> <clash_score>
0

> <docking_score>
-7.338972568511963

> <overlap_score>
0.9738388061523438

$$$$
BENZO_181_2
  -OEChem-08222022443D

 47 50  0     1  0  0  0  0  0999 V2000
   14.0513   -1.7974   24.3577 C   0  0  0  0  0  0  0  0  0  0  0  0
   13.0726   -1.4574   25.2916 C   0  0  0  0  0  0  0  0  0  0  0  0
   13.9501   -1.3405   23.0436 C   0  0  0  0  0  0  0  0  0  0  0  0
    3.8860    2.1050   19.5250 C   0  0  0  0  0  0  0  0  0  0  0  0
    4.2460    1.7520   20.8250 C   0  0  0  0  0  0  0  0  0  0  0  0
   11.9927   -0.6606   24.9115 C   0  0  0  0  0  0  0  0  0  0  0  0
   12.8701   -0.5437   22.6635 C   0  0  0  0  0  0  0  0  0  0  0  0
    9.1890   -3.5540   24.0140 C   0  0  0  0  0  0  0  0  0  0  0  0
    7.8700   -2.0610   25.3550 C   0  0  0  0  0  0  0  0  0  0  0  0
    9.5890   -2.4950   23.2210 C   0  0  0  0  0  0  0  0  0  0  0  0
    8.2550   -1.0010   24.5520 C   0  0  0  0  0  0  0  0  0  0  0  0
    4.6610    1.7170   18.4380 C   0  0  0  0  0  0  0  0  0  0  0  0
    5.3890    1.0010   21.0690 C   0  0  0  0  0  0  0  0  0  0  0  0
    8.3450   -3.3440   25.0980 C   0  0  0  0  0  0  0  0  0  0  0  0
   11.8914   -0.2037   23.5974 C   0  0  0  0  0  0  0  0  0  0  0  0
    9.1280   -1.2090   23.4870 C   0  0  0  0  0  0  0  0  0  0  0  0
    5.7970    0.9500   18.6730 C   0  0  0  0  0  0  0  0  0  0  0  0
    6.1460    0.6070   19.9750 C   0  0  0  0  0  0  0  0  0  0  0  0
    9.0430    0.2380   21.4940 C   0  0  0  0  0  0  0  0  0  0  0  0
    7.9517   -4.4787   25.9770 C   0  0  0  0  0  0  0  0  0  0  0  0
   10.7220    0.6590   23.1850 C   0  0  0  0  0  0  0  0  0  0  0  0
    9.5820   -0.1080   22.7000 C   0  0  2  0  0  0  0  0  0  0  0  0
    6.7100    0.3850   17.8100 N   0  0  0  0  0  0  0  0  0  0  0  0
    7.5840   -0.2700   18.5160 N   0  0  0  0  0  0  0  0  0  0  0  0
    7.2710   -0.1460   19.8310 N   0  0  0  0  0  0  0  0  0  0  0  0
    8.0950   -0.7700   20.8440 N   0  0  0  0  0  0  0  0  0  0  0  0
    9.2950    1.3000   20.9480 O   0  0  0  0  0  0  0  0  0  0  0  0
   14.8928   -2.4167   24.6542 H   0  0  0  0  0  0  0  0  0  0  0  0
   13.1518   -1.8121   26.3151 H   0  0  0  0  0  0  0  0  0  0  0  0
   14.7124   -1.6041   22.3165 H   0  0  0  0  0  0  0  0  0  0  0  0
    2.9846    2.6932   19.3610 H   0  0  0  0  0  0  0  0  0  0  0  0
    3.6235    2.0692   21.6570 H   0  0  0  0  0  0  0  0  0  0  0  0
   11.2348   -0.4008   25.6459 H   0  0  0  0  0  0  0  0  0  0  0  0
   12.7995   -0.1925   21.6375 H   0  0  0  0  0  0  0  0  0  0  0  0
    9.5416   -4.5625   23.7818 H   0  0  0  0  0  0  0  0  0  0  0  0
    7.1926   -1.8847   26.1916 H   0  0  0  0  0  0  0  0  0  0  0  0
   10.2688   -2.6720   22.3870 H   0  0  0  0  0  0  0  0  0  0  0  0
    7.8705   -0.0015   24.7579 H   0  0  0  0  0  0  0  0  0  0  0  0
    4.3785    2.0113   17.4257 H   0  0  0  0  0  0  0  0  0  0  0  0
    5.6763    0.7332   22.0915 H   0  0  0  0  0  0  0  0  0  0  0  0
    8.6661   -4.5883   26.8021 H   0  0  0  0  0  0  0  0  0  0  0  0
    6.9508   -4.3263   26.4014 H   0  0  0  0  0  0  0  0  0  0  0  0
    7.9188   -5.4228   25.4175 H   0  0  0  0  0  0  0  0  0  0  0  0
   10.4198    1.2578   24.0555 H   0  0  0  0  0  0  0  0  0  0  0  0
   11.0503    1.3920   22.4361 H   0  0  0  0  0  0  0  0  0  0  0  0
   10.5231   -0.9933   22.0106 H   0  0  0  0  0  0  0  0  0  0  0  0
    8.1038   -1.6155   21.0990 H   0  0  0  0  0  0  0  0  0  0  0  0
  1  2  1  0  0  0  0
  1  3  2  0  0  0  0
  2  6  2  0  0  0  0
  3  7  1  0  0  0  0
  4  5  1  0  0  0  0
  4 12  2  0  0  0  0
  5 13  2  0  0  0  0
  6 15  1  0  0  0  0
  7 15  2  0  0  0  0
  8 10  2  0  0  0  0
  8 14  1  0  0  0  0
  9 11  1  0  0  0  0
  9 14  2  0  0  0  0
 10 16  1  0  0  0  0
 11 16  2  0  0  0  0
 12 17  1  0  0  0  0
 13 18  1  0  0  0  0
 14 20  1  0  0  0  0
 15 21  1  0  0  0  0
 16 22  1  0  0  0  0
 17 18  2  0  0  0  0
 17 23  1  0  0  0  0
 18 25  1  0  0  0  0
 19 22  1  0  0  0  0
 19 26  1  0  0  0  0
 19 27  2  0  0  0  0
 21 22  1  6  0  0  0
 23 24  2  0  0  0  0
 24 25  1  0  0  0  0
 25 26  1  0  0  0  0
  1 28  1  0  0  0  0
  2 29  1  0  0  0  0
  3 30  1  0  0  0  0
  4 31  1  0  0  0  0
  5 32  1  0  0  0  0
  6 33  1  0  0  0  0
  7 34  1  0  0  0  0
  8 35  1  0  0  0  0
  9 36  1  0  0  0  0
 10 37  1  0  0  0  0
 11 38  1  0  0  0  0
 12 39  1  0  0  0  0
 13 40  1  0  0  0  0
 20 41  1  0  0  0  0
 20 42  1  0  0  0  0
 20 43  1  0  0  0  0
 21 44  1  0  0  0  0
 21 45  1  0  0  0  0
 22 46  1  0  0  0  0
 26 47  1  0  0  0  0
M  END
> <clash_score>
0

> <docking_score>
-7.497933387756348

> <overlap_score>
0.8841538429260254

$$$$
BENZO_180_1
  -OEChem-08222022443D

 44 47  0     1  0  0  0  0  0999 V2000
    3.8860    2.1050   19.5250 C   0  0  0  0  0  0  0  0  0  0  0  0
    4.2460    1.7520   20.8250 C   0  0  0  0  0  0  0  0  0  0  0  0
    9.1890   -3.5540   24.0140 C   0  0  0  0  0  0  0  0  0  0  0  0
    7.8700   -2.0610   25.3550 C   0  0  0  0  0  0  0  0  0  0  0  0
    9.5890   -2.4950   23.2210 C   0  0  0  0  0  0  0  0  0  0  0  0
    8.2550   -1.0010   24.5520 C   0  0  0  0  0  0  0  0  0  0  0  0
    4.6610    1.7170   18.4380 C   0  0  0  0  0  0  0  0  0  0  0  0
    5.3890    1.0010   21.0690 C   0  0  0  0  0  0  0  0  0  0  0  0
   13.0855   -0.3117   23.6141 C   0  0  0  0  0  0  0  0  0  0  0  0
   14.1930   -0.7722   22.9367 C   0  0  0  0  0  0  0  0  0  0  0  0
   12.4091   -0.0480   21.4061 C   0  0  0  0  0  0  0  0  0  0  0  0
    8.3450   -3.3440   25.0980 C   0  0  0  0  0  0  0  0  0  0  0  0
    9.1280   -1.2090   23.4870 C   0  0  0  0  0  0  0  0  0  0  0  0
   12.0519    0.1077   22.7276 C   0  0  0  0  0  0  0  0  0  0  0  0
    5.7970    0.9500   18.6730 C   0  0  0  0  0  0  0  0  0  0  0  0
    6.1460    0.6070   19.9750 C   0  0  0  0  0  0  0  0  0  0  0  0
    9.0430    0.2380   21.4940 C   0  0  0  0  0  0  0  0  0  0  0  0
    7.9517   -4.4787   25.9770 C   0  0  0  0  0  0  0  0  0  0  0  0
   10.7220    0.6590   23.1850 C   0  0  0  0  0  0  0  0  0  0  0  0
    9.5820   -0.1080   22.7000 C   0  0  1  0  0  0  0  0  0  0  0  0
    6.7100    0.3850   17.8100 N   0  0  0  0  0  0  0  0  0  0  0  0
    7.5840   -0.2700   18.5160 N   0  0  0  0  0  0  0  0  0  0  0  0
    7.2710   -0.1460   19.8310 N   0  0  0  0  0  0  0  0  0  0  0  0
    8.0950   -0.7700   20.8440 N   0  0  0  0  0  0  0  0  0  0  0  0
    9.2950    1.3000   20.9480 O   0  0  0  0  0  0  0  0  0  0  0  0
   13.9845   -0.6978   21.2387 S   0  0  0  0  0  0  0  0  0  0  0  0
    2.9846    2.6932   19.3610 H   0  0  0  0  0  0  0  0  0  0  0  0
    3.6235    2.0692   21.6570 H   0  0  0  0  0  0  0  0  0  0  0  0
    9.5416   -4.5625   23.7818 H   0  0  0  0  0  0  0  0  0  0  0  0
    7.1926   -1.8847   26.1916 H   0  0  0  0  0  0  0  0  0  0  0  0
   10.2688   -2.6720   22.3870 H   0  0  0  0  0  0  0  0  0  0  0  0
    7.8705   -0.0015   24.7579 H   0  0  0  0  0  0  0  0  0  0  0  0
    4.3785    2.0113   17.4257 H   0  0  0  0  0  0  0  0  0  0  0  0
    5.6763    0.7332   22.0915 H   0  0  0  0  0  0  0  0  0  0  0  0
   13.0241   -0.2787   24.6946 H   0  0  0  0  0  0  0  0  0  0  0  0
   15.1149   -1.1481   23.3576 H   0  0  0  0  0  0  0  0  0  0  0  0
   11.8238    0.1885   20.5283 H   0  0  0  0  0  0  0  0  0  0  0  0
    8.6661   -4.5883   26.8021 H   0  0  0  0  0  0  0  0  0  0  0  0
    6.9508   -4.3263   26.4014 H   0  0  0  0  0  0  0  0  0  0  0  0
    7.9188   -5.4228   25.4175 H   0  0  0  0  0  0  0  0  0  0  0  0
   10.7195    0.6680   24.2839 H   0  0  0  0  0  0  0  0  0  0  0  0
   10.6395    1.7141   22.8921 H   0  0  0  0  0  0  0  0  0  0  0  0
    8.6943    0.7922   23.3819 H   0  0  0  0  0  0  0  0  0  0  0  0
    8.1038   -1.6155   21.0990 H   0  0  0  0  0  0  0  0  0  0  0  0
  1  2  1  0  0  0  0
  1  7  2  0  0  0  0
  2  8  2  0  0  0  0
  3  5  2  0  0  0  0
  3 12  1  0  0  0  0
  4  6  1  0  0  0  0
  4 12  2  0  0  0  0
  5 13  1  0  0  0  0
  6 13  2  0  0  0  0
  7 15  1  0  0  0  0
  8 16  1  0  0  0  0
  9 10  2  0  0  0  0
  9 14  1  0  0  0  0
 10 26  1  0  0  0  0
 11 14  2  0  0  0  0
 11 26  1  0  0  0  0
 12 18  1  0  0  0  0
 13 20  1  0  0  0  0
 14 19  1  0  0  0  0
 15 16  2  0  0  0  0
 15 21  1  0  0  0  0
 16 23  1  0  0  0  0
 17 20  1  0  0  0  0
 17 24  1  0  0  0  0
 17 25  2  0  0  0  0
 19 20  1  1  0  0  0
 21 22  2  0  0  0  0
 22 23  1  0  0  0  0
 23 24  1  0  0  0  0
  1 27  1  0  0  0  0
  2 28  1  0  0  0  0
  3 29  1  0  0  0  0
  4 30  1  0  0  0  0
  5 31  1  0  0  0  0
  6 32  1  0  0  0  0
  7 33  1  0  0  0  0
  8 34  1  0  0  0  0
  9 35  1  0  0  0  0
 10 36  1  0  0  0  0
 11 37  1  0  0  0  0
 18 38  1  0  0  0  0
 18 39  1  0  0  0  0
 18 40  1  0  0  0  0
 19 41  1  0  0  0  0
 19 42  1  0  0  0  0
 20 43  1  0  0  0  0
 24 44  1  0  0  0  0
M  END
> <clash_score>
0

> <docking_score>
-6.651009559631348

> <overlap_score>
0.8597097992897034

$$$$
BENZO_180_2
  -OEChem-08222022443D

 44 47  0     1  0  0  0  0  0999 V2000
    3.8860    2.1050   19.5250 C   0  0  0  0  0  0  0  0  0  0  0  0
    4.2460    1.7520   20.8250 C   0  0  0  0  0  0  0  0  0  0  0  0
    9.1890   -3.5540   24.0140 C   0  0  0  0  0  0  0  0  0  0  0  0
    7.8700   -2.0610   25.3550 C   0  0  0  0  0  0  0  0  0  0  0  0
    9.5890   -2.4950   23.2210 C   0  0  0  0  0  0  0  0  0  0  0  0
    8.2550   -1.0010   24.5520 C   0  0  0  0  0  0  0  0  0  0  0  0
    4.6610    1.7170   18.4380 C   0  0  0  0  0  0  0  0  0  0  0  0
    5.3890    1.0010   21.0690 C   0  0  0  0  0  0  0  0  0  0  0  0
   12.5521   -1.1164   22.7252 C   0  0  0  0  0  0  0  0  0  0  0  0
   13.5845   -1.7774   23.3535 C   0  0  0  0  0  0  0  0  0  0  0  0
   12.4440   -0.2022   24.8594 C   0  0  0  0  0  0  0  0  0  0  0  0
    8.3450   -3.3440   25.0980 C   0  0  0  0  0  0  0  0  0  0  0  0
    9.1280   -1.2090   23.4870 C   0  0  0  0  0  0  0  0  0  0  0  0
   11.8914   -0.2037   23.5974 C   0  0  0  0  0  0  0  0  0  0  0  0
    5.7970    0.9500   18.6730 C   0  0  0  0  0  0  0  0  0  0  0  0
    6.1460    0.6070   19.9750 C   0  0  0  0  0  0  0  0  0  0  0  0
    9.0430    0.2380   21.4940 C   0  0  0  0  0  0  0  0  0  0  0  0
    7.9517   -4.4787   25.9770 C   0  0  0  0  0  0  0  0  0  0  0  0
   10.7220    0.6590   23.1850 C   0  0  0  0  0  0  0  0  0  0  0  0
    9.5820   -0.1080   22.7000 C   0  0  2  0  0  0  0  0  0  0  0  0
    6.7100    0.3850   17.8100 N   0  0  0  0  0  0  0  0  0  0  0  0
    7.5840   -0.2700   18.5160 N   0  0  0  0  0  0  0  0  0  0  0  0
    7.2710   -0.1460   19.8310 N   0  0  0  0  0  0  0  0  0  0  0  0
    8.0950   -0.7700   20.8440 N   0  0  0  0  0  0  0  0  0  0  0  0
    9.2950    1.3000   20.9480 O   0  0  0  0  0  0  0  0  0  0  0  0
   13.7539   -1.2974   24.9886 S   0  0  0  0  0  0  0  0  0  0  0  0
    2.9846    2.6932   19.3610 H   0  0  0  0  0  0  0  0  0  0  0  0
    3.6235    2.0692   21.6570 H   0  0  0  0  0  0  0  0  0  0  0  0
    9.5416   -4.5625   23.7818 H   0  0  0  0  0  0  0  0  0  0  0  0
    7.1926   -1.8847   26.1916 H   0  0  0  0  0  0  0  0  0  0  0  0
   10.2688   -2.6720   22.3870 H   0  0  0  0  0  0  0  0  0  0  0  0
    7.8705   -0.0015   24.7579 H   0  0  0  0  0  0  0  0  0  0  0  0
    4.3785    2.0113   17.4257 H   0  0  0  0  0  0  0  0  0  0  0  0
    5.6763    0.7332   22.0915 H   0  0  0  0  0  0  0  0  0  0  0  0
   12.2866   -1.2830   21.6889 H   0  0  0  0  0  0  0  0  0  0  0  0
   14.2469   -2.5196   22.9310 H   0  0  0  0  0  0  0  0  0  0  0  0
   12.1435    0.3872   25.7147 H   0  0  0  0  0  0  0  0  0  0  0  0
    8.6661   -4.5883   26.8021 H   0  0  0  0  0  0  0  0  0  0  0  0
    6.9508   -4.3263   26.4014 H   0  0  0  0  0  0  0  0  0  0  0  0
    7.9188   -5.4228   25.4175 H   0  0  0  0  0  0  0  0  0  0  0  0
   10.4198    1.2578   24.0555 H   0  0  0  0  0  0  0  0  0  0  0  0
   11.0503    1.3920   22.4361 H   0  0  0  0  0  0  0  0  0  0  0  0
   10.5231   -0.9933   22.0106 H   0  0  0  0  0  0  0  0  0  0  0  0
    8.1038   -1.6155   21.0990 H   0  0  0  0  0  0  0  0  0  0  0  0
  1  2  1  0  0  0  0
  1  7  2  0  0  0  0
  2  8  2  0  0  0  0
  3  5  2  0  0  0  0
  3 12  1  0  0  0  0
  4  6  1  0  0  0  0
  4 12  2  0  0  0  0
  5 13  1  0  0  0  0
  6 13  2  0  0  0  0
  7 15  1  0  0  0  0
  8 16  1  0  0  0  0
  9 10  2  0  0  0  0
  9 14  1  0  0  0  0
 10 26  1  0  0  0  0
 11 14  2  0  0  0  0
 11 26  1  0  0  0  0
 12 18  1  0  0  0  0
 13 20  1  0  0  0  0
 14 19  1  0  0  0  0
 15 16  2  0  0  0  0
 15 21  1  0  0  0  0
 16 23  1  0  0  0  0
 17 20  1  0  0  0  0
 17 24  1  0  0  0  0
 17 25  2  0  0  0  0
 19 20  1  6  0  0  0
 21 22  2  0  0  0  0
 22 23  1  0  0  0  0
 23 24  1  0  0  0  0
  1 27  1  0  0  0  0
  2 28  1  0  0  0  0
  3 29  1  0  0  0  0
  4 30  1  0  0  0  0
  5 31  1  0  0  0  0
  6 32  1  0  0  0  0
  7 33  1  0  0  0  0
  8 34  1  0  0  0  0
  9 35  1  0  0  0  0
 10 36  1  0  0  0  0
 11 37  1  0  0  0  0
 18 38  1  0  0  0  0
 18 39  1  0  0  0  0
 18 40  1  0  0  0  0
 19 41  1  0  0  0  0
 19 42  1  0  0  0  0
 20 43  1  0  0  0  0
 24 44  1  0  0  0  0
M  END
> <clash_score>
0

> <docking_score>
-7.978867530822754

> <overlap_score>
0.874369204044342

$$$$
BENZO_182_1
  -OEChem-08222022443D

 47 50  0     1  0  0  0  0  0999 V2000
    3.8860    2.1050   19.5250 C   0  0  0  0  0  0  0  0  0  0  0  0
    4.2460    1.7520   20.8250 C   0  0  0  0  0  0  0  0  0  0  0  0
   13.8445    0.0438   21.1092 C   0  0  0  0  0  0  0  0  0  0  0  0
   12.6160    0.5516   21.5316 C   0  0  0  0  0  0  0  0  0  0  0  0
    9.1890   -3.5540   24.0140 C   0  0  0  0  0  0  0  0  0  0  0  0
    7.8700   -2.0610   25.3550 C   0  0  0  0  0  0  0  0  0  0  0  0
    9.5890   -2.4950   23.2210 C   0  0  0  0  0  0  0  0  0  0  0  0
    8.2550   -1.0010   24.5520 C   0  0  0  0  0  0  0  0  0  0  0  0
    4.6610    1.7170   18.4380 C   0  0  0  0  0  0  0  0  0  0  0  0
    5.3890    1.0010   21.0690 C   0  0  0  0  0  0  0  0  0  0  0  0
   14.5090   -0.9080   21.8827 C   0  0  0  0  0  0  0  0  0  0  0  0
   12.7164   -0.8440   23.5012 C   0  0  0  0  0  0  0  0  0  0  0  0
    8.3450   -3.3440   25.0980 C   0  0  0  0  0  0  0  0  0  0  0  0
    9.1280   -1.2090   23.4870 C   0  0  0  0  0  0  0  0  0  0  0  0
   12.0519    0.1077   22.7276 C   0  0  0  0  0  0  0  0  0  0  0  0
    5.7970    0.9500   18.6730 C   0  0  0  0  0  0  0  0  0  0  0  0
    6.1460    0.6070   19.9750 C   0  0  0  0  0  0  0  0  0  0  0  0
   13.9449   -1.3519   23.0787 C   0  0  0  0  0  0  0  0  0  0  0  0
    9.0430    0.2380   21.4940 C   0  0  0  0  0  0  0  0  0  0  0  0
    7.9517   -4.4787   25.9770 C   0  0  0  0  0  0  0  0  0  0  0  0
   10.7220    0.6590   23.1850 C   0  0  0  0  0  0  0  0  0  0  0  0
    9.5820   -0.1080   22.7000 C   0  0  1  0  0  0  0  0  0  0  0  0
    6.7100    0.3850   17.8100 N   0  0  0  0  0  0  0  0  0  0  0  0
    7.5840   -0.2700   18.5160 N   0  0  0  0  0  0  0  0  0  0  0  0
    7.2710   -0.1460   19.8310 N   0  0  0  0  0  0  0  0  0  0  0  0
    8.0950   -0.7700   20.8440 N   0  0  0  0  0  0  0  0  0  0  0  0
    9.2950    1.3000   20.9480 O   0  0  0  0  0  0  0  0  0  0  0  0
   14.7657   -2.5253   24.0333 Cl  0  0  0  0  0  0  0  0  0  0  0  0
    2.9846    2.6932   19.3610 H   0  0  0  0  0  0  0  0  0  0  0  0
    3.6235    2.0692   21.6570 H   0  0  0  0  0  0  0  0  0  0  0  0
   14.2835    0.3898   20.1778 H   0  0  0  0  0  0  0  0  0  0  0  0
   12.1054    1.2930   20.9225 H   0  0  0  0  0  0  0  0  0  0  0  0
    9.5416   -4.5625   23.7818 H   0  0  0  0  0  0  0  0  0  0  0  0
    7.1926   -1.8847   26.1916 H   0  0  0  0  0  0  0  0  0  0  0  0
   10.2688   -2.6720   22.3870 H   0  0  0  0  0  0  0  0  0  0  0  0
    7.8705   -0.0015   24.7579 H   0  0  0  0  0  0  0  0  0  0  0  0
    4.3785    2.0113   17.4257 H   0  0  0  0  0  0  0  0  0  0  0  0
    5.6763    0.7332   22.0915 H   0  0  0  0  0  0  0  0  0  0  0  0
   15.4660   -1.2948   21.5412 H   0  0  0  0  0  0  0  0  0  0  0  0
   12.2722   -1.1873   24.4326 H   0  0  0  0  0  0  0  0  0  0  0  0
    8.6661   -4.5883   26.8021 H   0  0  0  0  0  0  0  0  0  0  0  0
    6.9508   -4.3263   26.4014 H   0  0  0  0  0  0  0  0  0  0  0  0
    7.9188   -5.4228   25.4175 H   0  0  0  0  0  0  0  0  0  0  0  0
   10.7195    0.6680   24.2839 H   0  0  0  0  0  0  0  0  0  0  0  0
   10.6395    1.7141   22.8921 H   0  0  0  0  0  0  0  0  0  0  0  0
    8.6943    0.7922   23.3819 H   0  0  0  0  0  0  0  0  0  0  0  0
    8.1038   -1.6155   21.0990 H   0  0  0  0  0  0  0  0  0  0  0  0
  1  2  1  0  0  0  0
  1  9  2  0  0  0  0
  2 10  2  0  0  0  0
  3  4  2  0  0  0  0
  3 11  1  0  0  0  0
  4 15  1  0  0  0  0
  5  7  2  0  0  0  0
  5 13  1  0  0  0  0
  6  8  1  0  0  0  0
  6 13  2  0  0  0  0
  7 14  1  0  0  0  0
  8 14  2  0  0  0  0
  9 16  1  0  0  0  0
 10 17  1  0  0  0  0
 11 18  2  0  0  0  0
 12 15  2  0  0  0  0
 12 18  1  0  0  0  0
 13 20  1  0  0  0  0
 14 22  1  0  0  0  0
 15 21  1  0  0  0  0
 16 17  2  0  0  0  0
 16 23  1  0  0  0  0
 17 25  1  0  0  0  0
 18 28  1  0  0  0  0
 19 22  1  0  0  0  0
 19 26  1  0  0  0  0
 19 27  2  0  0  0  0
 21 22  1  1  0  0  0
 23 24  2  0  0  0  0
 24 25  1  0  0  0  0
 25 26  1  0  0  0  0
  1 29  1  0  0  0  0
  2 30  1  0  0  0  0
  3 31  1  0  0  0  0
  4 32  1  0  0  0  0
  5 33  1  0  0  0  0
  6 34  1  0  0  0  0
  7 35  1  0  0  0  0
  8 36  1  0  0  0  0
  9 37  1  0  0  0  0
 10 38  1  0  0  0  0
 11 39  1  0  0  0  0
 12 40  1  0  0  0  0
 20 41  1  0  0  0  0
 20 42  1  0  0  0  0
 20 43  1  0  0  0  0
 21 44  1  0  0  0  0
 21 45  1  0  0  0  0
 22 46  1  0  0  0  0
 26 47  1  0  0  0  0
M  END
> <clash_score>
0

> <docking_score>
-6.007170677185059

> <overlap_score>
0.8775202035903931

$$$$
BENZO_182_2
  -OEChem-08222022443D

 47 50  0     1  0  0  0  0  0999 V2000
    3.8860    2.1050   19.5250 C   0  0  0  0  0  0  0  0  0  0  0  0
    4.2460    1.7520   20.8250 C   0  0  0  0  0  0  0  0  0  0  0  0
   13.0699   -1.4582   25.2928 C   0  0  0  0  0  0  0  0  0  0  0  0
   11.9910   -0.6606   24.9116 C   0  0  0  0  0  0  0  0  0  0  0  0
    9.1890   -3.5540   24.0140 C   0  0  0  0  0  0  0  0  0  0  0  0
    7.8700   -2.0610   25.3550 C   0  0  0  0  0  0  0  0  0  0  0  0
    9.5890   -2.4950   23.2210 C   0  0  0  0  0  0  0  0  0  0  0  0
    8.2550   -1.0010   24.5520 C   0  0  0  0  0  0  0  0  0  0  0  0
    4.6610    1.7170   18.4380 C   0  0  0  0  0  0  0  0  0  0  0  0
    5.3890    1.0010   21.0690 C   0  0  0  0  0  0  0  0  0  0  0  0
   14.0494   -1.7989   24.3598 C   0  0  0  0  0  0  0  0  0  0  0  0
   12.8708   -0.5445   22.6644 C   0  0  0  0  0  0  0  0  0  0  0  0
    8.3450   -3.3440   25.0980 C   0  0  0  0  0  0  0  0  0  0  0  0
    9.1280   -1.2090   23.4870 C   0  0  0  0  0  0  0  0  0  0  0  0
   11.8914   -0.2037   23.5974 C   0  0  0  0  0  0  0  0  0  0  0  0
    5.7970    0.9500   18.6730 C   0  0  0  0  0  0  0  0  0  0  0  0
    6.1460    0.6070   19.9750 C   0  0  0  0  0  0  0  0  0  0  0  0
   13.9498   -1.3420   23.0457 C   0  0  0  0  0  0  0  0  0  0  0  0
    9.0430    0.2380   21.4940 C   0  0  0  0  0  0  0  0  0  0  0  0
    7.9517   -4.4787   25.9770 C   0  0  0  0  0  0  0  0  0  0  0  0
   10.7220    0.6590   23.1850 C   0  0  0  0  0  0  0  0  0  0  0  0
    9.5820   -0.1080   22.7000 C   0  0  2  0  0  0  0  0  0  0  0  0
    6.7100    0.3850   17.8100 N   0  0  0  0  0  0  0  0  0  0  0  0
    7.5840   -0.2700   18.5160 N   0  0  0  0  0  0  0  0  0  0  0  0
    7.2710   -0.1460   19.8310 N   0  0  0  0  0  0  0  0  0  0  0  0
    8.0950   -0.7700   20.8440 N   0  0  0  0  0  0  0  0  0  0  0  0
    9.2950    1.3000   20.9480 O   0  0  0  0  0  0  0  0  0  0  0  0
   15.1579   -1.7637   21.8948 Cl  0  0  0  0  0  0  0  0  0  0  0  0
    2.9846    2.6932   19.3610 H   0  0  0  0  0  0  0  0  0  0  0  0
    3.6235    2.0692   21.6570 H   0  0  0  0  0  0  0  0  0  0  0  0
   13.1470   -1.8139   26.3162 H   0  0  0  0  0  0  0  0  0  0  0  0
   11.2324   -0.4002   25.6451 H   0  0  0  0  0  0  0  0  0  0  0  0
    9.5416   -4.5625   23.7818 H   0  0  0  0  0  0  0  0  0  0  0  0
    7.1926   -1.8847   26.1916 H   0  0  0  0  0  0  0  0  0  0  0  0
   10.2688   -2.6720   22.3870 H   0  0  0  0  0  0  0  0  0  0  0  0
    7.8705   -0.0015   24.7579 H   0  0  0  0  0  0  0  0  0  0  0  0
    4.3785    2.0113   17.4257 H   0  0  0  0  0  0  0  0  0  0  0  0
    5.6763    0.7332   22.0915 H   0  0  0  0  0  0  0  0  0  0  0  0
   14.8846   -2.4215   24.6710 H   0  0  0  0  0  0  0  0  0  0  0  0
   12.7889   -0.1853   21.6412 H   0  0  0  0  0  0  0  0  0  0  0  0
    8.6661   -4.5883   26.8021 H   0  0  0  0  0  0  0  0  0  0  0  0
    6.9508   -4.3263   26.4014 H   0  0  0  0  0  0  0  0  0  0  0  0
    7.9188   -5.4228   25.4175 H   0  0  0  0  0  0  0  0  0  0  0  0
   10.4198    1.2578   24.0555 H   0  0  0  0  0  0  0  0  0  0  0  0
   11.0503    1.3920   22.4361 H   0  0  0  0  0  0  0  0  0  0  0  0
   10.5231   -0.9933   22.0106 H   0  0  0  0  0  0  0  0  0  0  0  0
    8.1038   -1.6155   21.0990 H   0  0  0  0  0  0  0  0  0  0  0  0
  1  2  1  0  0  0  0
  1  9  2  0  0  0  0
  2 10  2  0  0  0  0
  3  4  2  0  0  0  0
  3 11  1  0  0  0  0
  4 15  1  0  0  0  0
  5  7  2  0  0  0  0
  5 13  1  0  0  0  0
  6  8  1  0  0  0  0
  6 13  2  0  0  0  0
  7 14  1  0  0  0  0
  8 14  2  0  0  0  0
  9 16  1  0  0  0  0
 10 17  1  0  0  0  0
 11 18  2  0  0  0  0
 12 15  2  0  0  0  0
 12 18  1  0  0  0  0
 13 20  1  0  0  0  0
 14 22  1  0  0  0  0
 15 21  1  0  0  0  0
 16 17  2  0  0  0  0
 16 23  1  0  0  0  0
 17 25  1  0  0  0  0
 18 28  1  0  0  0  0
 19 22  1  0  0  0  0
 19 26  1  0  0  0  0
 19 27  2  0  0  0  0
 21 22  1  6  0  0  0
 23 24  2  0  0  0  0
 24 25  1  0  0  0  0
 25 26  1  0  0  0  0
  1 29  1  0  0  0  0
  2 30  1  0  0  0  0
  3 31  1  0  0  0  0
  4 32  1  0  0  0  0
  5 33  1  0  0  0  0
  6 34  1  0  0  0  0
  7 35  1  0  0  0  0
  8 36  1  0  0  0  0
  9 37  1  0  0  0  0
 10 38  1  0  0  0  0
 11 39  1  0  0  0  0
 12 40  1  0  0  0  0
 20 41  1  0  0  0  0
 20 42  1  0  0  0  0
 20 43  1  0  0  0  0
 21 44  1  0  0  0  0
 21 45  1  0  0  0  0
 22 46  1  0  0  0  0
 26 47  1  0  0  0  0
M  END
> <clash_score>
0

> <docking_score>
-6.623839378356934

> <overlap_score>
0.8900247812271118

$$$$
BENZO_183_1
  -OEChem-08222022443D

 47 50  0     1  0  0  0  0  0999 V2000
    3.8860    2.1050   19.5250 C   0  0  0  0  0  0  0  0  0  0  0  0
    4.2460    1.7520   20.8250 C   0  0  0  0  0  0  0  0  0  0  0  0
    9.1890   -3.5540   24.0140 C   0  0  0  0  0  0  0  0  0  0  0  0
    7.8700   -2.0610   25.3550 C   0  0  0  0  0  0  0  0  0  0  0  0
    9.5890   -2.4950   23.2210 C   0  0  0  0  0  0  0  0  0  0  0  0
    8.2550   -1.0010   24.5520 C   0  0  0  0  0  0  0  0  0  0  0  0
    4.6610    1.7170   18.4380 C   0  0  0  0  0  0  0  0  0  0  0  0
    5.3890    1.0010   21.0690 C   0  0  0  0  0  0  0  0  0  0  0  0
   13.2450    0.8161   22.4899 C   0  0  0  0  0  0  0  0  0  0  0  0
   12.3686   -1.2002   22.4525 C   0  0  0  0  0  0  0  0  0  0  0  0
    8.3450   -3.3440   25.0980 C   0  0  0  0  0  0  0  0  0  0  0  0
    9.1280   -1.2090   23.4870 C   0  0  0  0  0  0  0  0  0  0  0  0
   12.0519    0.1077   22.7276 C   0  0  0  0  0  0  0  0  0  0  0  0
    5.7970    0.9500   18.6730 C   0  0  0  0  0  0  0  0  0  0  0  0
    6.1460    0.6070   19.9750 C   0  0  0  0  0  0  0  0  0  0  0  0
    9.0430    0.2380   21.4940 C   0  0  0  0  0  0  0  0  0  0  0  0
    7.9517   -4.4787   25.9770 C   0  0  0  0  0  0  0  0  0  0  0  0
   14.4659   -2.3443   21.6969 C   0  0  0  0  0  0  0  0  0  0  0  0
   10.7220    0.6590   23.1850 C   0  0  0  0  0  0  0  0  0  0  0  0
    9.5820   -0.1080   22.7000 C   0  0  1  0  0  0  0  0  0  0  0  0
   14.2451    0.0239   22.0946 N   0  0  0  0  0  0  0  0  0  0  0  0
    6.7100    0.3850   17.8100 N   0  0  0  0  0  0  0  0  0  0  0  0
    7.5840   -0.2700   18.5160 N   0  0  0  0  0  0  0  0  0  0  0  0
   13.6811   -1.1959   22.0817 N   0  0  0  0  0  0  0  0  0  0  0  0
    7.2710   -0.1460   19.8310 N   0  0  0  0  0  0  0  0  0  0  0  0
    8.0950   -0.7700   20.8440 N   0  0  0  0  0  0  0  0  0  0  0  0
    9.2950    1.3000   20.9480 O   0  0  0  0  0  0  0  0  0  0  0  0
    2.9846    2.6932   19.3610 H   0  0  0  0  0  0  0  0  0  0  0  0
    3.6235    2.0692   21.6570 H   0  0  0  0  0  0  0  0  0  0  0  0
    9.5416   -4.5625   23.7818 H   0  0  0  0  0  0  0  0  0  0  0  0
    7.1926   -1.8847   26.1916 H   0  0  0  0  0  0  0  0  0  0  0  0
   10.2688   -2.6720   22.3870 H   0  0  0  0  0  0  0  0  0  0  0  0
    7.8705   -0.0015   24.7579 H   0  0  0  0  0  0  0  0  0  0  0  0
    4.3785    2.0113   17.4257 H   0  0  0  0  0  0  0  0  0  0  0  0
    5.6763    0.7332   22.0915 H   0  0  0  0  0  0  0  0  0  0  0  0
   13.4301    1.8764   22.5886 H   0  0  0  0  0  0  0  0  0  0  0  0
   11.7867   -2.1111   22.4895 H   0  0  0  0  0  0  0  0  0  0  0  0
    8.6661   -4.5883   26.8021 H   0  0  0  0  0  0  0  0  0  0  0  0
    6.9508   -4.3263   26.4014 H   0  0  0  0  0  0  0  0  0  0  0  0
    7.9188   -5.4228   25.4175 H   0  0  0  0  0  0  0  0  0  0  0  0
   14.3687   -2.4723   20.6156 H   0  0  0  0  0  0  0  0  0  0  0  0
   15.5118   -2.1787   21.9698 H   0  0  0  0  0  0  0  0  0  0  0  0
   14.0944   -3.2284   22.2225 H   0  0  0  0  0  0  0  0  0  0  0  0
   10.7195    0.6680   24.2839 H   0  0  0  0  0  0  0  0  0  0  0  0
   10.6395    1.7141   22.8921 H   0  0  0  0  0  0  0  0  0  0  0  0
    8.6943    0.7922   23.3819 H   0  0  0  0  0  0  0  0  0  0  0  0
    8.1038   -1.6155   21.0990 H   0  0  0  0  0  0  0  0  0  0  0  0
  1  2  1  0  0  0  0
  1  7  2  0  0  0  0
  2  8  2  0  0  0  0
  3  5  2  0  0  0  0
  3 11  1  0  0  0  0
  4  6  1  0  0  0  0
  4 11  2  0  0  0  0
  5 12  1  0  0  0  0
  6 12  2  0  0  0  0
  7 14  1  0  0  0  0
  8 15  1  0  0  0  0
  9 13  1  0  0  0  0
  9 21  2  0  0  0  0
 10 13  2  0  0  0  0
 10 24  1  0  0  0  0
 11 17  1  0  0  0  0
 12 20  1  0  0  0  0
 13 19  1  0  0  0  0
 14 15  2  0  0  0  0
 14 22  1  0  0  0  0
 15 25  1  0  0  0  0
 16 20  1  0  0  0  0
 16 26  1  0  0  0  0
 16 27  2  0  0  0  0
 18 24  1  0  0  0  0
 19 20  1  1  0  0  0
 21 24  1  0  0  0  0
 22 23  2  0  0  0  0
 23 25  1  0  0  0  0
 25 26  1  0  0  0  0
  1 28  1  0  0  0  0
  2 29  1  0  0  0  0
  3 30  1  0  0  0  0
  4 31  1  0  0  0  0
  5 32  1  0  0  0  0
  6 33  1  0  0  0  0
  7 34  1  0  0  0  0
  8 35  1  0  0  0  0
  9 36  1  0  0  0  0
 10 37  1  0  0  0  0
 17 38  1  0  0  0  0
 17 39  1  0  0  0  0
 17 40  1  0  0  0  0
 18 41  1  0  0  0  0
 18 42  1  0  0  0  0
 18 43  1  0  0  0  0
 19 44  1  0  0  0  0
 19 45  1  0  0  0  0
 20 46  1  0  0  0  0
 26 47  1  0  0  0  0
M  END
> <clash_score>
0

> <docking_score>
-6.780759811401367

> <overlap_score>
0.863878071308136

$$$$
BENZO_183_2
  -OEChem-08222022443D

 47 50  0     1  0  0  0  0  0999 V2000
    3.8860    2.1050   19.5250 C   0  0  0  0  0  0  0  0  0  0  0  0
    4.2460    1.7520   20.8250 C   0  0  0  0  0  0  0  0  0  0  0  0
    9.1890   -3.5540   24.0140 C   0  0  0  0  0  0  0  0  0  0  0  0
    7.8700   -2.0610   25.3550 C   0  0  0  0  0  0  0  0  0  0  0  0
    9.5890   -2.4950   23.2210 C   0  0  0  0  0  0  0  0  0  0  0  0
    8.2550   -1.0010   24.5520 C   0  0  0  0  0  0  0  0  0  0  0  0
    4.6610    1.7170   18.4380 C   0  0  0  0  0  0  0  0  0  0  0  0
    5.3890    1.0010   21.0690 C   0  0  0  0  0  0  0  0  0  0  0  0
   12.1546   -0.7527   24.8667 C   0  0  0  0  0  0  0  0  0  0  0  0
   12.9364   -0.6310   22.8152 C   0  0  0  0  0  0  0  0  0  0  0  0
    8.3450   -3.3440   25.0980 C   0  0  0  0  0  0  0  0  0  0  0  0
    9.1280   -1.2090   23.4870 C   0  0  0  0  0  0  0  0  0  0  0  0
   11.8914   -0.2037   23.5974 C   0  0  0  0  0  0  0  0  0  0  0  0
    5.7970    0.9500   18.6730 C   0  0  0  0  0  0  0  0  0  0  0  0
    6.1460    0.6070   19.9750 C   0  0  0  0  0  0  0  0  0  0  0  0
    9.0430    0.2380   21.4940 C   0  0  0  0  0  0  0  0  0  0  0  0
    7.9517   -4.4787   25.9770 C   0  0  0  0  0  0  0  0  0  0  0  0
   14.9563   -2.0460   23.2586 C   0  0  0  0  0  0  0  0  0  0  0  0
   10.7220    0.6590   23.1850 C   0  0  0  0  0  0  0  0  0  0  0  0
    9.5820   -0.1080   22.7000 C   0  0  2  0  0  0  0  0  0  0  0  0
   13.2786   -1.4738   24.8937 N   0  0  0  0  0  0  0  0  0  0  0  0
    6.7100    0.3850   17.8100 N   0  0  0  0  0  0  0  0  0  0  0  0
    7.5840   -0.2700   18.5160 N   0  0  0  0  0  0  0  0  0  0  0  0
   13.7309   -1.3809   23.6316 N   0  0  0  0  0  0  0  0  0  0  0  0
    7.2710   -0.1460   19.8310 N   0  0  0  0  0  0  0  0  0  0  0  0
    8.0950   -0.7700   20.8440 N   0  0  0  0  0  0  0  0  0  0  0  0
    9.2950    1.3000   20.9480 O   0  0  0  0  0  0  0  0  0  0  0  0
    2.9846    2.6932   19.3610 H   0  0  0  0  0  0  0  0  0  0  0  0
    3.6235    2.0692   21.6570 H   0  0  0  0  0  0  0  0  0  0  0  0
    9.5416   -4.5625   23.7818 H   0  0  0  0  0  0  0  0  0  0  0  0
    7.1926   -1.8847   26.1916 H   0  0  0  0  0  0  0  0  0  0  0  0
   10.2688   -2.6720   22.3870 H   0  0  0  0  0  0  0  0  0  0  0  0
    7.8705   -0.0015   24.7579 H   0  0  0  0  0  0  0  0  0  0  0  0
    4.3785    2.0113   17.4257 H   0  0  0  0  0  0  0  0  0  0  0  0
    5.6763    0.7332   22.0915 H   0  0  0  0  0  0  0  0  0  0  0  0
   11.5753   -0.6595   25.7744 H   0  0  0  0  0  0  0  0  0  0  0  0
   13.1758   -0.4703   21.7727 H   0  0  0  0  0  0  0  0  0  0  0  0
    8.6661   -4.5883   26.8021 H   0  0  0  0  0  0  0  0  0  0  0  0
    6.9508   -4.3263   26.4014 H   0  0  0  0  0  0  0  0  0  0  0  0
    7.9188   -5.4228   25.4175 H   0  0  0  0  0  0  0  0  0  0  0  0
   15.7825   -1.3505   23.4278 H   0  0  0  0  0  0  0  0  0  0  0  0
   15.0826   -2.9452   23.8680 H   0  0  0  0  0  0  0  0  0  0  0  0
   14.9057   -2.3321   22.2043 H   0  0  0  0  0  0  0  0  0  0  0  0
   10.4198    1.2578   24.0555 H   0  0  0  0  0  0  0  0  0  0  0  0
   11.0503    1.3920   22.4361 H   0  0  0  0  0  0  0  0  0  0  0  0
   10.5231   -0.9933   22.0106 H   0  0  0  0  0  0  0  0  0  0  0  0
    8.1038   -1.6155   21.0990 H   0  0  0  0  0  0  0  0  0  0  0  0
  1  2  1  0  0  0  0
  1  7  2  0  0  0  0
  2  8  2  0  0  0  0
  3  5  2  0  0  0  0
  3 11  1  0  0  0  0
  4  6  1  0  0  0  0
  4 11  2  0  0  0  0
  5 12  1  0  0  0  0
  6 12  2  0  0  0  0
  7 14  1  0  0  0  0
  8 15  1  0  0  0  0
  9 13  1  0  0  0  0
  9 21  2  0  0  0  0
 10 13  2  0  0  0  0
 10 24  1  0  0  0  0
 11 17  1  0  0  0  0
 12 20  1  0  0  0  0
 13 19  1  0  0  0  0
 14 15  2  0  0  0  0
 14 22  1  0  0  0  0
 15 25  1  0  0  0  0
 16 20  1  0  0  0  0
 16 26  1  0  0  0  0
 16 27  2  0  0  0  0
 18 24  1  0  0  0  0
 19 20  1  6  0  0  0
 21 24  1  0  0  0  0
 22 23  2  0  0  0  0
 23 25  1  0  0  0  0
 25 26  1  0  0  0  0
  1 28  1  0  0  0  0
  2 29  1  0  0  0  0
  3 30  1  0  0  0  0
  4 31  1  0  0  0  0
  5 32  1  0  0  0  0
  6 33  1  0  0  0  0
  7 34  1  0  0  0  0
  8 35  1  0  0  0  0
  9 36  1  0  0  0  0
 10 37  1  0  0  0  0
 17 38  1  0  0  0  0
 17 39  1  0  0  0  0
 17 40  1  0  0  0  0
 18 41  1  0  0  0  0
 18 42  1  0  0  0  0
 18 43  1  0  0  0  0
 19 44  1  0  0  0  0
 19 45  1  0  0  0  0
 20 46  1  0  0  0  0
 26 47  1  0  0  0  0
M  END
> <clash_score>
0

> <docking_score>
-6.550902843475342

> <overlap_score>
0.8859124183654785

$$$$
BENZO_185_2
  -OEChem-08222022443D

 48 51  0     1  0  0  0  0  0999 V2000
   14.0513   -1.7974   24.3577 C   0  0  0  0  0  0  0  0  0  0  0  0
   13.0726   -1.4574   25.2916 C   0  0  0  0  0  0  0  0  0  0  0  0
   13.9501   -1.3405   23.0436 C   0  0  0  0  0  0  0  0  0  0  0  0
    3.8860    2.1050   19.5250 C   0  0  0  0  0  0  0  0  0  0  0  0
    4.2460    1.7520   20.8250 C   0  0  0  0  0  0  0  0  0  0  0  0
   11.9927   -0.6606   24.9115 C   0  0  0  0  0  0  0  0  0  0  0  0
   12.8701   -0.5437   22.6635 C   0  0  0  0  0  0  0  0  0  0  0  0
    9.5890   -2.4950   23.2210 C   0  0  0  0  0  0  0  0  0  0  0  0
    8.2550   -1.0010   24.5520 C   0  0  0  0  0  0  0  0  0  0  0  0
    4.6610    1.7170   18.4380 C   0  0  0  0  0  0  0  0  0  0  0  0
    5.3890    1.0010   21.0690 C   0  0  0  0  0  0  0  0  0  0  0  0
    9.1890   -3.5540   24.0140 C   0  0  0  0  0  0  0  0  0  0  0  0
    7.8700   -2.0610   25.3550 C   0  0  0  0  0  0  0  0  0  0  0  0
   11.8914   -0.2037   23.5974 C   0  0  0  0  0  0  0  0  0  0  0  0
    9.1280   -1.2090   23.4870 C   0  0  0  0  0  0  0  0  0  0  0  0
    5.7970    0.9500   18.6730 C   0  0  0  0  0  0  0  0  0  0  0  0
    6.1460    0.6070   19.9750 C   0  0  0  0  0  0  0  0  0  0  0  0
    8.3450   -3.3440   25.0980 C   0  0  0  0  0  0  0  0  0  0  0  0
    9.0430    0.2380   21.4940 C   0  0  0  0  0  0  0  0  0  0  0  0
    8.5106   -5.6662   25.5724 C   0  0  0  0  0  0  0  0  0  0  0  0
   10.7220    0.6590   23.1850 C   0  0  0  0  0  0  0  0  0  0  0  0
    9.5820   -0.1080   22.7000 C   0  0  2  0  0  0  0  0  0  0  0  0
    6.7100    0.3850   17.8100 N   0  0  0  0  0  0  0  0  0  0  0  0
    7.5840   -0.2700   18.5160 N   0  0  0  0  0  0  0  0  0  0  0  0
    7.2710   -0.1460   19.8310 N   0  0  0  0  0  0  0  0  0  0  0  0
    8.0950   -0.7700   20.8440 N   0  0  0  0  0  0  0  0  0  0  0  0
    9.2950    1.3000   20.9480 O   0  0  0  0  0  0  0  0  0  0  0  0
    7.9856   -4.3803   25.8987 O   0  0  0  0  0  0  0  0  0  0  0  0
   14.8928   -2.4167   24.6542 H   0  0  0  0  0  0  0  0  0  0  0  0
   13.1518   -1.8121   26.3151 H   0  0  0  0  0  0  0  0  0  0  0  0
   14.7124   -1.6041   22.3165 H   0  0  0  0  0  0  0  0  0  0  0  0
    2.9846    2.6932   19.3610 H   0  0  0  0  0  0  0  0  0  0  0  0
    3.6235    2.0692   21.6570 H   0  0  0  0  0  0  0  0  0  0  0  0
   11.2348   -0.4008   25.6459 H   0  0  0  0  0  0  0  0  0  0  0  0
   12.7995   -0.1925   21.6375 H   0  0  0  0  0  0  0  0  0  0  0  0
   10.2677   -2.6721   22.3861 H   0  0  0  0  0  0  0  0  0  0  0  0
    7.8705   -0.0015   24.7586 H   0  0  0  0  0  0  0  0  0  0  0  0
    4.3785    2.0113   17.4257 H   0  0  0  0  0  0  0  0  0  0  0  0
    5.6763    0.7332   22.0915 H   0  0  0  0  0  0  0  0  0  0  0  0
    9.5403   -4.5634   23.7844 H   0  0  0  0  0  0  0  0  0  0  0  0
    7.1918   -1.8874   26.1909 H   0  0  0  0  0  0  0  0  0  0  0  0
    8.1445   -6.4032   26.2914 H   0  0  0  0  0  0  0  0  0  0  0  0
    9.6027   -5.6312   25.5944 H   0  0  0  0  0  0  0  0  0  0  0  0
    8.1770   -5.9422   24.5693 H   0  0  0  0  0  0  0  0  0  0  0  0
   10.4198    1.2578   24.0555 H   0  0  0  0  0  0  0  0  0  0  0  0
   11.0503    1.3920   22.4361 H   0  0  0  0  0  0  0  0  0  0  0  0
   10.5231   -0.9933   22.0106 H   0  0  0  0  0  0  0  0  0  0  0  0
    8.1038   -1.6155   21.0990 H   0  0  0  0  0  0  0  0  0  0  0  0
  1  2  1  0  0  0  0
  1  3  2  0  0  0  0
  2  6  2  0  0  0  0
  3  7  1  0  0  0  0
  4  5  1  0  0  0  0
  4 10  2  0  0  0  0
  5 11  2  0  0  0  0
  6 14  1  0  0  0  0
  7 14  2  0  0  0  0
  8 12  2  0  0  0  0
  8 15  1  0  0  0  0
  9 13  1  0  0  0  0
  9 15  2  0  0  0  0
 10 16  1  0  0  0  0
 11 17  1  0  0  0  0
 12 18  1  0  0  0  0
 13 18  2  0  0  0  0
 14 21  1  0  0  0  0
 15 22  1  0  0  0  0
 16 17  2  0  0  0  0
 16 23  1  0  0  0  0
 17 25  1  0  0  0  0
 18 28  1  0  0  0  0
 19 22  1  0  0  0  0
 19 26  1  0  0  0  0
 19 27  2  0  0  0  0
 20 28  1  0  0  0  0
 21 22  1  6  0  0  0
 23 24  2  0  0  0  0
 24 25  1  0  0  0  0
 25 26  1  0  0  0  0
  1 29  1  0  0  0  0
  2 30  1  0  0  0  0
  3 31  1  0  0  0  0
  4 32  1  0  0  0  0
  5 33  1  0  0  0  0
  6 34  1  0  0  0  0
  7 35  1  0  0  0  0
  8 36  1  0  0  0  0
  9 37  1  0  0  0  0
 10 38  1  0  0  0  0
 11 39  1  0  0  0  0
 12 40  1  0  0  0  0
 13 41  1  0  0  0  0
 20 42  1  0  0  0  0
 20 43  1  0  0  0  0
 20 44  1  0  0  0  0
 21 45  1  0  0  0  0
 21 46  1  0  0  0  0
 22 47  1  0  0  0  0
 26 48  1  0  0  0  0
M  END
> <clash_score>
0

> <docking_score>
-7.617499351501465

> <overlap_score>
0.8974175453186035

$$$$
BENZO_185_1
  -OEChem-08222022443D

 48 51  0     1  0  0  0  0  0999 V2000
   14.5074   -0.9113   21.8819 C   0  0  0  0  0  0  0  0  0  0  0  0
   14.4132   -0.2412   23.1016 C   0  0  0  0  0  0  0  0  0  0  0  0
   13.3738   -1.0719   21.0850 C   0  0  0  0  0  0  0  0  0  0  0  0
    3.8860    2.1050   19.5250 C   0  0  0  0  0  0  0  0  0  0  0  0
    4.2460    1.7520   20.8250 C   0  0  0  0  0  0  0  0  0  0  0  0
   13.1855    0.2683   23.5244 C   0  0  0  0  0  0  0  0  0  0  0  0
   12.1461   -0.5625   21.5079 C   0  0  0  0  0  0  0  0  0  0  0  0
    9.5890   -2.4950   23.2210 C   0  0  0  0  0  0  0  0  0  0  0  0
    8.2550   -1.0010   24.5520 C   0  0  0  0  0  0  0  0  0  0  0  0
    4.6610    1.7170   18.4380 C   0  0  0  0  0  0  0  0  0  0  0  0
    5.3890    1.0010   21.0690 C   0  0  0  0  0  0  0  0  0  0  0  0
    9.1890   -3.5540   24.0140 C   0  0  0  0  0  0  0  0  0  0  0  0
    7.8700   -2.0610   25.3550 C   0  0  0  0  0  0  0  0  0  0  0  0
   12.0519    0.1077   22.7276 C   0  0  0  0  0  0  0  0  0  0  0  0
    9.1280   -1.2090   23.4870 C   0  0  0  0  0  0  0  0  0  0  0  0
    5.7970    0.9500   18.6730 C   0  0  0  0  0  0  0  0  0  0  0  0
    6.1460    0.6070   19.9750 C   0  0  0  0  0  0  0  0  0  0  0  0
    8.3450   -3.3440   25.0980 C   0  0  0  0  0  0  0  0  0  0  0  0
    9.0430    0.2380   21.4940 C   0  0  0  0  0  0  0  0  0  0  0  0
    7.1165   -4.0862   26.9914 C   0  0  0  0  0  0  0  0  0  0  0  0
   10.7220    0.6590   23.1850 C   0  0  0  0  0  0  0  0  0  0  0  0
    9.5820   -0.1080   22.7000 C   0  0  1  0  0  0  0  0  0  0  0  0
    6.7100    0.3850   17.8100 N   0  0  0  0  0  0  0  0  0  0  0  0
    7.5840   -0.2700   18.5160 N   0  0  0  0  0  0  0  0  0  0  0  0
    7.2710   -0.1460   19.8310 N   0  0  0  0  0  0  0  0  0  0  0  0
    8.0950   -0.7700   20.8440 N   0  0  0  0  0  0  0  0  0  0  0  0
    9.2950    1.3000   20.9480 O   0  0  0  0  0  0  0  0  0  0  0  0
    7.9856   -4.3803   25.8987 O   0  0  0  0  0  0  0  0  0  0  0  0
   15.4637   -1.3068   21.5522 H   0  0  0  0  0  0  0  0  0  0  0  0
   15.2959   -0.1151   23.7217 H   0  0  0  0  0  0  0  0  0  0  0  0
   13.4470   -1.5927   20.1349 H   0  0  0  0  0  0  0  0  0  0  0  0
    2.9846    2.6932   19.3610 H   0  0  0  0  0  0  0  0  0  0  0  0
    3.6235    2.0692   21.6570 H   0  0  0  0  0  0  0  0  0  0  0  0
   13.1215    0.7889   24.4763 H   0  0  0  0  0  0  0  0  0  0  0  0
   11.2683   -0.6924   20.8805 H   0  0  0  0  0  0  0  0  0  0  0  0
   10.2677   -2.6721   22.3861 H   0  0  0  0  0  0  0  0  0  0  0  0
    7.8705   -0.0015   24.7586 H   0  0  0  0  0  0  0  0  0  0  0  0
    4.3785    2.0113   17.4257 H   0  0  0  0  0  0  0  0  0  0  0  0
    5.6763    0.7332   22.0915 H   0  0  0  0  0  0  0  0  0  0  0  0
    9.5403   -4.5634   23.7844 H   0  0  0  0  0  0  0  0  0  0  0  0
    7.1918   -1.8874   26.1909 H   0  0  0  0  0  0  0  0  0  0  0  0
    6.9092   -5.0024   27.5498 H   0  0  0  0  0  0  0  0  0  0  0  0
    6.1847   -3.6591   26.6123 H   0  0  0  0  0  0  0  0  0  0  0  0
    7.6049   -3.3637   27.6496 H   0  0  0  0  0  0  0  0  0  0  0  0
   10.7195    0.6680   24.2839 H   0  0  0  0  0  0  0  0  0  0  0  0
   10.6395    1.7141   22.8921 H   0  0  0  0  0  0  0  0  0  0  0  0
    8.6943    0.7922   23.3819 H   0  0  0  0  0  0  0  0  0  0  0  0
    8.1038   -1.6155   21.0990 H   0  0  0  0  0  0  0  0  0  0  0  0
  1  2  1  0  0  0  0
  1  3  2  0  0  0  0
  2  6  2  0  0  0  0
  3  7  1  0  0  0  0
  4  5  1  0  0  0  0
  4 10  2  0  0  0  0
  5 11  2  0  0  0  0
  6 14  1  0  0  0  0
  7 14  2  0  0  0  0
  8 12  2  0  0  0  0
  8 15  1  0  0  0  0
  9 13  1  0  0  0  0
  9 15  2  0  0  0  0
 10 16  1  0  0  0  0
 11 17  1  0  0  0  0
 12 18  1  0  0  0  0
 13 18  2  0  0  0  0
 14 21  1  0  0  0  0
 15 22  1  0  0  0  0
 16 17  2  0  0  0  0
 16 23  1  0  0  0  0
 17 25  1  0  0  0  0
 18 28  1  0  0  0  0
 19 22  1  0  0  0  0
 19 26  1  0  0  0  0
 19 27  2  0  0  0  0
 20 28  1  0  0  0  0
 21 22  1  1  0  0  0
 23 24  2  0  0  0  0
 24 25  1  0  0  0  0
 25 26  1  0  0  0  0
  1 29  1  0  0  0  0
  2 30  1  0  0  0  0
  3 31  1  0  0  0  0
  4 32  1  0  0  0  0
  5 33  1  0  0  0  0
  6 34  1  0  0  0  0
  7 35  1  0  0  0  0
  8 36  1  0  0  0  0
  9 37  1  0  0  0  0
 10 38  1  0  0  0  0
 11 39  1  0  0  0  0
 12 40  1  0  0  0  0
 13 41  1  0  0  0  0
 20 42  1  0  0  0  0
 20 43  1  0  0  0  0
 20 44  1  0  0  0  0
 21 45  1  0  0  0  0
 21 46  1  0  0  0  0
 22 47  1  0  0  0  0
 26 48  1  0  0  0  0
M  END
> <clash_score>
0

> <docking_score>
-6.49647331237793

> <overlap_score>
0.8829448819160461

$$$$
BENZO_184_1
  -OEChem-08222022443D

 45 48  0     1  0  0  0  0  0999 V2000
    3.8860    2.1050   19.5250 C   0  0  0  0  0  0  0  0  0  0  0  0
    4.2460    1.7520   20.8250 C   0  0  0  0  0  0  0  0  0  0  0  0
    9.5890   -2.4950   23.2210 C   0  0  0  0  0  0  0  0  0  0  0  0
    8.2550   -1.0010   24.5520 C   0  0  0  0  0  0  0  0  0  0  0  0
    4.6610    1.7170   18.4380 C   0  0  0  0  0  0  0  0  0  0  0  0
    5.3890    1.0010   21.0690 C   0  0  0  0  0  0  0  0  0  0  0  0
    9.1890   -3.5540   24.0140 C   0  0  0  0  0  0  0  0  0  0  0  0
    7.8700   -2.0610   25.3550 C   0  0  0  0  0  0  0  0  0  0  0  0
   13.0855   -0.3117   23.6141 C   0  0  0  0  0  0  0  0  0  0  0  0
   14.1930   -0.7722   22.9367 C   0  0  0  0  0  0  0  0  0  0  0  0
   12.4091   -0.0480   21.4061 C   0  0  0  0  0  0  0  0  0  0  0  0
    9.1280   -1.2090   23.4870 C   0  0  0  0  0  0  0  0  0  0  0  0
   12.0519    0.1077   22.7276 C   0  0  0  0  0  0  0  0  0  0  0  0
    5.7970    0.9500   18.6730 C   0  0  0  0  0  0  0  0  0  0  0  0
    6.1460    0.6070   19.9750 C   0  0  0  0  0  0  0  0  0  0  0  0
    8.3450   -3.3440   25.0980 C   0  0  0  0  0  0  0  0  0  0  0  0
    9.0430    0.2380   21.4940 C   0  0  0  0  0  0  0  0  0  0  0  0
    7.1165   -4.0862   26.9914 C   0  0  0  0  0  0  0  0  0  0  0  0
   10.7220    0.6590   23.1850 C   0  0  0  0  0  0  0  0  0  0  0  0
    9.5820   -0.1080   22.7000 C   0  0  1  0  0  0  0  0  0  0  0  0
    6.7100    0.3850   17.8100 N   0  0  0  0  0  0  0  0  0  0  0  0
    7.5840   -0.2700   18.5160 N   0  0  0  0  0  0  0  0  0  0  0  0
    7.2710   -0.1460   19.8310 N   0  0  0  0  0  0  0  0  0  0  0  0
    8.0950   -0.7700   20.8440 N   0  0  0  0  0  0  0  0  0  0  0  0
    9.2950    1.3000   20.9480 O   0  0  0  0  0  0  0  0  0  0  0  0
    7.9856   -4.3803   25.8987 O   0  0  0  0  0  0  0  0  0  0  0  0
   13.9845   -0.6978   21.2387 S   0  0  0  0  0  0  0  0  0  0  0  0
    2.9846    2.6932   19.3610 H   0  0  0  0  0  0  0  0  0  0  0  0
    3.6235    2.0692   21.6570 H   0  0  0  0  0  0  0  0  0  0  0  0
   10.2677   -2.6721   22.3861 H   0  0  0  0  0  0  0  0  0  0  0  0
    7.8705   -0.0015   24.7586 H   0  0  0  0  0  0  0  0  0  0  0  0
    4.3785    2.0113   17.4257 H   0  0  0  0  0  0  0  0  0  0  0  0
    5.6763    0.7332   22.0915 H   0  0  0  0  0  0  0  0  0  0  0  0
    9.5403   -4.5634   23.7844 H   0  0  0  0  0  0  0  0  0  0  0  0
    7.1918   -1.8874   26.1909 H   0  0  0  0  0  0  0  0  0  0  0  0
   13.0241   -0.2787   24.6946 H   0  0  0  0  0  0  0  0  0  0  0  0
   15.1149   -1.1481   23.3576 H   0  0  0  0  0  0  0  0  0  0  0  0
   11.8238    0.1885   20.5283 H   0  0  0  0  0  0  0  0  0  0  0  0
    6.9092   -5.0024   27.5498 H   0  0  0  0  0  0  0  0  0  0  0  0
    6.1847   -3.6591   26.6123 H   0  0  0  0  0  0  0  0  0  0  0  0
    7.6049   -3.3637   27.6496 H   0  0  0  0  0  0  0  0  0  0  0  0
   10.7195    0.6680   24.2839 H   0  0  0  0  0  0  0  0  0  0  0  0
   10.6395    1.7141   22.8921 H   0  0  0  0  0  0  0  0  0  0  0  0
    8.6943    0.7922   23.3819 H   0  0  0  0  0  0  0  0  0  0  0  0
    8.1038   -1.6155   21.0990 H   0  0  0  0  0  0  0  0  0  0  0  0
  1  2  1  0  0  0  0
  1  5  2  0  0  0  0
  2  6  2  0  0  0  0
  3  7  2  0  0  0  0
  3 12  1  0  0  0  0
  4  8  1  0  0  0  0
  4 12  2  0  0  0  0
  5 14  1  0  0  0  0
  6 15  1  0  0  0  0
  7 16  1  0  0  0  0
  8 16  2  0  0  0  0
  9 10  2  0  0  0  0
  9 13  1  0  0  0  0
 10 27  1  0  0  0  0
 11 13  2  0  0  0  0
 11 27  1  0  0  0  0
 12 20  1  0  0  0  0
 13 19  1  0  0  0  0
 14 15  2  0  0  0  0
 14 21  1  0  0  0  0
 15 23  1  0  0  0  0
 16 26  1  0  0  0  0
 17 20  1  0  0  0  0
 17 24  1  0  0  0  0
 17 25  2  0  0  0  0
 18 26  1  0  0  0  0
 19 20  1  1  0  0  0
 21 22  2  0  0  0  0
 22 23  1  0  0  0  0
 23 24  1  0  0  0  0
  1 28  1  0  0  0  0
  2 29  1  0  0  0  0
  3 30  1  0  0  0  0
  4 31  1  0  0  0  0
  5 32  1  0  0  0  0
  6 33  1  0  0  0  0
  7 34  1  0  0  0  0
  8 35  1  0  0  0  0
  9 36  1  0  0  0  0
 10 37  1  0  0  0  0
 11 38  1  0  0  0  0
 18 39  1  0  0  0  0
 18 40  1  0  0  0  0
 18 41  1  0  0  0  0
 19 42  1  0  0  0  0
 19 43  1  0  0  0  0
 20 44  1  0  0  0  0
 24 45  1  0  0  0  0
M  END
> <clash_score>
0

> <docking_score>
-6.1897664070129395

> <overlap_score>
0.8794111609458923

$$$$
BENZO_184_2
  -OEChem-08222022443D

 45 48  0     1  0  0  0  0  0999 V2000
    3.8860    2.1050   19.5250 C   0  0  0  0  0  0  0  0  0  0  0  0
    4.2460    1.7520   20.8250 C   0  0  0  0  0  0  0  0  0  0  0  0
    9.5890   -2.4950   23.2210 C   0  0  0  0  0  0  0  0  0  0  0  0
    8.2550   -1.0010   24.5520 C   0  0  0  0  0  0  0  0  0  0  0  0
    4.6610    1.7170   18.4380 C   0  0  0  0  0  0  0  0  0  0  0  0
    5.3890    1.0010   21.0690 C   0  0  0  0  0  0  0  0  0  0  0  0
    9.1890   -3.5540   24.0140 C   0  0  0  0  0  0  0  0  0  0  0  0
    7.8700   -2.0610   25.3550 C   0  0  0  0  0  0  0  0  0  0  0  0
   12.5521   -1.1164   22.7252 C   0  0  0  0  0  0  0  0  0  0  0  0
   13.5845   -1.7774   23.3535 C   0  0  0  0  0  0  0  0  0  0  0  0
   12.4440   -0.2022   24.8594 C   0  0  0  0  0  0  0  0  0  0  0  0
    9.1280   -1.2090   23.4870 C   0  0  0  0  0  0  0  0  0  0  0  0
   11.8914   -0.2037   23.5974 C   0  0  0  0  0  0  0  0  0  0  0  0
    5.7970    0.9500   18.6730 C   0  0  0  0  0  0  0  0  0  0  0  0
    6.1460    0.6070   19.9750 C   0  0  0  0  0  0  0  0  0  0  0  0
    8.3450   -3.3440   25.0980 C   0  0  0  0  0  0  0  0  0  0  0  0
    9.0430    0.2380   21.4940 C   0  0  0  0  0  0  0  0  0  0  0  0
    7.1165   -4.0862   26.9914 C   0  0  0  0  0  0  0  0  0  0  0  0
   10.7220    0.6590   23.1850 C   0  0  0  0  0  0  0  0  0  0  0  0
    9.5820   -0.1080   22.7000 C   0  0  2  0  0  0  0  0  0  0  0  0
    6.7100    0.3850   17.8100 N   0  0  0  0  0  0  0  0  0  0  0  0
    7.5840   -0.2700   18.5160 N   0  0  0  0  0  0  0  0  0  0  0  0
    7.2710   -0.1460   19.8310 N   0  0  0  0  0  0  0  0  0  0  0  0
    8.0950   -0.7700   20.8440 N   0  0  0  0  0  0  0  0  0  0  0  0
    9.2950    1.3000   20.9480 O   0  0  0  0  0  0  0  0  0  0  0  0
    7.9856   -4.3803   25.8987 O   0  0  0  0  0  0  0  0  0  0  0  0
   13.7539   -1.2974   24.9886 S   0  0  0  0  0  0  0  0  0  0  0  0
    2.9846    2.6932   19.3610 H   0  0  0  0  0  0  0  0  0  0  0  0
    3.6235    2.0692   21.6570 H   0  0  0  0  0  0  0  0  0  0  0  0
   10.2677   -2.6721   22.3861 H   0  0  0  0  0  0  0  0  0  0  0  0
    7.8705   -0.0015   24.7586 H   0  0  0  0  0  0  0  0  0  0  0  0
    4.3785    2.0113   17.4257 H   0  0  0  0  0  0  0  0  0  0  0  0
    5.6763    0.7332   22.0915 H   0  0  0  0  0  0  0  0  0  0  0  0
    9.5403   -4.5634   23.7844 H   0  0  0  0  0  0  0  0  0  0  0  0
    7.1918   -1.8874   26.1909 H   0  0  0  0  0  0  0  0  0  0  0  0
   12.2866   -1.2830   21.6889 H   0  0  0  0  0  0  0  0  0  0  0  0
   14.2469   -2.5196   22.9310 H   0  0  0  0  0  0  0  0  0  0  0  0
   12.1435    0.3872   25.7147 H   0  0  0  0  0  0  0  0  0  0  0  0
    6.9092   -5.0024   27.5498 H   0  0  0  0  0  0  0  0  0  0  0  0
    6.1847   -3.6591   26.6123 H   0  0  0  0  0  0  0  0  0  0  0  0
    7.6049   -3.3637   27.6496 H   0  0  0  0  0  0  0  0  0  0  0  0
   10.4198    1.2578   24.0555 H   0  0  0  0  0  0  0  0  0  0  0  0
   11.0503    1.3920   22.4361 H   0  0  0  0  0  0  0  0  0  0  0  0
   10.5231   -0.9933   22.0106 H   0  0  0  0  0  0  0  0  0  0  0  0
    8.1038   -1.6155   21.0990 H   0  0  0  0  0  0  0  0  0  0  0  0
  1  2  1  0  0  0  0
  1  5  2  0  0  0  0
  2  6  2  0  0  0  0
  3  7  2  0  0  0  0
  3 12  1  0  0  0  0
  4  8  1  0  0  0  0
  4 12  2  0  0  0  0
  5 14  1  0  0  0  0
  6 15  1  0  0  0  0
  7 16  1  0  0  0  0
  8 16  2  0  0  0  0
  9 10  2  0  0  0  0
  9 13  1  0  0  0  0
 10 27  1  0  0  0  0
 11 13  2  0  0  0  0
 11 27  1  0  0  0  0
 12 20  1  0  0  0  0
 13 19  1  0  0  0  0
 14 15  2  0  0  0  0
 14 21  1  0  0  0  0
 15 23  1  0  0  0  0
 16 26  1  0  0  0  0
 17 20  1  0  0  0  0
 17 24  1  0  0  0  0
 17 25  2  0  0  0  0
 18 26  1  0  0  0  0
 19 20  1  6  0  0  0
 21 22  2  0  0  0  0
 22 23  1  0  0  0  0
 23 24  1  0  0  0  0
  1 28  1  0  0  0  0
  2 29  1  0  0  0  0
  3 30  1  0  0  0  0
  4 31  1  0  0  0  0
  5 32  1  0  0  0  0
  6 33  1  0  0  0  0
  7 34  1  0  0  0  0
  8 35  1  0  0  0  0
  9 36  1  0  0  0  0
 10 37  1  0  0  0  0
 11 38  1  0  0  0  0
 18 39  1  0  0  0  0
 18 40  1  0  0  0  0
 18 41  1  0  0  0  0
 19 42  1  0  0  0  0
 19 43  1  0  0  0  0
 20 44  1  0  0  0  0
 24 45  1  0  0  0  0
M  END
> <clash_score>
0

> <docking_score>
-7.517627716064453

> <overlap_score>
0.8940446376800537

$$$$
BENZO_187_2
  -OEChem-08222022443D

 48 51  0     1  0  0  0  0  0999 V2000
    3.8860    2.1050   19.5250 C   0  0  0  0  0  0  0  0  0  0  0  0
    4.2460    1.7520   20.8250 C   0  0  0  0  0  0  0  0  0  0  0  0
    9.5890   -2.4950   23.2210 C   0  0  0  0  0  0  0  0  0  0  0  0
    8.2550   -1.0010   24.5520 C   0  0  0  0  0  0  0  0  0  0  0  0
    4.6610    1.7170   18.4380 C   0  0  0  0  0  0  0  0  0  0  0  0
    5.3890    1.0010   21.0690 C   0  0  0  0  0  0  0  0  0  0  0  0
    9.1890   -3.5540   24.0140 C   0  0  0  0  0  0  0  0  0  0  0  0
    7.8700   -2.0610   25.3550 C   0  0  0  0  0  0  0  0  0  0  0  0
   12.1546   -0.7527   24.8667 C   0  0  0  0  0  0  0  0  0  0  0  0
   12.9364   -0.6310   22.8152 C   0  0  0  0  0  0  0  0  0  0  0  0
    9.1280   -1.2090   23.4870 C   0  0  0  0  0  0  0  0  0  0  0  0
   11.8914   -0.2037   23.5974 C   0  0  0  0  0  0  0  0  0  0  0  0
    5.7970    0.9500   18.6730 C   0  0  0  0  0  0  0  0  0  0  0  0
    6.1460    0.6070   19.9750 C   0  0  0  0  0  0  0  0  0  0  0  0
    8.3450   -3.3440   25.0980 C   0  0  0  0  0  0  0  0  0  0  0  0
    9.0430    0.2380   21.4940 C   0  0  0  0  0  0  0  0  0  0  0  0
   14.9563   -2.0460   23.2586 C   0  0  0  0  0  0  0  0  0  0  0  0
    8.5106   -5.6662   25.5724 C   0  0  0  0  0  0  0  0  0  0  0  0
   10.7220    0.6590   23.1850 C   0  0  0  0  0  0  0  0  0  0  0  0
    9.5820   -0.1080   22.7000 C   0  0  2  0  0  0  0  0  0  0  0  0
   13.2786   -1.4738   24.8937 N   0  0  0  0  0  0  0  0  0  0  0  0
    6.7100    0.3850   17.8100 N   0  0  0  0  0  0  0  0  0  0  0  0
    7.5840   -0.2700   18.5160 N   0  0  0  0  0  0  0  0  0  0  0  0
   13.7309   -1.3809   23.6316 N   0  0  0  0  0  0  0  0  0  0  0  0
    7.2710   -0.1460   19.8310 N   0  0  0  0  0  0  0  0  0  0  0  0
    8.0950   -0.7700   20.8440 N   0  0  0  0  0  0  0  0  0  0  0  0
    9.2950    1.3000   20.9480 O   0  0  0  0  0  0  0  0  0  0  0  0
    7.9856   -4.3803   25.8987 O   0  0  0  0  0  0  0  0  0  0  0  0
    2.9846    2.6932   19.3610 H   0  0  0  0  0  0  0  0  0  0  0  0
    3.6235    2.0692   21.6570 H   0  0  0  0  0  0  0  0  0  0  0  0
   10.2677   -2.6721   22.3861 H   0  0  0  0  0  0  0  0  0  0  0  0
    7.8705   -0.0015   24.7586 H   0  0  0  0  0  0  0  0  0  0  0  0
    4.3785    2.0113   17.4257 H   0  0  0  0  0  0  0  0  0  0  0  0
    5.6763    0.7332   22.0915 H   0  0  0  0  0  0  0  0  0  0  0  0
    9.5403   -4.5634   23.7844 H   0  0  0  0  0  0  0  0  0  0  0  0
    7.1918   -1.8874   26.1909 H   0  0  0  0  0  0  0  0  0  0  0  0
   11.5753   -0.6595   25.7744 H   0  0  0  0  0  0  0  0  0  0  0  0
   13.1758   -0.4703   21.7727 H   0  0  0  0  0  0  0  0  0  0  0  0
   15.7825   -1.3505   23.4278 H   0  0  0  0  0  0  0  0  0  0  0  0
   15.0826   -2.9452   23.8680 H   0  0  0  0  0  0  0  0  0  0  0  0
   14.9057   -2.3321   22.2043 H   0  0  0  0  0  0  0  0  0  0  0  0
    8.1445   -6.4032   26.2914 H   0  0  0  0  0  0  0  0  0  0  0  0
    9.6027   -5.6312   25.5944 H   0  0  0  0  0  0  0  0  0  0  0  0
    8.1770   -5.9422   24.5693 H   0  0  0  0  0  0  0  0  0  0  0  0
   10.4198    1.2578   24.0555 H   0  0  0  0  0  0  0  0  0  0  0  0
   11.0503    1.3920   22.4361 H   0  0  0  0  0  0  0  0  0  0  0  0
   10.5231   -0.9933   22.0106 H   0  0  0  0  0  0  0  0  0  0  0  0
    8.1038   -1.6155   21.0990 H   0  0  0  0  0  0  0  0  0  0  0  0
  1  2  1  0  0  0  0
  1  5  2  0  0  0  0
  2  6  2  0  0  0  0
  3  7  2  0  0  0  0
  3 11  1  0  0  0  0
  4  8  1  0  0  0  0
  4 11  2  0  0  0  0
  5 13  1  0  0  0  0
  6 14  1  0  0  0  0
  7 15  1  0  0  0  0
  8 15  2  0  0  0  0
  9 12  1  0  0  0  0
  9 21  2  0  0  0  0
 10 12  2  0  0  0  0
 10 24  1  0  0  0  0
 11 20  1  0  0  0  0
 12 19  1  0  0  0  0
 13 14  2  0  0  0  0
 13 22  1  0  0  0  0
 14 25  1  0  0  0  0
 15 28  1  0  0  0  0
 16 20  1  0  0  0  0
 16 26  1  0  0  0  0
 16 27  2  0  0  0  0
 17 24  1  0  0  0  0
 18 28  1  0  0  0  0
 19 20  1  6  0  0  0
 21 24  1  0  0  0  0
 22 23  2  0  0  0  0
 23 25  1  0  0  0  0
 25 26  1  0  0  0  0
  1 29  1  0  0  0  0
  2 30  1  0  0  0  0
  3 31  1  0  0  0  0
  4 32  1  0  0  0  0
  5 33  1  0  0  0  0
  6 34  1  0  0  0  0
  7 35  1  0  0  0  0
  8 36  1  0  0  0  0
  9 37  1  0  0  0  0
 10 38  1  0  0  0  0
 17 39  1  0  0  0  0
 17 40  1  0  0  0  0
 17 41  1  0  0  0  0
 18 42  1  0  0  0  0
 18 43  1  0  0  0  0
 18 44  1  0  0  0  0
 19 45  1  0  0  0  0
 19 46  1  0  0  0  0
 20 47  1  0  0  0  0
 26 48  1  0  0  0  0
M  END
> <clash_score>
0

> <docking_score>
-6.670469284057617

> <overlap_score>
0.8991690278053284

$$$$
BENZO_187_1
  -OEChem-08222022443D

 48 51  0     1  0  0  0  0  0999 V2000
    3.8860    2.1050   19.5250 C   0  0  0  0  0  0  0  0  0  0  0  0
    4.2460    1.7520   20.8250 C   0  0  0  0  0  0  0  0  0  0  0  0
    9.5890   -2.4950   23.2210 C   0  0  0  0  0  0  0  0  0  0  0  0
    8.2550   -1.0010   24.5520 C   0  0  0  0  0  0  0  0  0  0  0  0
    4.6610    1.7170   18.4380 C   0  0  0  0  0  0  0  0  0  0  0  0
    5.3890    1.0010   21.0690 C   0  0  0  0  0  0  0  0  0  0  0  0
    9.1890   -3.5540   24.0140 C   0  0  0  0  0  0  0  0  0  0  0  0
    7.8700   -2.0610   25.3550 C   0  0  0  0  0  0  0  0  0  0  0  0
   13.2450    0.8161   22.4899 C   0  0  0  0  0  0  0  0  0  0  0  0
   12.3686   -1.2002   22.4525 C   0  0  0  0  0  0  0  0  0  0  0  0
    9.1280   -1.2090   23.4870 C   0  0  0  0  0  0  0  0  0  0  0  0
   12.0519    0.1077   22.7276 C   0  0  0  0  0  0  0  0  0  0  0  0
    5.7970    0.9500   18.6730 C   0  0  0  0  0  0  0  0  0  0  0  0
    6.1460    0.6070   19.9750 C   0  0  0  0  0  0  0  0  0  0  0  0
    8.3450   -3.3440   25.0980 C   0  0  0  0  0  0  0  0  0  0  0  0
    9.0430    0.2380   21.4940 C   0  0  0  0  0  0  0  0  0  0  0  0
   14.4659   -2.3443   21.6969 C   0  0  0  0  0  0  0  0  0  0  0  0
    7.1165   -4.0862   26.9914 C   0  0  0  0  0  0  0  0  0  0  0  0
   10.7220    0.6590   23.1850 C   0  0  0  0  0  0  0  0  0  0  0  0
    9.5820   -0.1080   22.7000 C   0  0  1  0  0  0  0  0  0  0  0  0
   14.2451    0.0239   22.0946 N   0  0  0  0  0  0  0  0  0  0  0  0
    6.7100    0.3850   17.8100 N   0  0  0  0  0  0  0  0  0  0  0  0
    7.5840   -0.2700   18.5160 N   0  0  0  0  0  0  0  0  0  0  0  0
   13.6811   -1.1959   22.0817 N   0  0  0  0  0  0  0  0  0  0  0  0
    7.2710   -0.1460   19.8310 N   0  0  0  0  0  0  0  0  0  0  0  0
    8.0950   -0.7700   20.8440 N   0  0  0  0  0  0  0  0  0  0  0  0
    9.2950    1.3000   20.9480 O   0  0  0  0  0  0  0  0  0  0  0  0
    7.9856   -4.3803   25.8987 O   0  0  0  0  0  0  0  0  0  0  0  0
    2.9846    2.6932   19.3610 H   0  0  0  0  0  0  0  0  0  0  0  0
    3.6235    2.0692   21.6570 H   0  0  0  0  0  0  0  0  0  0  0  0
   10.2677   -2.6721   22.3861 H   0  0  0  0  0  0  0  0  0  0  0  0
    7.8705   -0.0015   24.7586 H   0  0  0  0  0  0  0  0  0  0  0  0
    4.3785    2.0113   17.4257 H   0  0  0  0  0  0  0  0  0  0  0  0
    5.6763    0.7332   22.0915 H   0  0  0  0  0  0  0  0  0  0  0  0
    9.5403   -4.5634   23.7844 H   0  0  0  0  0  0  0  0  0  0  0  0
    7.1918   -1.8874   26.1909 H   0  0  0  0  0  0  0  0  0  0  0  0
   13.4301    1.8764   22.5886 H   0  0  0  0  0  0  0  0  0  0  0  0
   11.7867   -2.1111   22.4895 H   0  0  0  0  0  0  0  0  0  0  0  0
   14.3687   -2.4723   20.6156 H   0  0  0  0  0  0  0  0  0  0  0  0
   15.5118   -2.1787   21.9698 H   0  0  0  0  0  0  0  0  0  0  0  0
   14.0944   -3.2284   22.2225 H   0  0  0  0  0  0  0  0  0  0  0  0
    6.9092   -5.0024   27.5498 H   0  0  0  0  0  0  0  0  0  0  0  0
    6.1847   -3.6591   26.6123 H   0  0  0  0  0  0  0  0  0  0  0  0
    7.6049   -3.3637   27.6496 H   0  0  0  0  0  0  0  0  0  0  0  0
   10.7195    0.6680   24.2839 H   0  0  0  0  0  0  0  0  0  0  0  0
   10.6395    1.7141   22.8921 H   0  0  0  0  0  0  0  0  0  0  0  0
    8.6943    0.7922   23.3819 H   0  0  0  0  0  0  0  0  0  0  0  0
    8.1038   -1.6155   21.0990 H   0  0  0  0  0  0  0  0  0  0  0  0
  1  2  1  0  0  0  0
  1  5  2  0  0  0  0
  2  6  2  0  0  0  0
  3  7  2  0  0  0  0
  3 11  1  0  0  0  0
  4  8  1  0  0  0  0
  4 11  2  0  0  0  0
  5 13  1  0  0  0  0
  6 14  1  0  0  0  0
  7 15  1  0  0  0  0
  8 15  2  0  0  0  0
  9 12  1  0  0  0  0
  9 21  2  0  0  0  0
 10 12  2  0  0  0  0
 10 24  1  0  0  0  0
 11 20  1  0  0  0  0
 12 19  1  0  0  0  0
 13 14  2  0  0  0  0
 13 22  1  0  0  0  0
 14 25  1  0  0  0  0
 15 28  1  0  0  0  0
 16 20  1  0  0  0  0
 16 26  1  0  0  0  0
 16 27  2  0  0  0  0
 17 24  1  0  0  0  0
 18 28  1  0  0  0  0
 19 20  1  1  0  0  0
 21 24  1  0  0  0  0
 22 23  2  0  0  0  0
 23 25  1  0  0  0  0
 25 26  1  0  0  0  0
  1 29  1  0  0  0  0
  2 30  1  0  0  0  0
  3 31  1  0  0  0  0
  4 32  1  0  0  0  0
  5 33  1  0  0  0  0
  6 34  1  0  0  0  0
  7 35  1  0  0  0  0
  8 36  1  0  0  0  0
  9 37  1  0  0  0  0
 10 38  1  0  0  0  0
 17 39  1  0  0  0  0
 17 40  1  0  0  0  0
 17 41  1  0  0  0  0
 18 42  1  0  0  0  0
 18 43  1  0  0  0  0
 18 44  1  0  0  0  0
 19 45  1  0  0  0  0
 19 46  1  0  0  0  0
 20 47  1  0  0  0  0
 26 48  1  0  0  0  0
M  END
> <clash_score>
0

> <docking_score>
-6.319518089294434

> <overlap_score>
0.8835227489471436

$$$$
BENZO_186_1
  -OEChem-08222022443D

 48 51  0     1  0  0  0  0  0999 V2000
    3.8860    2.1050   19.5250 C   0  0  0  0  0  0  0  0  0  0  0  0
    4.2460    1.7520   20.8250 C   0  0  0  0  0  0  0  0  0  0  0  0
   13.8445    0.0438   21.1092 C   0  0  0  0  0  0  0  0  0  0  0  0
   12.6160    0.5516   21.5316 C   0  0  0  0  0  0  0  0  0  0  0  0
    9.5890   -2.4950   23.2210 C   0  0  0  0  0  0  0  0  0  0  0  0
    8.2550   -1.0010   24.5520 C   0  0  0  0  0  0  0  0  0  0  0  0
    4.6610    1.7170   18.4380 C   0  0  0  0  0  0  0  0  0  0  0  0
    5.3890    1.0010   21.0690 C   0  0  0  0  0  0  0  0  0  0  0  0
    9.1890   -3.5540   24.0140 C   0  0  0  0  0  0  0  0  0  0  0  0
    7.8700   -2.0610   25.3550 C   0  0  0  0  0  0  0  0  0  0  0  0
   14.5090   -0.9080   21.8827 C   0  0  0  0  0  0  0  0  0  0  0  0
   12.7164   -0.8440   23.5012 C   0  0  0  0  0  0  0  0  0  0  0  0
    9.1280   -1.2090   23.4870 C   0  0  0  0  0  0  0  0  0  0  0  0
   12.0519    0.1077   22.7276 C   0  0  0  0  0  0  0  0  0  0  0  0
    5.7970    0.9500   18.6730 C   0  0  0  0  0  0  0  0  0  0  0  0
    6.1460    0.6070   19.9750 C   0  0  0  0  0  0  0  0  0  0  0  0
    8.3450   -3.3440   25.0980 C   0  0  0  0  0  0  0  0  0  0  0  0
   13.9449   -1.3519   23.0787 C   0  0  0  0  0  0  0  0  0  0  0  0
    9.0430    0.2380   21.4940 C   0  0  0  0  0  0  0  0  0  0  0  0
    8.5106   -5.6662   25.5724 C   0  0  0  0  0  0  0  0  0  0  0  0
   10.7220    0.6590   23.1850 C   0  0  0  0  0  0  0  0  0  0  0  0
    9.5820   -0.1080   22.7000 C   0  0  1  0  0  0  0  0  0  0  0  0
    6.7100    0.3850   17.8100 N   0  0  0  0  0  0  0  0  0  0  0  0
    7.5840   -0.2700   18.5160 N   0  0  0  0  0  0  0  0  0  0  0  0
    7.2710   -0.1460   19.8310 N   0  0  0  0  0  0  0  0  0  0  0  0
    8.0950   -0.7700   20.8440 N   0  0  0  0  0  0  0  0  0  0  0  0
    9.2950    1.3000   20.9480 O   0  0  0  0  0  0  0  0  0  0  0  0
    7.9856   -4.3803   25.8987 O   0  0  0  0  0  0  0  0  0  0  0  0
   14.7657   -2.5253   24.0333 Cl  0  0  0  0  0  0  0  0  0  0  0  0
    2.9846    2.6932   19.3610 H   0  0  0  0  0  0  0  0  0  0  0  0
    3.6235    2.0692   21.6570 H   0  0  0  0  0  0  0  0  0  0  0  0
   14.2835    0.3898   20.1778 H   0  0  0  0  0  0  0  0  0  0  0  0
   12.1054    1.2930   20.9225 H   0  0  0  0  0  0  0  0  0  0  0  0
   10.2677   -2.6721   22.3861 H   0  0  0  0  0  0  0  0  0  0  0  0
    7.8705   -0.0015   24.7586 H   0  0  0  0  0  0  0  0  0  0  0  0
    4.3785    2.0113   17.4257 H   0  0  0  0  0  0  0  0  0  0  0  0
    5.6763    0.7332   22.0915 H   0  0  0  0  0  0  0  0  0  0  0  0
    9.5403   -4.5634   23.7844 H   0  0  0  0  0  0  0  0  0  0  0  0
    7.1918   -1.8874   26.1909 H   0  0  0  0  0  0  0  0  0  0  0  0
   15.4660   -1.2948   21.5412 H   0  0  0  0  0  0  0  0  0  0  0  0
   12.2722   -1.1873   24.4326 H   0  0  0  0  0  0  0  0  0  0  0  0
    8.1445   -6.4032   26.2914 H   0  0  0  0  0  0  0  0  0  0  0  0
    9.6027   -5.6312   25.5944 H   0  0  0  0  0  0  0  0  0  0  0  0
    8.1770   -5.9422   24.5693 H   0  0  0  0  0  0  0  0  0  0  0  0
   10.7195    0.6680   24.2839 H   0  0  0  0  0  0  0  0  0  0  0  0
   10.6395    1.7141   22.8921 H   0  0  0  0  0  0  0  0  0  0  0  0
    8.6943    0.7922   23.3819 H   0  0  0  0  0  0  0  0  0  0  0  0
    8.1038   -1.6155   21.0990 H   0  0  0  0  0  0  0  0  0  0  0  0
  1  2  1  0  0  0  0
  1  7  2  0  0  0  0
  2  8  2  0  0  0  0
  3  4  2  0  0  0  0
  3 11  1  0  0  0  0
  4 14  1  0  0  0  0
  5  9  2  0  0  0  0
  5 13  1  0  0  0  0
  6 10  1  0  0  0  0
  6 13  2  0  0  0  0
  7 15  1  0  0  0  0
  8 16  1  0  0  0  0
  9 17  1  0  0  0  0
 10 17  2  0  0  0  0
 11 18  2  0  0  0  0
 12 14  2  0  0  0  0
 12 18  1  0  0  0  0
 13 22  1  0  0  0  0
 14 21  1  0  0  0  0
 15 16  2  0  0  0  0
 15 23  1  0  0  0  0
 16 25  1  0  0  0  0
 17 28  1  0  0  0  0
 18 29  1  0  0  0  0
 19 22  1  0  0  0  0
 19 26  1  0  0  0  0
 19 27  2  0  0  0  0
 20 28  1  0  0  0  0
 21 22  1  1  0  0  0
 23 24  2  0  0  0  0
 24 25  1  0  0  0  0
 25 26  1  0  0  0  0
  1 30  1  0  0  0  0
  2 31  1  0  0  0  0
  3 32  1  0  0  0  0
  4 33  1  0  0  0  0
  5 34  1  0  0  0  0
  6 35  1  0  0  0  0
  7 36  1  0  0  0  0
  8 37  1  0  0  0  0
  9 38  1  0  0  0  0
 10 39  1  0  0  0  0
 11 40  1  0  0  0  0
 12 41  1  0  0  0  0
 20 42  1  0  0  0  0
 20 43  1  0  0  0  0
 20 44  1  0  0  0  0
 21 45  1  0  0  0  0
 21 46  1  0  0  0  0
 22 47  1  0  0  0  0
 26 48  1  0  0  0  0
M  END
> <clash_score>
0

> <docking_score>
-6.126736640930176

> <overlap_score>
0.8907785415649414

$$$$
BENZO_186_2
  -OEChem-08222022443D

 48 51  0     1  0  0  0  0  0999 V2000
    3.8860    2.1050   19.5250 C   0  0  0  0  0  0  0  0  0  0  0  0
    4.2460    1.7520   20.8250 C   0  0  0  0  0  0  0  0  0  0  0  0
   13.0699   -1.4582   25.2928 C   0  0  0  0  0  0  0  0  0  0  0  0
   11.9910   -0.6606   24.9116 C   0  0  0  0  0  0  0  0  0  0  0  0
    9.5890   -2.4950   23.2210 C   0  0  0  0  0  0  0  0  0  0  0  0
    8.2550   -1.0010   24.5520 C   0  0  0  0  0  0  0  0  0  0  0  0
    4.6610    1.7170   18.4380 C   0  0  0  0  0  0  0  0  0  0  0  0
    5.3890    1.0010   21.0690 C   0  0  0  0  0  0  0  0  0  0  0  0
    9.1890   -3.5540   24.0140 C   0  0  0  0  0  0  0  0  0  0  0  0
    7.8700   -2.0610   25.3550 C   0  0  0  0  0  0  0  0  0  0  0  0
   14.0494   -1.7989   24.3598 C   0  0  0  0  0  0  0  0  0  0  0  0
   12.8708   -0.5445   22.6644 C   0  0  0  0  0  0  0  0  0  0  0  0
    9.1280   -1.2090   23.4870 C   0  0  0  0  0  0  0  0  0  0  0  0
   11.8914   -0.2037   23.5974 C   0  0  0  0  0  0  0  0  0  0  0  0
    5.7970    0.9500   18.6730 C   0  0  0  0  0  0  0  0  0  0  0  0
    6.1460    0.6070   19.9750 C   0  0  0  0  0  0  0  0  0  0  0  0
    8.3450   -3.3440   25.0980 C   0  0  0  0  0  0  0  0  0  0  0  0
   13.9498   -1.3420   23.0457 C   0  0  0  0  0  0  0  0  0  0  0  0
    9.0430    0.2380   21.4940 C   0  0  0  0  0  0  0  0  0  0  0  0
    8.5106   -5.6662   25.5724 C   0  0  0  0  0  0  0  0  0  0  0  0
   10.7220    0.6590   23.1850 C   0  0  0  0  0  0  0  0  0  0  0  0
    9.5820   -0.1080   22.7000 C   0  0  2  0  0  0  0  0  0  0  0  0
    6.7100    0.3850   17.8100 N   0  0  0  0  0  0  0  0  0  0  0  0
    7.5840   -0.2700   18.5160 N   0  0  0  0  0  0  0  0  0  0  0  0
    7.2710   -0.1460   19.8310 N   0  0  0  0  0  0  0  0  0  0  0  0
    8.0950   -0.7700   20.8440 N   0  0  0  0  0  0  0  0  0  0  0  0
    9.2950    1.3000   20.9480 O   0  0  0  0  0  0  0  0  0  0  0  0
    7.9856   -4.3803   25.8987 O   0  0  0  0  0  0  0  0  0  0  0  0
   15.1579   -1.7637   21.8948 Cl  0  0  0  0  0  0  0  0  0  0  0  0
    2.9846    2.6932   19.3610 H   0  0  0  0  0  0  0  0  0  0  0  0
    3.6235    2.0692   21.6570 H   0  0  0  0  0  0  0  0  0  0  0  0
   13.1470   -1.8139   26.3162 H   0  0  0  0  0  0  0  0  0  0  0  0
   11.2324   -0.4002   25.6451 H   0  0  0  0  0  0  0  0  0  0  0  0
   10.2677   -2.6721   22.3861 H   0  0  0  0  0  0  0  0  0  0  0  0
    7.8705   -0.0015   24.7586 H   0  0  0  0  0  0  0  0  0  0  0  0
    4.3785    2.0113   17.4257 H   0  0  0  0  0  0  0  0  0  0  0  0
    5.6763    0.7332   22.0915 H   0  0  0  0  0  0  0  0  0  0  0  0
    9.5403   -4.5634   23.7844 H   0  0  0  0  0  0  0  0  0  0  0  0
    7.1918   -1.8874   26.1909 H   0  0  0  0  0  0  0  0  0  0  0  0
   14.8846   -2.4215   24.6710 H   0  0  0  0  0  0  0  0  0  0  0  0
   12.7889   -0.1853   21.6412 H   0  0  0  0  0  0  0  0  0  0  0  0
    8.1445   -6.4032   26.2914 H   0  0  0  0  0  0  0  0  0  0  0  0
    9.6027   -5.6312   25.5944 H   0  0  0  0  0  0  0  0  0  0  0  0
    8.1770   -5.9422   24.5693 H   0  0  0  0  0  0  0  0  0  0  0  0
   10.4198    1.2578   24.0555 H   0  0  0  0  0  0  0  0  0  0  0  0
   11.0503    1.3920   22.4361 H   0  0  0  0  0  0  0  0  0  0  0  0
   10.5231   -0.9933   22.0106 H   0  0  0  0  0  0  0  0  0  0  0  0
    8.1038   -1.6155   21.0990 H   0  0  0  0  0  0  0  0  0  0  0  0
  1  2  1  0  0  0  0
  1  7  2  0  0  0  0
  2  8  2  0  0  0  0
  3  4  2  0  0  0  0
  3 11  1  0  0  0  0
  4 14  1  0  0  0  0
  5  9  2  0  0  0  0
  5 13  1  0  0  0  0
  6 10  1  0  0  0  0
  6 13  2  0  0  0  0
  7 15  1  0  0  0  0
  8 16  1  0  0  0  0
  9 17  1  0  0  0  0
 10 17  2  0  0  0  0
 11 18  2  0  0  0  0
 12 14  2  0  0  0  0
 12 18  1  0  0  0  0
 13 22  1  0  0  0  0
 14 21  1  0  0  0  0
 15 16  2  0  0  0  0
 15 23  1  0  0  0  0
 16 25  1  0  0  0  0
 17 28  1  0  0  0  0
 18 29  1  0  0  0  0
 19 22  1  0  0  0  0
 19 26  1  0  0  0  0
 19 27  2  0  0  0  0
 20 28  1  0  0  0  0
 21 22  1  6  0  0  0
 23 24  2  0  0  0  0
 24 25  1  0  0  0  0
 25 26  1  0  0  0  0
  1 30  1  0  0  0  0
  2 31  1  0  0  0  0
  3 32  1  0  0  0  0
  4 33  1  0  0  0  0
  5 34  1  0  0  0  0
  6 35  1  0  0  0  0
  7 36  1  0  0  0  0
  8 37  1  0  0  0  0
  9 38  1  0  0  0  0
 10 39  1  0  0  0  0
 11 40  1  0  0  0  0
 12 41  1  0  0  0  0
 20 42  1  0  0  0  0
 20 43  1  0  0  0  0
 20 44  1  0  0  0  0
 21 45  1  0  0  0  0
 21 46  1  0  0  0  0
 22 47  1  0  0  0  0
 26 48  1  0  0  0  0
M  END
> <clash_score>
0

> <docking_score>
-6.743407249450684

> <overlap_score>
0.9032610058784485

$$$$
BENZO_189_1
  -OEChem-08222022443D

 58 62  0     1  0  0  0  0  0999 V2000
   14.0375   -1.8229   24.3428 C   0  0  0  0  0  0  0  0  0  0  0  0
   13.0623   -1.4808   25.2795 C   0  0  0  0  0  0  0  0  0  0  0  0
   13.9374   -1.3599   23.0308 C   0  0  0  0  0  0  0  0  0  0  0  0
    3.8860    2.1050   19.5250 C   0  0  0  0  0  0  0  0  0  0  0  0
    4.2460    1.7520   20.8250 C   0  0  0  0  0  0  0  0  0  0  0  0
   11.9868   -0.6757   24.9042 C   0  0  0  0  0  0  0  0  0  0  0  0
   12.8619   -0.5549   22.6555 C   0  0  0  0  0  0  0  0  0  0  0  0
    9.5890   -2.4950   23.2210 C   0  0  0  0  0  0  0  0  0  0  0  0
    8.2550   -1.0010   24.5520 C   0  0  0  0  0  0  0  0  0  0  0  0
    4.6610    1.7170   18.4380 C   0  0  0  0  0  0  0  0  0  0  0  0
    5.3890    1.0010   21.0690 C   0  0  0  0  0  0  0  0  0  0  0  0
    9.1890   -3.5540   24.0140 C   0  0  0  0  0  0  0  0  0  0  0  0
    7.8700   -2.0610   25.3550 C   0  0  0  0  0  0  0  0  0  0  0  0
   11.8866   -0.2127   23.5922 C   0  0  0  0  0  0  0  0  0  0  0  0
    9.1280   -1.2090   23.4870 C   0  0  0  0  0  0  0  0  0  0  0  0
    5.7970    0.9500   18.6730 C   0  0  0  0  0  0  0  0  0  0  0  0
    6.1460    0.6070   19.9750 C   0  0  0  0  0  0  0  0  0  0  0  0
    8.3450   -3.3440   25.0980 C   0  0  0  0  0  0  0  0  0  0  0  0
    6.6194   -4.8191   26.1158 C   0  0  0  0  0  0  0  0  0  0  0  0
    9.0430    0.2380   21.4940 C   0  0  0  0  0  0  0  0  0  0  0  0
    6.4366   -5.9938   27.0605 C   0  0  0  0  0  0  0  0  0  0  0  0
    7.2458   -5.7947   28.3299 C   0  0  0  0  0  0  0  0  0  0  0  0
    8.7184   -5.5215   28.0404 C   0  0  0  0  0  0  0  0  0  0  0  0
    9.0024   -5.2744   26.5596 C   0  0  0  0  0  0  0  0  0  0  0  0
   10.7220    0.6590   23.1850 C   0  0  0  0  0  0  0  0  0  0  0  0
    9.5820   -0.1080   22.7000 C   0  0  1  0  0  0  0  0  0  0  0  0
    6.7100    0.3850   17.8100 N   0  0  0  0  0  0  0  0  0  0  0  0
    7.5840   -0.2700   18.5160 N   0  0  0  0  0  0  0  0  0  0  0  0
    7.2710   -0.1460   19.8310 N   0  0  0  0  0  0  0  0  0  0  0  0
    7.9658   -4.4384   25.9449 N   0  0  0  0  0  0  0  0  0  0  0  0
    8.0950   -0.7700   20.8440 N   0  0  0  0  0  0  0  0  0  0  0  0
    5.6415   -4.3469   25.5373 O   0  0  0  0  0  0  0  0  0  0  0  0
    9.2950    1.3000   20.9480 O   0  0  0  0  0  0  0  0  0  0  0  0
   14.8756   -2.4487   24.6355 H   0  0  0  0  0  0  0  0  0  0  0  0
   13.1407   -1.8403   26.3013 H   0  0  0  0  0  0  0  0  0  0  0  0
   14.6970   -1.6252   22.3015 H   0  0  0  0  0  0  0  0  0  0  0  0
    2.9846    2.6932   19.3610 H   0  0  0  0  0  0  0  0  0  0  0  0
    3.6235    2.0692   21.6570 H   0  0  0  0  0  0  0  0  0  0  0  0
   11.2315   -0.4143   25.6407 H   0  0  0  0  0  0  0  0  0  0  0  0
   12.7920   -0.1989   21.6310 H   0  0  0  0  0  0  0  0  0  0  0  0
   10.2695   -2.6718   22.3873 H   0  0  0  0  0  0  0  0  0  0  0  0
    7.8712   -0.0014   24.7587 H   0  0  0  0  0  0  0  0  0  0  0  0
    4.3785    2.0113   17.4257 H   0  0  0  0  0  0  0  0  0  0  0  0
    5.6763    0.7332   22.0915 H   0  0  0  0  0  0  0  0  0  0  0  0
    9.5431   -4.5618   23.7801 H   0  0  0  0  0  0  0  0  0  0  0  0
    7.1923   -1.8823   26.1912 H   0  0  0  0  0  0  0  0  0  0  0  0
    5.3901   -6.0734   27.3117 H   0  0  0  0  0  0  0  0  0  0  0  0
    6.7606   -6.8843   26.5429 H   0  0  0  0  0  0  0  0  0  0  0  0
    6.8221   -4.9563   28.9212 H   0  0  0  0  0  0  0  0  0  0  0  0
    7.1526   -6.6910   28.9757 H   0  0  0  0  0  0  0  0  0  0  0  0
    9.0539   -4.6418   28.6288 H   0  0  0  0  0  0  0  0  0  0  0  0
    9.3393   -6.3684   28.4053 H   0  0  0  0  0  0  0  0  0  0  0  0
    9.9475   -4.7506   26.4523 H   0  0  0  0  0  0  0  0  0  0  0  0
    9.0509   -6.2236   26.0372 H   0  0  0  0  0  0  0  0  0  0  0  0
   10.4364    1.2691   24.0532 H   0  0  0  0  0  0  0  0  0  0  0  0
   11.0496    1.3814   22.4256 H   0  0  0  0  0  0  0  0  0  0  0  0
   10.5267   -0.9929   22.0072 H   0  0  0  0  0  0  0  0  0  0  0  0
    8.0815   -1.6117   21.0754 H   0  0  0  0  0  0  0  0  0  0  0  0
  1  2  1  0  0  0  0
  1  3  2  0  0  0  0
  2  6  2  0  0  0  0
  3  7  1  0  0  0  0
  4  5  1  0  0  0  0
  4 10  2  0  0  0  0
  5 11  2  0  0  0  0
  6 14  1  0  0  0  0
  7 14  2  0  0  0  0
  8 12  2  0  0  0  0
  8 15  1  0  0  0  0
  9 13  1  0  0  0  0
  9 15  2  0  0  0  0
 10 16  1  0  0  0  0
 11 17  1  0  0  0  0
 12 18  1  0  0  0  0
 13 18  2  0  0  0  0
 14 25  1  0  0  0  0
 15 26  1  0  0  0  0
 16 17  2  0  0  0  0
 16 27  1  0  0  0  0
 17 29  1  0  0  0  0
 18 30  1  0  0  0  0
 19 21  1  0  0  0  0
 19 30  1  0  0  0  0
 19 32  2  0  0  0  0
 20 26  1  1  0  0  0
 20 31  1  0  0  0  0
 20 33  2  0  0  0  0
 21 22  1  0  0  0  0
 22 23  1  0  0  0  0
 23 24  1  0  0  0  0
 24 30  1  0  0  0  0
 25 26  1  0  0  0  0
 27 28  2  0  0  0  0
 28 29  1  0  0  0  0
 29 31  1  0  0  0  0
  1 34  1  0  0  0  0
  2 35  1  0  0  0  0
  3 36  1  0  0  0  0
  4 37  1  0  0  0  0
  5 38  1  0  0  0  0
  6 39  1  0  0  0  0
  7 40  1  0  0  0  0
  8 41  1  0  0  0  0
  9 42  1  0  0  0  0
 10 43  1  0  0  0  0
 11 44  1  0  0  0  0
 12 45  1  0  0  0  0
 13 46  1  0  0  0  0
 21 47  1  0  0  0  0
 21 48  1  0  0  0  0
 22 49  1  0  0  0  0
 22 50  1  0  0  0  0
 23 51  1  0  0  0  0
 23 52  1  0  0  0  0
 24 53  1  0  0  0  0
 24 54  1  0  0  0  0
 25 55  1  0  0  0  0
 25 56  1  0  0  0  0
 26 57  1  0  0  0  0
 31 58  1  0  0  0  0
M  END
> <clash_score>
0

> <docking_score>
-8.40843677520752

> <overlap_score>
0.9774194955825806

$$$$
BENZO_189_2
  -OEChem-08222022443D

 58 62  0     1  0  0  0  0  0999 V2000
   14.4933   -0.9430   21.8797 C   0  0  0  0  0  0  0  0  0  0  0  0
   13.9289   -1.3774   23.0790 C   0  0  0  0  0  0  0  0  0  0  0  0
   13.8346    0.0111   21.1041 C   0  0  0  0  0  0  0  0  0  0  0  0
    3.8860    2.1050   19.5250 C   0  0  0  0  0  0  0  0  0  0  0  0
    4.2460    1.7520   20.8250 C   0  0  0  0  0  0  0  0  0  0  0  0
   12.7057   -0.8579   23.5026 C   0  0  0  0  0  0  0  0  0  0  0  0
   12.6114    0.5306   21.5277 C   0  0  0  0  0  0  0  0  0  0  0  0
    9.5890   -2.4950   23.2210 C   0  0  0  0  0  0  0  0  0  0  0  0
    8.2550   -1.0010   24.5520 C   0  0  0  0  0  0  0  0  0  0  0  0
    4.6610    1.7170   18.4380 C   0  0  0  0  0  0  0  0  0  0  0  0
    5.3890    1.0010   21.0690 C   0  0  0  0  0  0  0  0  0  0  0  0
    9.1890   -3.5540   24.0140 C   0  0  0  0  0  0  0  0  0  0  0  0
    7.8700   -2.0610   25.3550 C   0  0  0  0  0  0  0  0  0  0  0  0
   12.0469    0.0961   22.7269 C   0  0  0  0  0  0  0  0  0  0  0  0
    9.1280   -1.2090   23.4870 C   0  0  0  0  0  0  0  0  0  0  0  0
    5.7970    0.9500   18.6730 C   0  0  0  0  0  0  0  0  0  0  0  0
    6.1460    0.6070   19.9750 C   0  0  0  0  0  0  0  0  0  0  0  0
    8.3450   -3.3440   25.0980 C   0  0  0  0  0  0  0  0  0  0  0  0
    7.6777   -4.2365   27.3114 C   0  0  0  0  0  0  0  0  0  0  0  0
    9.0430    0.2380   21.4940 C   0  0  0  0  0  0  0  0  0  0  0  0
    7.0008   -5.3819   28.0445 C   0  0  0  0  0  0  0  0  0  0  0  0
    7.4106   -6.7604   27.5741 C   0  0  0  0  0  0  0  0  0  0  0  0
    7.2148   -6.8411   26.0763 C   0  0  0  0  0  0  0  0  0  0  0  0
    8.0979   -5.8053   25.4011 C   0  0  0  0  0  0  0  0  0  0  0  0
   10.7220    0.6590   23.1850 C   0  0  0  0  0  0  0  0  0  0  0  0
    9.5820   -0.1080   22.7000 C   0  0  2  0  0  0  0  0  0  0  0  0
    6.7100    0.3850   17.8100 N   0  0  0  0  0  0  0  0  0  0  0  0
    7.5840   -0.2700   18.5160 N   0  0  0  0  0  0  0  0  0  0  0  0
    7.2710   -0.1460   19.8310 N   0  0  0  0  0  0  0  0  0  0  0  0
    7.9635   -4.4451   25.9501 N   0  0  0  0  0  0  0  0  0  0  0  0
    8.0950   -0.7700   20.8440 N   0  0  0  0  0  0  0  0  0  0  0  0
    7.8778   -3.1892   27.9327 O   0  0  0  0  0  0  0  0  0  0  0  0
    9.2950    1.3000   20.9480 O   0  0  0  0  0  0  0  0  0  0  0  0
   15.4465   -1.3466   21.5507 H   0  0  0  0  0  0  0  0  0  0  0  0
   14.4422   -2.1194   23.6836 H   0  0  0  0  0  0  0  0  0  0  0  0
   14.2743    0.3503   20.1708 H   0  0  0  0  0  0  0  0  0  0  0  0
    2.9846    2.6932   19.3610 H   0  0  0  0  0  0  0  0  0  0  0  0
    3.6235    2.0692   21.6570 H   0  0  0  0  0  0  0  0  0  0  0  0
   12.2733   -1.2024   24.4383 H   0  0  0  0  0  0  0  0  0  0  0  0
   12.1053    1.2734   20.9168 H   0  0  0  0  0  0  0  0  0  0  0  0
   10.2695   -2.6718   22.3873 H   0  0  0  0  0  0  0  0  0  0  0  0
    7.8712   -0.0014   24.7587 H   0  0  0  0  0  0  0  0  0  0  0  0
    4.3785    2.0113   17.4257 H   0  0  0  0  0  0  0  0  0  0  0  0
    5.6763    0.7332   22.0915 H   0  0  0  0  0  0  0  0  0  0  0  0
    9.5431   -4.5618   23.7801 H   0  0  0  0  0  0  0  0  0  0  0  0
    7.1923   -1.8823   26.1912 H   0  0  0  0  0  0  0  0  0  0  0  0
    7.2290   -5.2845   29.1121 H   0  0  0  0  0  0  0  0  0  0  0  0
    5.9188   -5.2480   27.9251 H   0  0  0  0  0  0  0  0  0  0  0  0
    8.4598   -6.9525   27.8289 H   0  0  0  0  0  0  0  0  0  0  0  0
    6.8062   -7.5226   28.0776 H   0  0  0  0  0  0  0  0  0  0  0  0
    7.4789   -7.8416   25.7161 H   0  0  0  0  0  0  0  0  0  0  0  0
    6.1634   -6.6702   25.8155 H   0  0  0  0  0  0  0  0  0  0  0  0
    9.1520   -6.0895   25.5127 H   0  0  0  0  0  0  0  0  0  0  0  0
    7.8696   -5.7728   24.3290 H   0  0  0  0  0  0  0  0  0  0  0  0
   10.7288    0.6889   24.2835 H   0  0  0  0  0  0  0  0  0  0  0  0
   10.6393    1.7086   22.8728 H   0  0  0  0  0  0  0  0  0  0  0  0
    8.6955    0.7993   23.3793 H   0  0  0  0  0  0  0  0  0  0  0  0
    8.0815   -1.6117   21.0754 H   0  0  0  0  0  0  0  0  0  0  0  0
  1  2  1  0  0  0  0
  1  3  2  0  0  0  0
  2  6  2  0  0  0  0
  3  7  1  0  0  0  0
  4  5  1  0  0  0  0
  4 10  2  0  0  0  0
  5 11  2  0  0  0  0
  6 14  1  0  0  0  0
  7 14  2  0  0  0  0
  8 12  2  0  0  0  0
  8 15  1  0  0  0  0
  9 13  1  0  0  0  0
  9 15  2  0  0  0  0
 10 16  1  0  0  0  0
 11 17  1  0  0  0  0
 12 18  1  0  0  0  0
 13 18  2  0  0  0  0
 14 25  1  0  0  0  0
 15 26  1  0  0  0  0
 16 17  2  0  0  0  0
 16 27  1  0  0  0  0
 17 29  1  0  0  0  0
 18 30  1  0  0  0  0
 19 21  1  0  0  0  0
 19 30  1  0  0  0  0
 19 32  2  0  0  0  0
 20 26  1  6  0  0  0
 20 31  1  0  0  0  0
 20 33  2  0  0  0  0
 21 22  1  0  0  0  0
 22 23  1  0  0  0  0
 23 24  1  0  0  0  0
 24 30  1  0  0  0  0
 25 26  1  0  0  0  0
 27 28  2  0  0  0  0
 28 29  1  0  0  0  0
 29 31  1  0  0  0  0
  1 34  1  0  0  0  0
  2 35  1  0  0  0  0
  3 36  1  0  0  0  0
  4 37  1  0  0  0  0
  5 38  1  0  0  0  0
  6 39  1  0  0  0  0
  7 40  1  0  0  0  0
  8 41  1  0  0  0  0
  9 42  1  0  0  0  0
 10 43  1  0  0  0  0
 11 44  1  0  0  0  0
 12 45  1  0  0  0  0
 13 46  1  0  0  0  0
 21 47  1  0  0  0  0
 21 48  1  0  0  0  0
 22 49  1  0  0  0  0
 22 50  1  0  0  0  0
 23 51  1  0  0  0  0
 23 52  1  0  0  0  0
 24 53  1  0  0  0  0
 24 54  1  0  0  0  0
 25 55  1  0  0  0  0
 25 56  1  0  0  0  0
 26 57  1  0  0  0  0
 31 58  1  0  0  0  0
M  END
> <clash_score>
0

> <docking_score>
-6.720881462097168

> <overlap_score>
0.9654824733734131

$$$$
BENZO_188_1
  -OEChem-08222022443D

 55 59  0     1  0  0  0  0  0999 V2000
    3.8860    2.1050   19.5250 C   0  0  0  0  0  0  0  0  0  0  0  0
    4.2460    1.7520   20.8250 C   0  0  0  0  0  0  0  0  0  0  0  0
    9.5890   -2.4950   23.2210 C   0  0  0  0  0  0  0  0  0  0  0  0
    8.2550   -1.0010   24.5520 C   0  0  0  0  0  0  0  0  0  0  0  0
    4.6610    1.7170   18.4380 C   0  0  0  0  0  0  0  0  0  0  0  0
    5.3890    1.0010   21.0690 C   0  0  0  0  0  0  0  0  0  0  0  0
    9.1890   -3.5540   24.0140 C   0  0  0  0  0  0  0  0  0  0  0  0
    7.8700   -2.0610   25.3550 C   0  0  0  0  0  0  0  0  0  0  0  0
   12.3117   -1.3518   23.5619 C   0  0  0  0  0  0  0  0  0  0  0  0
   13.1250   -1.9079   24.5245 C   0  0  0  0  0  0  0  0  0  0  0  0
   12.0199    0.1405   25.3197 C   0  0  0  0  0  0  0  0  0  0  0  0
    9.1280   -1.2090   23.4870 C   0  0  0  0  0  0  0  0  0  0  0  0
   11.6715   -0.1651   24.0223 C   0  0  0  0  0  0  0  0  0  0  0  0
    5.7970    0.9500   18.6730 C   0  0  0  0  0  0  0  0  0  0  0  0
    6.1460    0.6070   19.9750 C   0  0  0  0  0  0  0  0  0  0  0  0
    8.3450   -3.3440   25.0980 C   0  0  0  0  0  0  0  0  0  0  0  0
    6.7262   -4.4697   26.6151 C   0  0  0  0  0  0  0  0  0  0  0  0
    9.0430    0.2380   21.4940 C   0  0  0  0  0  0  0  0  0  0  0  0
    6.5282   -5.7113   27.4665 C   0  0  0  0  0  0  0  0  0  0  0  0
    7.7583   -5.9846   28.3140 C   0  0  0  0  0  0  0  0  0  0  0  0
    9.0310   -6.0659   27.4769 C   0  0  0  0  0  0  0  0  0  0  0  0
    8.8255   -5.6238   26.0289 C   0  0  0  0  0  0  0  0  0  0  0  0
   10.7220    0.6590   23.1850 C   0  0  0  0  0  0  0  0  0  0  0  0
    9.5820   -0.1080   22.7000 C   0  0  1  0  0  0  0  0  0  0  0  0
    6.7100    0.3850   17.8100 N   0  0  0  0  0  0  0  0  0  0  0  0
    7.5840   -0.2700   18.5160 N   0  0  0  0  0  0  0  0  0  0  0  0
    7.2710   -0.1460   19.8310 N   0  0  0  0  0  0  0  0  0  0  0  0
    7.9658   -4.4384   25.9449 N   0  0  0  0  0  0  0  0  0  0  0  0
    8.0950   -0.7700   20.8440 N   0  0  0  0  0  0  0  0  0  0  0  0
    5.8136   -3.6504   26.5144 O   0  0  0  0  0  0  0  0  0  0  0  0
    9.2950    1.3000   20.9480 O   0  0  0  0  0  0  0  0  0  0  0  0
   13.1147   -1.0006   25.9768 S   0  0  0  0  0  0  0  0  0  0  0  0
    2.9846    2.6932   19.3610 H   0  0  0  0  0  0  0  0  0  0  0  0
    3.6235    2.0692   21.6570 H   0  0  0  0  0  0  0  0  0  0  0  0
   10.2695   -2.6718   22.3873 H   0  0  0  0  0  0  0  0  0  0  0  0
    7.8712   -0.0014   24.7587 H   0  0  0  0  0  0  0  0  0  0  0  0
    4.3785    2.0113   17.4257 H   0  0  0  0  0  0  0  0  0  0  0  0
    5.6763    0.7332   22.0915 H   0  0  0  0  0  0  0  0  0  0  0  0
    9.5431   -4.5618   23.7801 H   0  0  0  0  0  0  0  0  0  0  0  0
    7.1923   -1.8823   26.1912 H   0  0  0  0  0  0  0  0  0  0  0  0
   12.1845   -1.7797   22.5754 H   0  0  0  0  0  0  0  0  0  0  0  0
   13.7243   -2.8039   24.4449 H   0  0  0  0  0  0  0  0  0  0  0  0
   11.6854    0.9774   25.9170 H   0  0  0  0  0  0  0  0  0  0  0  0
    5.6771   -5.5542   28.1111 H   0  0  0  0  0  0  0  0  0  0  0  0
    6.3384   -6.5392   26.7998 H   0  0  0  0  0  0  0  0  0  0  0  0
    7.8707   -5.1934   29.0843 H   0  0  0  0  0  0  0  0  0  0  0  0
    7.6207   -6.9300   28.8764 H   0  0  0  0  0  0  0  0  0  0  0  0
    9.8202   -5.4387   27.9422 H   0  0  0  0  0  0  0  0  0  0  0  0
    9.4333   -7.1021   27.4993 H   0  0  0  0  0  0  0  0  0  0  0  0
    9.7828   -5.3621   25.5884 H   0  0  0  0  0  0  0  0  0  0  0  0
    8.3738   -6.4323   25.4644 H   0  0  0  0  0  0  0  0  0  0  0  0
   10.3850    1.5094   23.7939 H   0  0  0  0  0  0  0  0  0  0  0  0
   11.2669    1.1095   22.3448 H   0  0  0  0  0  0  0  0  0  0  0  0
   10.5267   -0.9929   22.0072 H   0  0  0  0  0  0  0  0  0  0  0  0
    8.0815   -1.6117   21.0754 H   0  0  0  0  0  0  0  0  0  0  0  0
  1  2  1  0  0  0  0
  1  5  2  0  0  0  0
  2  6  2  0  0  0  0
  3  7  2  0  0  0  0
  3 12  1  0  0  0  0
  4  8  1  0  0  0  0
  4 12  2  0  0  0  0
  5 14  1  0  0  0  0
  6 15  1  0  0  0  0
  7 16  1  0  0  0  0
  8 16  2  0  0  0  0
  9 10  2  0  0  0  0
  9 13  1  0  0  0  0
 10 32  1  0  0  0  0
 11 13  2  0  0  0  0
 11 32  1  0  0  0  0
 12 24  1  0  0  0  0
 13 23  1  0  0  0  0
 14 15  2  0  0  0  0
 14 25  1  0  0  0  0
 15 27  1  0  0  0  0
 16 28  1  0  0  0  0
 17 19  1  0  0  0  0
 17 28  1  0  0  0  0
 17 30  2  0  0  0  0
 18 24  1  1  0  0  0
 18 29  1  0  0  0  0
 18 31  2  0  0  0  0
 19 20  1  0  0  0  0
 20 21  1  0  0  0  0
 21 22  1  0  0  0  0
 22 28  1  0  0  0  0
 23 24  1  0  0  0  0
 25 26  2  0  0  0  0
 26 27  1  0  0  0  0
 27 29  1  0  0  0  0
  1 33  1  0  0  0  0
  2 34  1  0  0  0  0
  3 35  1  0  0  0  0
  4 36  1  0  0  0  0
  5 37  1  0  0  0  0
  6 38  1  0  0  0  0
  7 39  1  0  0  0  0
  8 40  1  0  0  0  0
  9 41  1  0  0  0  0
 10 42  1  0  0  0  0
 11 43  1  0  0  0  0
 19 44  1  0  0  0  0
 19 45  1  0  0  0  0
 20 46  1  0  0  0  0
 20 47  1  0  0  0  0
 21 48  1  0  0  0  0
 21 49  1  0  0  0  0
 22 50  1  0  0  0  0
 22 51  1  0  0  0  0
 23 52  1  0  0  0  0
 23 53  1  0  0  0  0
 24 54  1  0  0  0  0
 29 55  1  0  0  0  0
M  END
> <clash_score>
0

> <docking_score>
-5.717627048492432

> <overlap_score>
0.9168960452079773

$$$$
BENZO_188_2
  -OEChem-08222022443D

 55 59  0     1  0  0  0  0  0999 V2000
    3.8860    2.1050   19.5250 C   0  0  0  0  0  0  0  0  0  0  0  0
    4.2460    1.7520   20.8250 C   0  0  0  0  0  0  0  0  0  0  0  0
    9.5890   -2.4950   23.2210 C   0  0  0  0  0  0  0  0  0  0  0  0
    8.2550   -1.0010   24.5520 C   0  0  0  0  0  0  0  0  0  0  0  0
    4.6610    1.7170   18.4380 C   0  0  0  0  0  0  0  0  0  0  0  0
    5.3890    1.0010   21.0690 C   0  0  0  0  0  0  0  0  0  0  0  0
    9.1890   -3.5540   24.0140 C   0  0  0  0  0  0  0  0  0  0  0  0
    7.8700   -2.0610   25.3550 C   0  0  0  0  0  0  0  0  0  0  0  0
   13.0870   -0.3087   23.6126 C   0  0  0  0  0  0  0  0  0  0  0  0
   14.1878   -0.7845   22.9348 C   0  0  0  0  0  0  0  0  0  0  0  0
   12.3925   -0.0855   21.4058 C   0  0  0  0  0  0  0  0  0  0  0  0
    9.1280   -1.2090   23.4870 C   0  0  0  0  0  0  0  0  0  0  0  0
   12.0469    0.0961   22.7270 C   0  0  0  0  0  0  0  0  0  0  0  0
    5.7970    0.9500   18.6730 C   0  0  0  0  0  0  0  0  0  0  0  0
    6.1460    0.6070   19.9750 C   0  0  0  0  0  0  0  0  0  0  0  0
    8.3450   -3.3440   25.0980 C   0  0  0  0  0  0  0  0  0  0  0  0
    6.6194   -4.8191   26.1158 C   0  0  0  0  0  0  0  0  0  0  0  0
    9.0430    0.2380   21.4940 C   0  0  0  0  0  0  0  0  0  0  0  0
    6.4366   -5.9938   27.0605 C   0  0  0  0  0  0  0  0  0  0  0  0
    7.2458   -5.7947   28.3299 C   0  0  0  0  0  0  0  0  0  0  0  0
    8.7184   -5.5215   28.0404 C   0  0  0  0  0  0  0  0  0  0  0  0
    9.0024   -5.2744   26.5596 C   0  0  0  0  0  0  0  0  0  0  0  0
   10.7220    0.6590   23.1850 C   0  0  0  0  0  0  0  0  0  0  0  0
    9.5820   -0.1080   22.7000 C   0  0  2  0  0  0  0  0  0  0  0  0
    6.7100    0.3850   17.8100 N   0  0  0  0  0  0  0  0  0  0  0  0
    7.5840   -0.2700   18.5160 N   0  0  0  0  0  0  0  0  0  0  0  0
    7.2710   -0.1460   19.8310 N   0  0  0  0  0  0  0  0  0  0  0  0
    7.9658   -4.4384   25.9449 N   0  0  0  0  0  0  0  0  0  0  0  0
    8.0950   -0.7700   20.8440 N   0  0  0  0  0  0  0  0  0  0  0  0
    5.6415   -4.3469   25.5373 O   0  0  0  0  0  0  0  0  0  0  0  0
    9.2950    1.3000   20.9480 O   0  0  0  0  0  0  0  0  0  0  0  0
   13.9651   -0.7418   21.2375 S   0  0  0  0  0  0  0  0  0  0  0  0
    2.9846    2.6932   19.3610 H   0  0  0  0  0  0  0  0  0  0  0  0
    3.6235    2.0692   21.6570 H   0  0  0  0  0  0  0  0  0  0  0  0
   10.2695   -2.6718   22.3873 H   0  0  0  0  0  0  0  0  0  0  0  0
    7.8712   -0.0014   24.7587 H   0  0  0  0  0  0  0  0  0  0  0  0
    4.3785    2.0113   17.4257 H   0  0  0  0  0  0  0  0  0  0  0  0
    5.6763    0.7332   22.0915 H   0  0  0  0  0  0  0  0  0  0  0  0
    9.5431   -4.5618   23.7801 H   0  0  0  0  0  0  0  0  0  0  0  0
    7.1923   -1.8823   26.1912 H   0  0  0  0  0  0  0  0  0  0  0  0
   13.0348   -0.2550   24.6927 H   0  0  0  0  0  0  0  0  0  0  0  0
   15.1124   -1.1544   23.3550 H   0  0  0  0  0  0  0  0  0  0  0  0
   11.8004    0.1356   20.5285 H   0  0  0  0  0  0  0  0  0  0  0  0
    5.3901   -6.0734   27.3117 H   0  0  0  0  0  0  0  0  0  0  0  0
    6.7606   -6.8843   26.5429 H   0  0  0  0  0  0  0  0  0  0  0  0
    6.8221   -4.9563   28.9212 H   0  0  0  0  0  0  0  0  0  0  0  0
    7.1526   -6.6910   28.9757 H   0  0  0  0  0  0  0  0  0  0  0  0
    9.0539   -4.6418   28.6288 H   0  0  0  0  0  0  0  0  0  0  0  0
    9.3393   -6.3684   28.4053 H   0  0  0  0  0  0  0  0  0  0  0  0
    9.9475   -4.7506   26.4523 H   0  0  0  0  0  0  0  0  0  0  0  0
    9.0509   -6.2236   26.0372 H   0  0  0  0  0  0  0  0  0  0  0  0
   10.7288    0.6889   24.2835 H   0  0  0  0  0  0  0  0  0  0  0  0
   10.6393    1.7086   22.8728 H   0  0  0  0  0  0  0  0  0  0  0  0
    8.6955    0.7993   23.3793 H   0  0  0  0  0  0  0  0  0  0  0  0
    8.0815   -1.6117   21.0754 H   0  0  0  0  0  0  0  0  0  0  0  0
  1  2  1  0  0  0  0
  1  5  2  0  0  0  0
  2  6  2  0  0  0  0
  3  7  2  0  0  0  0
  3 12  1  0  0  0  0
  4  8  1  0  0  0  0
  4 12  2  0  0  0  0
  5 14  1  0  0  0  0
  6 15  1  0  0  0  0
  7 16  1  0  0  0  0
  8 16  2  0  0  0  0
  9 10  2  0  0  0  0
  9 13  1  0  0  0  0
 10 32  1  0  0  0  0
 11 13  2  0  0  0  0
 11 32  1  0  0  0  0
 12 24  1  0  0  0  0
 13 23  1  0  0  0  0
 14 15  2  0  0  0  0
 14 25  1  0  0  0  0
 15 27  1  0  0  0  0
 16 28  1  0  0  0  0
 17 19  1  0  0  0  0
 17 28  1  0  0  0  0
 17 30  2  0  0  0  0
 18 24  1  6  0  0  0
 18 29  1  0  0  0  0
 18 31  2  0  0  0  0
 19 20  1  0  0  0  0
 20 21  1  0  0  0  0
 21 22  1  0  0  0  0
 22 28  1  0  0  0  0
 23 24  1  0  0  0  0
 25 26  2  0  0  0  0
 26 27  1  0  0  0  0
 27 29  1  0  0  0  0
  1 33  1  0  0  0  0
  2 34  1  0  0  0  0
  3 35  1  0  0  0  0
  4 36  1  0  0  0  0
  5 37  1  0  0  0  0
  6 38  1  0  0  0  0
  7 39  1  0  0  0  0
  8 40  1  0  0  0  0
  9 41  1  0  0  0  0
 10 42  1  0  0  0  0
 11 43  1  0  0  0  0
 19 44  1  0  0  0  0
 19 45  1  0  0  0  0
 20 46  1  0  0  0  0
 20 47  1  0  0  0  0
 21 48  1  0  0  0  0
 21 49  1  0  0  0  0
 22 50  1  0  0  0  0
 22 51  1  0  0  0  0
 23 52  1  0  0  0  0
 23 53  1  0  0  0  0
 24 54  1  0  0  0  0
 29 55  1  0  0  0  0
M  END
> <clash_score>
0

> <docking_score>
-7.6397576332092285

> <overlap_score>
0.9542752504348755

$$$$
BENZO_191_2
  -OEChem-08222022443D

 58 62  0     1  0  0  0  0  0999 V2000
    3.8860    2.1050   19.5250 C   0  0  0  0  0  0  0  0  0  0  0  0
    4.2460    1.7520   20.8250 C   0  0  0  0  0  0  0  0  0  0  0  0
    9.5890   -2.4950   23.2210 C   0  0  0  0  0  0  0  0  0  0  0  0
    8.2550   -1.0010   24.5520 C   0  0  0  0  0  0  0  0  0  0  0  0
    4.6610    1.7170   18.4380 C   0  0  0  0  0  0  0  0  0  0  0  0
    5.3890    1.0010   21.0690 C   0  0  0  0  0  0  0  0  0  0  0  0
    9.1890   -3.5540   24.0140 C   0  0  0  0  0  0  0  0  0  0  0  0
    7.8700   -2.0610   25.3550 C   0  0  0  0  0  0  0  0  0  0  0  0
   12.1481   -0.7686   24.8588 C   0  0  0  0  0  0  0  0  0  0  0  0
   12.9278   -0.6432   22.8067 C   0  0  0  0  0  0  0  0  0  0  0  0
    9.1280   -1.2090   23.4870 C   0  0  0  0  0  0  0  0  0  0  0  0
   11.8866   -0.2127   23.5922 C   0  0  0  0  0  0  0  0  0  0  0  0
    5.7970    0.9500   18.6730 C   0  0  0  0  0  0  0  0  0  0  0  0
    6.1460    0.6070   19.9750 C   0  0  0  0  0  0  0  0  0  0  0  0
    8.3450   -3.3440   25.0980 C   0  0  0  0  0  0  0  0  0  0  0  0
    6.6194   -4.8191   26.1158 C   0  0  0  0  0  0  0  0  0  0  0  0
    9.0430    0.2380   21.4940 C   0  0  0  0  0  0  0  0  0  0  0  0
    6.4366   -5.9938   27.0605 C   0  0  0  0  0  0  0  0  0  0  0  0
    7.2458   -5.7947   28.3299 C   0  0  0  0  0  0  0  0  0  0  0  0
    8.7184   -5.5215   28.0404 C   0  0  0  0  0  0  0  0  0  0  0  0
    9.0024   -5.2744   26.5596 C   0  0  0  0  0  0  0  0  0  0  0  0
   14.9394   -2.0726   23.2414 C   0  0  0  0  0  0  0  0  0  0  0  0
   10.7220    0.6590   23.1850 C   0  0  0  0  0  0  0  0  0  0  0  0
    9.5820   -0.1080   22.7000 C   0  0  2  0  0  0  0  0  0  0  0  0
   13.2676   -1.4968   24.8812 N   0  0  0  0  0  0  0  0  0  0  0  0
    6.7100    0.3850   17.8100 N   0  0  0  0  0  0  0  0  0  0  0  0
    7.5840   -0.2700   18.5160 N   0  0  0  0  0  0  0  0  0  0  0  0
   13.7187   -1.4015   23.6189 N   0  0  0  0  0  0  0  0  0  0  0  0
    7.2710   -0.1460   19.8310 N   0  0  0  0  0  0  0  0  0  0  0  0
    7.9658   -4.4384   25.9449 N   0  0  0  0  0  0  0  0  0  0  0  0
    8.0950   -0.7700   20.8440 N   0  0  0  0  0  0  0  0  0  0  0  0
    5.6415   -4.3469   25.5373 O   0  0  0  0  0  0  0  0  0  0  0  0
    9.2950    1.3000   20.9480 O   0  0  0  0  0  0  0  0  0  0  0  0
    2.9846    2.6932   19.3610 H   0  0  0  0  0  0  0  0  0  0  0  0
    3.6235    2.0692   21.6570 H   0  0  0  0  0  0  0  0  0  0  0  0
   10.2695   -2.6718   22.3873 H   0  0  0  0  0  0  0  0  0  0  0  0
    7.8712   -0.0014   24.7587 H   0  0  0  0  0  0  0  0  0  0  0  0
    4.3785    2.0113   17.4257 H   0  0  0  0  0  0  0  0  0  0  0  0
    5.6763    0.7332   22.0915 H   0  0  0  0  0  0  0  0  0  0  0  0
    9.5431   -4.5618   23.7801 H   0  0  0  0  0  0  0  0  0  0  0  0
    7.1923   -1.8823   26.1912 H   0  0  0  0  0  0  0  0  0  0  0  0
   11.5706   -0.6757   25.7677 H   0  0  0  0  0  0  0  0  0  0  0  0
   13.1667   -0.4796   21.7645 H   0  0  0  0  0  0  0  0  0  0  0  0
    5.3901   -6.0734   27.3117 H   0  0  0  0  0  0  0  0  0  0  0  0
    6.7606   -6.8843   26.5429 H   0  0  0  0  0  0  0  0  0  0  0  0
    6.8221   -4.9563   28.9212 H   0  0  0  0  0  0  0  0  0  0  0  0
    7.1526   -6.6910   28.9757 H   0  0  0  0  0  0  0  0  0  0  0  0
    9.0539   -4.6418   28.6288 H   0  0  0  0  0  0  0  0  0  0  0  0
    9.3393   -6.3684   28.4053 H   0  0  0  0  0  0  0  0  0  0  0  0
    9.9475   -4.7506   26.4523 H   0  0  0  0  0  0  0  0  0  0  0  0
    9.0509   -6.2236   26.0372 H   0  0  0  0  0  0  0  0  0  0  0  0
   15.7702   -1.3829   23.4123 H   0  0  0  0  0  0  0  0  0  0  0  0
   15.0610   -2.9751   23.8468 H   0  0  0  0  0  0  0  0  0  0  0  0
   14.8856   -2.3539   22.1860 H   0  0  0  0  0  0  0  0  0  0  0  0
   10.4364    1.2691   24.0532 H   0  0  0  0  0  0  0  0  0  0  0  0
   11.0496    1.3814   22.4256 H   0  0  0  0  0  0  0  0  0  0  0  0
   10.5267   -0.9929   22.0072 H   0  0  0  0  0  0  0  0  0  0  0  0
    8.0815   -1.6117   21.0754 H   0  0  0  0  0  0  0  0  0  0  0  0
  1  2  1  0  0  0  0
  1  5  2  0  0  0  0
  2  6  2  0  0  0  0
  3  7  2  0  0  0  0
  3 11  1  0  0  0  0
  4  8  1  0  0  0  0
  4 11  2  0  0  0  0
  5 13  1  0  0  0  0
  6 14  1  0  0  0  0
  7 15  1  0  0  0  0
  8 15  2  0  0  0  0
  9 12  1  0  0  0  0
  9 25  2  0  0  0  0
 10 12  2  0  0  0  0
 10 28  1  0  0  0  0
 11 24  1  0  0  0  0
 12 23  1  0  0  0  0
 13 14  2  0  0  0  0
 13 26  1  0  0  0  0
 14 29  1  0  0  0  0
 15 30  1  0  0  0  0
 16 18  1  0  0  0  0
 16 30  1  0  0  0  0
 16 32  2  0  0  0  0
 17 24  1  0  0  0  0
 17 31  1  0  0  0  0
 17 33  2  0  0  0  0
 18 19  1  0  0  0  0
 19 20  1  0  0  0  0
 20 21  1  0  0  0  0
 21 30  1  0  0  0  0
 22 28  1  0  0  0  0
 23 24  1  6  0  0  0
 25 28  1  0  0  0  0
 26 27  2  0  0  0  0
 27 29  1  0  0  0  0
 29 31  1  0  0  0  0
  1 34  1  0  0  0  0
  2 35  1  0  0  0  0
  3 36  1  0  0  0  0
  4 37  1  0  0  0  0
  5 38  1  0  0  0  0
  6 39  1  0  0  0  0
  7 40  1  0  0  0  0
  8 41  1  0  0  0  0
  9 42  1  0  0  0  0
 10 43  1  0  0  0  0
 18 44  1  0  0  0  0
 18 45  1  0  0  0  0
 19 46  1  0  0  0  0
 19 47  1  0  0  0  0
 20 48  1  0  0  0  0
 20 49  1  0  0  0  0
 21 50  1  0  0  0  0
 21 51  1  0  0  0  0
 22 52  1  0  0  0  0
 22 53  1  0  0  0  0
 22 54  1  0  0  0  0
 23 55  1  0  0  0  0
 23 56  1  0  0  0  0
 24 57  1  0  0  0  0
 31 58  1  0  0  0  0
M  END
> <clash_score>
0

> <docking_score>
-7.4601335525512695

> <overlap_score>
0.9790841937065125

$$$$
BENZO_191_1
  -OEChem-08222022443D

 58 62  0     1  0  0  0  0  0999 V2000
    3.8860    2.1050   19.5250 C   0  0  0  0  0  0  0  0  0  0  0  0
    4.2460    1.7520   20.8250 C   0  0  0  0  0  0  0  0  0  0  0  0
    9.5890   -2.4950   23.2210 C   0  0  0  0  0  0  0  0  0  0  0  0
    8.2550   -1.0010   24.5520 C   0  0  0  0  0  0  0  0  0  0  0  0
    4.6610    1.7170   18.4380 C   0  0  0  0  0  0  0  0  0  0  0  0
    5.3890    1.0010   21.0690 C   0  0  0  0  0  0  0  0  0  0  0  0
    9.1890   -3.5540   24.0140 C   0  0  0  0  0  0  0  0  0  0  0  0
    7.8700   -2.0610   25.3550 C   0  0  0  0  0  0  0  0  0  0  0  0
   13.3369    0.5828   23.0113 C   0  0  0  0  0  0  0  0  0  0  0  0
   12.2625   -1.0090   21.9404 C   0  0  0  0  0  0  0  0  0  0  0  0
    9.1280   -1.2090   23.4870 C   0  0  0  0  0  0  0  0  0  0  0  0
   12.0469    0.0961   22.7270 C   0  0  0  0  0  0  0  0  0  0  0  0
    5.7970    0.9500   18.6730 C   0  0  0  0  0  0  0  0  0  0  0  0
    6.1460    0.6070   19.9750 C   0  0  0  0  0  0  0  0  0  0  0  0
    8.3450   -3.3440   25.0980 C   0  0  0  0  0  0  0  0  0  0  0  0
    8.2612   -4.4533   27.3232 C   0  0  0  0  0  0  0  0  0  0  0  0
    9.0430    0.2380   21.4940 C   0  0  0  0  0  0  0  0  0  0  0  0
    7.7639   -5.6979   28.0369 C   0  0  0  0  0  0  0  0  0  0  0  0
    6.3258   -5.9996   27.6538 C   0  0  0  0  0  0  0  0  0  0  0  0
    6.1385   -6.0983   26.1431 C   0  0  0  0  0  0  0  0  0  0  0  0
    7.3646   -5.6395   25.3553 C   0  0  0  0  0  0  0  0  0  0  0  0
   14.3275   -2.1252   21.0638 C   0  0  0  0  0  0  0  0  0  0  0  0
   10.7220    0.6590   23.1850 C   0  0  0  0  0  0  0  0  0  0  0  0
    9.5820   -0.1080   22.7000 C   0  0  1  0  0  0  0  0  0  0  0  0
   14.3007   -0.1529   22.4511 N   0  0  0  0  0  0  0  0  0  0  0  0
    6.7100    0.3850   17.8100 N   0  0  0  0  0  0  0  0  0  0  0  0
    7.5840   -0.2700   18.5160 N   0  0  0  0  0  0  0  0  0  0  0  0
   13.6158   -1.1132   21.8069 N   0  0  0  0  0  0  0  0  0  0  0  0
    7.2710   -0.1460   19.8310 N   0  0  0  0  0  0  0  0  0  0  0  0
    7.9658   -4.4385   25.9450 N   0  0  0  0  0  0  0  0  0  0  0  0
    8.0950   -0.7700   20.8440 N   0  0  0  0  0  0  0  0  0  0  0  0
    8.9160   -3.6176   27.9452 O   0  0  0  0  0  0  0  0  0  0  0  0
    9.2950    1.3000   20.9480 O   0  0  0  0  0  0  0  0  0  0  0  0
    2.9846    2.6932   19.3610 H   0  0  0  0  0  0  0  0  0  0  0  0
    3.6235    2.0692   21.6570 H   0  0  0  0  0  0  0  0  0  0  0  0
   10.2695   -2.6718   22.3873 H   0  0  0  0  0  0  0  0  0  0  0  0
    7.8712   -0.0014   24.7587 H   0  0  0  0  0  0  0  0  0  0  0  0
    4.3785    2.0113   17.4257 H   0  0  0  0  0  0  0  0  0  0  0  0
    5.6763    0.7332   22.0915 H   0  0  0  0  0  0  0  0  0  0  0  0
    9.5431   -4.5618   23.7801 H   0  0  0  0  0  0  0  0  0  0  0  0
    7.1923   -1.8823   26.1912 H   0  0  0  0  0  0  0  0  0  0  0  0
   13.6173    1.4422   23.6039 H   0  0  0  0  0  0  0  0  0  0  0  0
   11.5851   -1.7134   21.4768 H   0  0  0  0  0  0  0  0  0  0  0  0
    8.3914   -6.5295   27.7556 H   0  0  0  0  0  0  0  0  0  0  0  0
    7.8414   -5.5198   29.0990 H   0  0  0  0  0  0  0  0  0  0  0  0
    5.9977   -6.9465   28.1311 H   0  0  0  0  0  0  0  0  0  0  0  0
    5.6587   -5.2139   28.0619 H   0  0  0  0  0  0  0  0  0  0  0  0
    5.8986   -7.1470   25.8680 H   0  0  0  0  0  0  0  0  0  0  0  0
    5.2500   -5.5067   25.8324 H   0  0  0  0  0  0  0  0  0  0  0  0
    8.1195   -6.4201   25.3688 H   0  0  0  0  0  0  0  0  0  0  0  0
    7.0780   -5.4282   24.3307 H   0  0  0  0  0  0  0  0  0  0  0  0
   14.4560   -1.7641   20.0400 H   0  0  0  0  0  0  0  0  0  0  0  0
   15.3000   -2.3038   21.5310 H   0  0  0  0  0  0  0  0  0  0  0  0
   13.7498   -3.0537   21.0732 H   0  0  0  0  0  0  0  0  0  0  0  0
   10.7288    0.6889   24.2835 H   0  0  0  0  0  0  0  0  0  0  0  0
   10.6393    1.7086   22.8728 H   0  0  0  0  0  0  0  0  0  0  0  0
    8.6955    0.7993   23.3793 H   0  0  0  0  0  0  0  0  0  0  0  0
    8.0815   -1.6117   21.0754 H   0  0  0  0  0  0  0  0  0  0  0  0
  1  2  1  0  0  0  0
  1  5  2  0  0  0  0
  2  6  2  0  0  0  0
  3  7  2  0  0  0  0
  3 11  1  0  0  0  0
  4  8  1  0  0  0  0
  4 11  2  0  0  0  0
  5 13  1  0  0  0  0
  6 14  1  0  0  0  0
  7 15  1  0  0  0  0
  8 15  2  0  0  0  0
  9 12  1  0  0  0  0
  9 25  2  0  0  0  0
 10 12  2  0  0  0  0
 10 28  1  0  0  0  0
 11 24  1  0  0  0  0
 12 23  1  0  0  0  0
 13 14  2  0  0  0  0
 13 26  1  0  0  0  0
 14 29  1  0  0  0  0
 15 30  1  0  0  0  0
 16 18  1  0  0  0  0
 16 30  1  0  0  0  0
 16 32  2  0  0  0  0
 17 24  1  0  0  0  0
 17 31  1  0  0  0  0
 17 33  2  0  0  0  0
 18 19  1  0  0  0  0
 19 20  1  0  0  0  0
 20 21  1  0  0  0  0
 21 30  1  0  0  0  0
 22 28  1  0  0  0  0
 23 24  1  1  0  0  0
 25 28  1  0  0  0  0
 26 27  2  0  0  0  0
 27 29  1  0  0  0  0
 29 31  1  0  0  0  0
  1 34  1  0  0  0  0
  2 35  1  0  0  0  0
  3 36  1  0  0  0  0
  4 37  1  0  0  0  0
  5 38  1  0  0  0  0
  6 39  1  0  0  0  0
  7 40  1  0  0  0  0
  8 41  1  0  0  0  0
  9 42  1  0  0  0  0
 10 43  1  0  0  0  0
 18 44  1  0  0  0  0
 18 45  1  0  0  0  0
 19 46  1  0  0  0  0
 19 47  1  0  0  0  0
 20 48  1  0  0  0  0
 20 49  1  0  0  0  0
 21 50  1  0  0  0  0
 21 51  1  0  0  0  0
 22 52  1  0  0  0  0
 22 53  1  0  0  0  0
 22 54  1  0  0  0  0
 23 55  1  0  0  0  0
 23 56  1  0  0  0  0
 24 57  1  0  0  0  0
 31 58  1  0  0  0  0
M  END
> <clash_score>
0

> <docking_score>
-9.348992347717285

> <overlap_score>
0.9735928177833557

$$$$
BENZO_190_2
  -OEChem-08222022443D

 58 62  0     1  0  0  0  0  0999 V2000
    3.8860    2.1050   19.5250 C   0  0  0  0  0  0  0  0  0  0  0  0
    4.2460    1.7520   20.8250 C   0  0  0  0  0  0  0  0  0  0  0  0
   13.3571   -1.0972   21.0849 C   0  0  0  0  0  0  0  0  0  0  0  0
   12.1338   -0.5782   21.5090 C   0  0  0  0  0  0  0  0  0  0  0  0
    9.5890   -2.4950   23.2210 C   0  0  0  0  0  0  0  0  0  0  0  0
    8.2550   -1.0010   24.5520 C   0  0  0  0  0  0  0  0  0  0  0  0
    4.6610    1.7170   18.4380 C   0  0  0  0  0  0  0  0  0  0  0  0
    5.3890    1.0010   21.0690 C   0  0  0  0  0  0  0  0  0  0  0  0
    9.1890   -3.5540   24.0140 C   0  0  0  0  0  0  0  0  0  0  0  0
    7.8700   -2.0610   25.3550 C   0  0  0  0  0  0  0  0  0  0  0  0
   14.4934   -0.9419   21.8788 C   0  0  0  0  0  0  0  0  0  0  0  0
   13.1833    0.2514   23.5209 C   0  0  0  0  0  0  0  0  0  0  0  0
    9.1280   -1.2090   23.4870 C   0  0  0  0  0  0  0  0  0  0  0  0
   12.0469    0.0961   22.7270 C   0  0  0  0  0  0  0  0  0  0  0  0
    5.7970    0.9500   18.6730 C   0  0  0  0  0  0  0  0  0  0  0  0
    6.1460    0.6070   19.9750 C   0  0  0  0  0  0  0  0  0  0  0  0
    8.3450   -3.3440   25.0980 C   0  0  0  0  0  0  0  0  0  0  0  0
   14.4065   -0.2676   23.0968 C   0  0  0  0  0  0  0  0  0  0  0  0
    8.2612   -4.4533   27.3232 C   0  0  0  0  0  0  0  0  0  0  0  0
    9.0430    0.2380   21.4940 C   0  0  0  0  0  0  0  0  0  0  0  0
    7.7639   -5.6979   28.0369 C   0  0  0  0  0  0  0  0  0  0  0  0
    6.3258   -5.9996   27.6538 C   0  0  0  0  0  0  0  0  0  0  0  0
    6.1385   -6.0983   26.1431 C   0  0  0  0  0  0  0  0  0  0  0  0
    7.3646   -5.6395   25.3553 C   0  0  0  0  0  0  0  0  0  0  0  0
   10.7220    0.6590   23.1850 C   0  0  0  0  0  0  0  0  0  0  0  0
    9.5820   -0.1080   22.7000 C   0  0  2  0  0  0  0  0  0  0  0  0
    6.7100    0.3850   17.8100 N   0  0  0  0  0  0  0  0  0  0  0  0
    7.5840   -0.2700   18.5160 N   0  0  0  0  0  0  0  0  0  0  0  0
    7.2710   -0.1460   19.8310 N   0  0  0  0  0  0  0  0  0  0  0  0
    7.9658   -4.4385   25.9450 N   0  0  0  0  0  0  0  0  0  0  0  0
    8.0950   -0.7700   20.8440 N   0  0  0  0  0  0  0  0  0  0  0  0
    8.9160   -3.6176   27.9452 O   0  0  0  0  0  0  0  0  0  0  0  0
    9.2950    1.3000   20.9480 O   0  0  0  0  0  0  0  0  0  0  0  0
   15.8091   -0.0754   24.0753 Cl  0  0  0  0  0  0  0  0  0  0  0  0
    2.9846    2.6932   19.3610 H   0  0  0  0  0  0  0  0  0  0  0  0
    3.6235    2.0692   21.6570 H   0  0  0  0  0  0  0  0  0  0  0  0
   13.4243   -1.6221   20.1364 H   0  0  0  0  0  0  0  0  0  0  0  0
   11.2535   -0.7037   20.8839 H   0  0  0  0  0  0  0  0  0  0  0  0
   10.2695   -2.6718   22.3873 H   0  0  0  0  0  0  0  0  0  0  0  0
    7.8712   -0.0014   24.7587 H   0  0  0  0  0  0  0  0  0  0  0  0
    4.3785    2.0113   17.4257 H   0  0  0  0  0  0  0  0  0  0  0  0
    5.6763    0.7332   22.0915 H   0  0  0  0  0  0  0  0  0  0  0  0
    9.5431   -4.5618   23.7801 H   0  0  0  0  0  0  0  0  0  0  0  0
    7.1923   -1.8823   26.1912 H   0  0  0  0  0  0  0  0  0  0  0  0
   15.4403   -1.3514   21.5355 H   0  0  0  0  0  0  0  0  0  0  0  0
   13.1102    0.7775   24.4699 H   0  0  0  0  0  0  0  0  0  0  0  0
    8.3914   -6.5295   27.7556 H   0  0  0  0  0  0  0  0  0  0  0  0
    7.8414   -5.5198   29.0990 H   0  0  0  0  0  0  0  0  0  0  0  0
    5.9977   -6.9465   28.1311 H   0  0  0  0  0  0  0  0  0  0  0  0
    5.6587   -5.2139   28.0619 H   0  0  0  0  0  0  0  0  0  0  0  0
    5.8986   -7.1470   25.8680 H   0  0  0  0  0  0  0  0  0  0  0  0
    5.2500   -5.5067   25.8324 H   0  0  0  0  0  0  0  0  0  0  0  0
    8.1195   -6.4201   25.3688 H   0  0  0  0  0  0  0  0  0  0  0  0
    7.0780   -5.4282   24.3307 H   0  0  0  0  0  0  0  0  0  0  0  0
   10.7288    0.6889   24.2835 H   0  0  0  0  0  0  0  0  0  0  0  0
   10.6393    1.7086   22.8728 H   0  0  0  0  0  0  0  0  0  0  0  0
    8.6955    0.7993   23.3793 H   0  0  0  0  0  0  0  0  0  0  0  0
    8.0815   -1.6117   21.0754 H   0  0  0  0  0  0  0  0  0  0  0  0
  1  2  1  0  0  0  0
  1  7  2  0  0  0  0
  2  8  2  0  0  0  0
  3  4  2  0  0  0  0
  3 11  1  0  0  0  0
  4 14  1  0  0  0  0
  5  9  2  0  0  0  0
  5 13  1  0  0  0  0
  6 10  1  0  0  0  0
  6 13  2  0  0  0  0
  7 15  1  0  0  0  0
  8 16  1  0  0  0  0
  9 17  1  0  0  0  0
 10 17  2  0  0  0  0
 11 18  2  0  0  0  0
 12 14  2  0  0  0  0
 12 18  1  0  0  0  0
 13 26  1  0  0  0  0
 14 25  1  0  0  0  0
 15 16  2  0  0  0  0
 15 27  1  0  0  0  0
 16 29  1  0  0  0  0
 17 30  1  0  0  0  0
 18 34  1  0  0  0  0
 19 21  1  0  0  0  0
 19 30  1  0  0  0  0
 19 32  2  0  0  0  0
 20 26  1  6  0  0  0
 20 31  1  0  0  0  0
 20 33  2  0  0  0  0
 21 22  1  0  0  0  0
 22 23  1  0  0  0  0
 23 24  1  0  0  0  0
 24 30  1  0  0  0  0
 25 26  1  0  0  0  0
 27 28  2  0  0  0  0
 28 29  1  0  0  0  0
 29 31  1  0  0  0  0
  1 35  1  0  0  0  0
  2 36  1  0  0  0  0
  3 37  1  0  0  0  0
  4 38  1  0  0  0  0
  5 39  1  0  0  0  0
  6 40  1  0  0  0  0
  7 41  1  0  0  0  0
  8 42  1  0  0  0  0
  9 43  1  0  0  0  0
 10 44  1  0  0  0  0
 11 45  1  0  0  0  0
 12 46  1  0  0  0  0
 21 47  1  0  0  0  0
 21 48  1  0  0  0  0
 22 49  1  0  0  0  0
 22 50  1  0  0  0  0
 23 51  1  0  0  0  0
 23 52  1  0  0  0  0
 24 53  1  0  0  0  0
 24 54  1  0  0  0  0
 25 55  1  0  0  0  0
 25 56  1  0  0  0  0
 26 57  1  0  0  0  0
 31 58  1  0  0  0  0
M  END
> <clash_score>
1.459674894613339

> <docking_score>
-7.055243015289307

> <overlap_score>
0.9769778251647949

$$$$
BENZO_190_1
  -OEChem-08222022443D

 58 62  0     1  0  0  0  0  0999 V2000
    3.8860    2.1050   19.5250 C   0  0  0  0  0  0  0  0  0  0  0  0
    4.2460    1.7520   20.8250 C   0  0  0  0  0  0  0  0  0  0  0  0
   13.0596   -1.4816   25.2806 C   0  0  0  0  0  0  0  0  0  0  0  0
   11.9851   -0.6757   24.9043 C   0  0  0  0  0  0  0  0  0  0  0  0
    9.5890   -2.4950   23.2210 C   0  0  0  0  0  0  0  0  0  0  0  0
    8.2550   -1.0010   24.5520 C   0  0  0  0  0  0  0  0  0  0  0  0
    4.6610    1.7170   18.4380 C   0  0  0  0  0  0  0  0  0  0  0  0
    5.3890    1.0010   21.0690 C   0  0  0  0  0  0  0  0  0  0  0  0
    9.1890   -3.5540   24.0140 C   0  0  0  0  0  0  0  0  0  0  0  0
    7.8700   -2.0610   25.3550 C   0  0  0  0  0  0  0  0  0  0  0  0
   14.0356   -1.8244   24.3449 C   0  0  0  0  0  0  0  0  0  0  0  0
   12.8626   -0.5556   22.6564 C   0  0  0  0  0  0  0  0  0  0  0  0
    9.1280   -1.2090   23.4870 C   0  0  0  0  0  0  0  0  0  0  0  0
   11.8866   -0.2127   23.5922 C   0  0  0  0  0  0  0  0  0  0  0  0
    5.7970    0.9500   18.6730 C   0  0  0  0  0  0  0  0  0  0  0  0
    6.1460    0.6070   19.9750 C   0  0  0  0  0  0  0  0  0  0  0  0
    8.3450   -3.3440   25.0980 C   0  0  0  0  0  0  0  0  0  0  0  0
   13.9371   -1.3615   23.0328 C   0  0  0  0  0  0  0  0  0  0  0  0
    6.6194   -4.8191   26.1158 C   0  0  0  0  0  0  0  0  0  0  0  0
    9.0430    0.2380   21.4940 C   0  0  0  0  0  0  0  0  0  0  0  0
    6.4366   -5.9938   27.0605 C   0  0  0  0  0  0  0  0  0  0  0  0
    7.2458   -5.7947   28.3299 C   0  0  0  0  0  0  0  0  0  0  0  0
    8.7184   -5.5215   28.0404 C   0  0  0  0  0  0  0  0  0  0  0  0
    9.0024   -5.2744   26.5596 C   0  0  0  0  0  0  0  0  0  0  0  0
   10.7220    0.6590   23.1850 C   0  0  0  0  0  0  0  0  0  0  0  0
    9.5820   -0.1080   22.7000 C   0  0  1  0  0  0  0  0  0  0  0  0
    6.7100    0.3850   17.8100 N   0  0  0  0  0  0  0  0  0  0  0  0
    7.5840   -0.2700   18.5160 N   0  0  0  0  0  0  0  0  0  0  0  0
    7.2710   -0.1460   19.8310 N   0  0  0  0  0  0  0  0  0  0  0  0
    7.9658   -4.4384   25.9449 N   0  0  0  0  0  0  0  0  0  0  0  0
    8.0950   -0.7700   20.8440 N   0  0  0  0  0  0  0  0  0  0  0  0
    5.6415   -4.3469   25.5373 O   0  0  0  0  0  0  0  0  0  0  0  0
    9.2950    1.3000   20.9480 O   0  0  0  0  0  0  0  0  0  0  0  0
   15.1409   -1.7858   21.8785 Cl  0  0  0  0  0  0  0  0  0  0  0  0
    2.9846    2.6932   19.3610 H   0  0  0  0  0  0  0  0  0  0  0  0
    3.6235    2.0692   21.6570 H   0  0  0  0  0  0  0  0  0  0  0  0
   13.1359   -1.8420   26.3024 H   0  0  0  0  0  0  0  0  0  0  0  0
   11.2292   -0.4136   25.6400 H   0  0  0  0  0  0  0  0  0  0  0  0
   10.2695   -2.6718   22.3873 H   0  0  0  0  0  0  0  0  0  0  0  0
    7.8712   -0.0014   24.7587 H   0  0  0  0  0  0  0  0  0  0  0  0
    4.3785    2.0113   17.4257 H   0  0  0  0  0  0  0  0  0  0  0  0
    5.6763    0.7332   22.0915 H   0  0  0  0  0  0  0  0  0  0  0  0
    9.5431   -4.5618   23.7801 H   0  0  0  0  0  0  0  0  0  0  0  0
    7.1923   -1.8823   26.1912 H   0  0  0  0  0  0  0  0  0  0  0  0
   14.8674   -2.4535   24.6523 H   0  0  0  0  0  0  0  0  0  0  0  0
   12.7815   -0.1917   21.6348 H   0  0  0  0  0  0  0  0  0  0  0  0
    5.3901   -6.0734   27.3117 H   0  0  0  0  0  0  0  0  0  0  0  0
    6.7606   -6.8843   26.5429 H   0  0  0  0  0  0  0  0  0  0  0  0
    6.8221   -4.9563   28.9212 H   0  0  0  0  0  0  0  0  0  0  0  0
    7.1526   -6.6910   28.9757 H   0  0  0  0  0  0  0  0  0  0  0  0
    9.0539   -4.6418   28.6288 H   0  0  0  0  0  0  0  0  0  0  0  0
    9.3393   -6.3684   28.4053 H   0  0  0  0  0  0  0  0  0  0  0  0
    9.9475   -4.7506   26.4523 H   0  0  0  0  0  0  0  0  0  0  0  0
    9.0509   -6.2236   26.0372 H   0  0  0  0  0  0  0  0  0  0  0  0
   10.4364    1.2691   24.0532 H   0  0  0  0  0  0  0  0  0  0  0  0
   11.0496    1.3814   22.4256 H   0  0  0  0  0  0  0  0  0  0  0  0
   10.5267   -0.9929   22.0072 H   0  0  0  0  0  0  0  0  0  0  0  0
    8.0815   -1.6117   21.0754 H   0  0  0  0  0  0  0  0  0  0  0  0
  1  2  1  0  0  0  0
  1  7  2  0  0  0  0
  2  8  2  0  0  0  0
  3  4  2  0  0  0  0
  3 11  1  0  0  0  0
  4 14  1  0  0  0  0
  5  9  2  0  0  0  0
  5 13  1  0  0  0  0
  6 10  1  0  0  0  0
  6 13  2  0  0  0  0
  7 15  1  0  0  0  0
  8 16  1  0  0  0  0
  9 17  1  0  0  0  0
 10 17  2  0  0  0  0
 11 18  2  0  0  0  0
 12 14  2  0  0  0  0
 12 18  1  0  0  0  0
 13 26  1  0  0  0  0
 14 25  1  0  0  0  0
 15 16  2  0  0  0  0
 15 27  1  0  0  0  0
 16 29  1  0  0  0  0
 17 30  1  0  0  0  0
 18 34  1  0  0  0  0
 19 21  1  0  0  0  0
 19 30  1  0  0  0  0
 19 32  2  0  0  0  0
 20 26  1  1  0  0  0
 20 31  1  0  0  0  0
 20 33  2  0  0  0  0
 21 22  1  0  0  0  0
 22 23  1  0  0  0  0
 23 24  1  0  0  0  0
 24 30  1  0  0  0  0
 25 26  1  0  0  0  0
 27 28  2  0  0  0  0
 28 29  1  0  0  0  0
 29 31  1  0  0  0  0
  1 35  1  0  0  0  0
  2 36  1  0  0  0  0
  3 37  1  0  0  0  0
  4 38  1  0  0  0  0
  5 39  1  0  0  0  0
  6 40  1  0  0  0  0
  7 41  1  0  0  0  0
  8 42  1  0  0  0  0
  9 43  1  0  0  0  0
 10 44  1  0  0  0  0
 11 45  1  0  0  0  0
 12 46  1  0  0  0  0
 21 47  1  0  0  0  0
 21 48  1  0  0  0  0
 22 49  1  0  0  0  0
 22 50  1  0  0  0  0
 23 51  1  0  0  0  0
 23 52  1  0  0  0  0
 24 53  1  0  0  0  0
 24 54  1  0  0  0  0
 25 55  1  0  0  0  0
 25 56  1  0  0  0  0
 26 57  1  0  0  0  0
 31 58  1  0  0  0  0
M  END
> <clash_score>
0

> <docking_score>
-7.525548458099365

> <overlap_score>
0.9831506609916687

$$$$
BENZO_193_1
  -OEChem-08222022443D

 57 61  0     1  0  0  0  0  0999 V2000
   14.0375   -1.8230   24.3427 C   0  0  0  0  0  0  0  0  0  0  0  0
   13.0623   -1.4808   25.2794 C   0  0  0  0  0  0  0  0  0  0  0  0
   13.9373   -1.3600   23.0307 C   0  0  0  0  0  0  0  0  0  0  0  0
    3.8860    2.1050   19.5250 C   0  0  0  0  0  0  0  0  0  0  0  0
    4.2460    1.7520   20.8250 C   0  0  0  0  0  0  0  0  0  0  0  0
   11.9868   -0.6757   24.9042 C   0  0  0  0  0  0  0  0  0  0  0  0
   12.8619   -0.5549   22.6555 C   0  0  0  0  0  0  0  0  0  0  0  0
    9.5890   -2.4950   23.2210 C   0  0  0  0  0  0  0  0  0  0  0  0
    8.2550   -1.0010   24.5520 C   0  0  0  0  0  0  0  0  0  0  0  0
    4.6610    1.7170   18.4380 C   0  0  0  0  0  0  0  0  0  0  0  0
    5.3890    1.0010   21.0690 C   0  0  0  0  0  0  0  0  0  0  0  0
    9.1890   -3.5540   24.0140 C   0  0  0  0  0  0  0  0  0  0  0  0
    7.8700   -2.0610   25.3550 C   0  0  0  0  0  0  0  0  0  0  0  0
   11.8866   -0.2127   23.5922 C   0  0  0  0  0  0  0  0  0  0  0  0
    9.1280   -1.2090   23.4870 C   0  0  0  0  0  0  0  0  0  0  0  0
    5.7970    0.9500   18.6730 C   0  0  0  0  0  0  0  0  0  0  0  0
    6.1460    0.6070   19.9750 C   0  0  0  0  0  0  0  0  0  0  0  0
    8.3450   -3.3440   25.0980 C   0  0  0  0  0  0  0  0  0  0  0  0
    9.0430    0.2380   21.4940 C   0  0  0  0  0  0  0  0  0  0  0  0
    8.9526   -5.2008   26.6600 C   0  0  0  0  0  0  0  0  0  0  0  0
    6.6115   -4.5057   26.4392 C   0  0  0  0  0  0  0  0  0  0  0  0
    8.9053   -4.7827   28.1257 C   0  0  0  0  0  0  0  0  0  0  0  0
    6.6391   -4.1219   27.9194 C   0  0  0  0  0  0  0  0  0  0  0  0
   10.7220    0.6590   23.1850 C   0  0  0  0  0  0  0  0  0  0  0  0
    9.5820   -0.1080   22.7000 C   0  0  1  0  0  0  0  0  0  0  0  0
    6.7100    0.3850   17.8100 N   0  0  0  0  0  0  0  0  0  0  0  0
    7.5840   -0.2700   18.5160 N   0  0  0  0  0  0  0  0  0  0  0  0
    7.2710   -0.1460   19.8310 N   0  0  0  0  0  0  0  0  0  0  0  0
    7.9774   -4.4013   25.9152 N   0  0  0  0  0  0  0  0  0  0  0  0
    8.0950   -0.7700   20.8440 N   0  0  0  0  0  0  0  0  0  0  0  0
    9.2950    1.3000   20.9480 O   0  0  0  0  0  0  0  0  0  0  0  0
    7.5748   -4.9364   28.6347 O   0  0  0  0  0  0  0  0  0  0  0  0
   14.8755   -2.4488   24.6355 H   0  0  0  0  0  0  0  0  0  0  0  0
   13.1407   -1.8403   26.3013 H   0  0  0  0  0  0  0  0  0  0  0  0
   14.6970   -1.6253   22.3015 H   0  0  0  0  0  0  0  0  0  0  0  0
    2.9846    2.6932   19.3610 H   0  0  0  0  0  0  0  0  0  0  0  0
    3.6235    2.0692   21.6570 H   0  0  0  0  0  0  0  0  0  0  0  0
   11.2315   -0.4143   25.6407 H   0  0  0  0  0  0  0  0  0  0  0  0
   12.7920   -0.1989   21.6310 H   0  0  0  0  0  0  0  0  0  0  0  0
   10.2684   -2.6719   22.3867 H   0  0  0  0  0  0  0  0  0  0  0  0
    7.8717   -0.0016   24.7596 H   0  0  0  0  0  0  0  0  0  0  0  0
    4.3785    2.0113   17.4257 H   0  0  0  0  0  0  0  0  0  0  0  0
    5.6763    0.7332   22.0915 H   0  0  0  0  0  0  0  0  0  0  0  0
    9.5443   -4.5616   23.7817 H   0  0  0  0  0  0  0  0  0  0  0  0
    7.1921   -1.8821   26.1908 H   0  0  0  0  0  0  0  0  0  0  0  0
    9.9614   -5.0503   26.2701 H   0  0  0  0  0  0  0  0  0  0  0  0
    8.6932   -6.2593   26.5731 H   0  0  0  0  0  0  0  0  0  0  0  0
    6.2625   -5.5339   26.3355 H   0  0  0  0  0  0  0  0  0  0  0  0
    5.9348   -3.8414   25.9036 H   0  0  0  0  0  0  0  0  0  0  0  0
    9.5615   -5.4255   28.7162 H   0  0  0  0  0  0  0  0  0  0  0  0
    9.2365   -3.7494   28.2620 H   0  0  0  0  0  0  0  0  0  0  0  0
    6.8895   -3.0633   28.0551 H   0  0  0  0  0  0  0  0  0  0  0  0
    5.6514   -4.2861   28.3610 H   0  0  0  0  0  0  0  0  0  0  0  0
   10.4364    1.2691   24.0532 H   0  0  0  0  0  0  0  0  0  0  0  0
   11.0496    1.3814   22.4256 H   0  0  0  0  0  0  0  0  0  0  0  0
   10.5267   -0.9929   22.0072 H   0  0  0  0  0  0  0  0  0  0  0  0
    8.0815   -1.6117   21.0754 H   0  0  0  0  0  0  0  0  0  0  0  0
  1  2  1  0  0  0  0
  1  3  2  0  0  0  0
  2  6  2  0  0  0  0
  3  7  1  0  0  0  0
  4  5  1  0  0  0  0
  4 10  2  0  0  0  0
  5 11  2  0  0  0  0
  6 14  1  0  0  0  0
  7 14  2  0  0  0  0
  8 12  2  0  0  0  0
  8 15  1  0  0  0  0
  9 13  1  0  0  0  0
  9 15  2  0  0  0  0
 10 16  1  0  0  0  0
 11 17  1  0  0  0  0
 12 18  1  0  0  0  0
 13 18  2  0  0  0  0
 14 24  1  0  0  0  0
 15 25  1  0  0  0  0
 16 17  2  0  0  0  0
 16 26  1  0  0  0  0
 17 28  1  0  0  0  0
 18 29  1  0  0  0  0
 19 25  1  1  0  0  0
 19 30  1  0  0  0  0
 19 31  2  0  0  0  0
 20 22  1  0  0  0  0
 20 29  1  0  0  0  0
 21 23  1  0  0  0  0
 21 29  1  0  0  0  0
 22 32  1  0  0  0  0
 23 32  1  0  0  0  0
 24 25  1  0  0  0  0
 26 27  2  0  0  0  0
 27 28  1  0  0  0  0
 28 30  1  0  0  0  0
  1 33  1  0  0  0  0
  2 34  1  0  0  0  0
  3 35  1  0  0  0  0
  4 36  1  0  0  0  0
  5 37  1  0  0  0  0
  6 38  1  0  0  0  0
  7 39  1  0  0  0  0
  8 40  1  0  0  0  0
  9 41  1  0  0  0  0
 10 42  1  0  0  0  0
 11 43  1  0  0  0  0
 12 44  1  0  0  0  0
 13 45  1  0  0  0  0
 20 46  1  0  0  0  0
 20 47  1  0  0  0  0
 21 48  1  0  0  0  0
 21 49  1  0  0  0  0
 22 50  1  0  0  0  0
 22 51  1  0  0  0  0
 23 52  1  0  0  0  0
 23 53  1  0  0  0  0
 24 54  1  0  0  0  0
 24 55  1  0  0  0  0
 25 56  1  0  0  0  0
 30 57  1  0  0  0  0
M  END
> <clash_score>
0

> <docking_score>
-8.552510261535645

> <overlap_score>
0.9762184619903564

$$$$
BENZO_193_2
  -OEChem-08222022443D

 57 61  0     1  0  0  0  0  0999 V2000
   14.4929   -0.9443   21.8802 C   0  0  0  0  0  0  0  0  0  0  0  0
   14.4062   -0.2690   23.0976 C   0  0  0  0  0  0  0  0  0  0  0  0
   13.3566   -1.0993   21.0861 C   0  0  0  0  0  0  0  0  0  0  0  0
    3.8860    2.1050   19.5250 C   0  0  0  0  0  0  0  0  0  0  0  0
    4.2460    1.7520   20.8250 C   0  0  0  0  0  0  0  0  0  0  0  0
   13.1832    0.2512   23.5210 C   0  0  0  0  0  0  0  0  0  0  0  0
   12.1336   -0.5792   21.5095 C   0  0  0  0  0  0  0  0  0  0  0  0
    9.5890   -2.4950   23.2210 C   0  0  0  0  0  0  0  0  0  0  0  0
    8.2550   -1.0010   24.5520 C   0  0  0  0  0  0  0  0  0  0  0  0
    4.6610    1.7170   18.4380 C   0  0  0  0  0  0  0  0  0  0  0  0
    5.3890    1.0010   21.0690 C   0  0  0  0  0  0  0  0  0  0  0  0
    9.1890   -3.5540   24.0140 C   0  0  0  0  0  0  0  0  0  0  0  0
    7.8700   -2.0610   25.3550 C   0  0  0  0  0  0  0  0  0  0  0  0
   12.0469    0.0961   22.7270 C   0  0  0  0  0  0  0  0  0  0  0  0
    9.1280   -1.2090   23.4870 C   0  0  0  0  0  0  0  0  0  0  0  0
    5.7970    0.9500   18.6730 C   0  0  0  0  0  0  0  0  0  0  0  0
    6.1460    0.6070   19.9750 C   0  0  0  0  0  0  0  0  0  0  0  0
    8.3450   -3.3440   25.0980 C   0  0  0  0  0  0  0  0  0  0  0  0
    9.0430    0.2380   21.4940 C   0  0  0  0  0  0  0  0  0  0  0  0
    8.9526   -5.2008   26.6600 C   0  0  0  0  0  0  0  0  0  0  0  0
    6.6115   -4.5057   26.4392 C   0  0  0  0  0  0  0  0  0  0  0  0
    8.9053   -4.7827   28.1257 C   0  0  0  0  0  0  0  0  0  0  0  0
    6.6391   -4.1219   27.9194 C   0  0  0  0  0  0  0  0  0  0  0  0
   10.7220    0.6590   23.1850 C   0  0  0  0  0  0  0  0  0  0  0  0
    9.5820   -0.1080   22.7000 C   0  0  2  0  0  0  0  0  0  0  0  0
    6.7100    0.3850   17.8100 N   0  0  0  0  0  0  0  0  0  0  0  0
    7.5840   -0.2700   18.5160 N   0  0  0  0  0  0  0  0  0  0  0  0
    7.2710   -0.1460   19.8310 N   0  0  0  0  0  0  0  0  0  0  0  0
    7.9774   -4.4013   25.9152 N   0  0  0  0  0  0  0  0  0  0  0  0
    8.0950   -0.7700   20.8440 N   0  0  0  0  0  0  0  0  0  0  0  0
    9.2950    1.3000   20.9480 O   0  0  0  0  0  0  0  0  0  0  0  0
    7.5748   -4.9364   28.6347 O   0  0  0  0  0  0  0  0  0  0  0  0
   15.4456   -1.3481   21.5500 H   0  0  0  0  0  0  0  0  0  0  0  0
   15.2911   -0.1472   23.7155 H   0  0  0  0  0  0  0  0  0  0  0  0
   13.4240   -1.6241   20.1377 H   0  0  0  0  0  0  0  0  0  0  0  0
    2.9846    2.6932   19.3610 H   0  0  0  0  0  0  0  0  0  0  0  0
    3.6235    2.0692   21.6570 H   0  0  0  0  0  0  0  0  0  0  0  0
   13.1250    0.7757   24.4711 H   0  0  0  0  0  0  0  0  0  0  0  0
   11.2536   -0.7049   20.8844 H   0  0  0  0  0  0  0  0  0  0  0  0
   10.2684   -2.6719   22.3867 H   0  0  0  0  0  0  0  0  0  0  0  0
    7.8717   -0.0016   24.7596 H   0  0  0  0  0  0  0  0  0  0  0  0
    4.3785    2.0113   17.4257 H   0  0  0  0  0  0  0  0  0  0  0  0
    5.6763    0.7332   22.0915 H   0  0  0  0  0  0  0  0  0  0  0  0
    9.5443   -4.5616   23.7817 H   0  0  0  0  0  0  0  0  0  0  0  0
    7.1921   -1.8821   26.1908 H   0  0  0  0  0  0  0  0  0  0  0  0
    9.9614   -5.0503   26.2701 H   0  0  0  0  0  0  0  0  0  0  0  0
    8.6932   -6.2593   26.5731 H   0  0  0  0  0  0  0  0  0  0  0  0
    6.2625   -5.5339   26.3355 H   0  0  0  0  0  0  0  0  0  0  0  0
    5.9348   -3.8414   25.9036 H   0  0  0  0  0  0  0  0  0  0  0  0
    9.5615   -5.4255   28.7162 H   0  0  0  0  0  0  0  0  0  0  0  0
    9.2365   -3.7494   28.2620 H   0  0  0  0  0  0  0  0  0  0  0  0
    6.8895   -3.0633   28.0551 H   0  0  0  0  0  0  0  0  0  0  0  0
    5.6514   -4.2861   28.3610 H   0  0  0  0  0  0  0  0  0  0  0  0
   10.7288    0.6889   24.2835 H   0  0  0  0  0  0  0  0  0  0  0  0
   10.6393    1.7086   22.8728 H   0  0  0  0  0  0  0  0  0  0  0  0
    8.6955    0.7993   23.3793 H   0  0  0  0  0  0  0  0  0  0  0  0
    8.0815   -1.6117   21.0754 H   0  0  0  0  0  0  0  0  0  0  0  0
  1  2  1  0  0  0  0
  1  3  2  0  0  0  0
  2  6  2  0  0  0  0
  3  7  1  0  0  0  0
  4  5  1  0  0  0  0
  4 10  2  0  0  0  0
  5 11  2  0  0  0  0
  6 14  1  0  0  0  0
  7 14  2  0  0  0  0
  8 12  2  0  0  0  0
  8 15  1  0  0  0  0
  9 13  1  0  0  0  0
  9 15  2  0  0  0  0
 10 16  1  0  0  0  0
 11 17  1  0  0  0  0
 12 18  1  0  0  0  0
 13 18  2  0  0  0  0
 14 24  1  0  0  0  0
 15 25  1  0  0  0  0
 16 17  2  0  0  0  0
 16 26  1  0  0  0  0
 17 28  1  0  0  0  0
 18 29  1  0  0  0  0
 19 25  1  6  0  0  0
 19 30  1  0  0  0  0
 19 31  2  0  0  0  0
 20 22  1  0  0  0  0
 20 29  1  0  0  0  0
 21 23  1  0  0  0  0
 21 29  1  0  0  0  0
 22 32  1  0  0  0  0
 23 32  1  0  0  0  0
 24 25  1  0  0  0  0
 26 27  2  0  0  0  0
 27 28  1  0  0  0  0
 28 30  1  0  0  0  0
  1 33  1  0  0  0  0
  2 34  1  0  0  0  0
  3 35  1  0  0  0  0
  4 36  1  0  0  0  0
  5 37  1  0  0  0  0
  6 38  1  0  0  0  0
  7 39  1  0  0  0  0
  8 40  1  0  0  0  0
  9 41  1  0  0  0  0
 10 42  1  0  0  0  0
 11 43  1  0  0  0  0
 12 44  1  0  0  0  0
 13 45  1  0  0  0  0
 20 46  1  0  0  0  0
 20 47  1  0  0  0  0
 21 48  1  0  0  0  0
 21 49  1  0  0  0  0
 22 50  1  0  0  0  0
 22 51  1  0  0  0  0
 23 52  1  0  0  0  0
 23 53  1  0  0  0  0
 24 54  1  0  0  0  0
 24 55  1  0  0  0  0
 25 56  1  0  0  0  0
 30 57  1  0  0  0  0
M  END
> <clash_score>
0

> <docking_score>
-8.109831809997559

> <overlap_score>
0.956713855266571

$$$$
BENZO_192_2
  -OEChem-08222022443D

 54 58  0     1  0  0  0  0  0999 V2000
    3.8860    2.1050   19.5250 C   0  0  0  0  0  0  0  0  0  0  0  0
    4.2460    1.7520   20.8250 C   0  0  0  0  0  0  0  0  0  0  0  0
    9.5890   -2.4950   23.2210 C   0  0  0  0  0  0  0  0  0  0  0  0
    8.2550   -1.0010   24.5520 C   0  0  0  0  0  0  0  0  0  0  0  0
    4.6610    1.7170   18.4380 C   0  0  0  0  0  0  0  0  0  0  0  0
    5.3890    1.0010   21.0690 C   0  0  0  0  0  0  0  0  0  0  0  0
    9.1890   -3.5540   24.0140 C   0  0  0  0  0  0  0  0  0  0  0  0
    7.8700   -2.0610   25.3550 C   0  0  0  0  0  0  0  0  0  0  0  0
   13.0870   -0.3087   23.6126 C   0  0  0  0  0  0  0  0  0  0  0  0
   14.1878   -0.7845   22.9348 C   0  0  0  0  0  0  0  0  0  0  0  0
   12.3925   -0.0855   21.4058 C   0  0  0  0  0  0  0  0  0  0  0  0
    9.1280   -1.2090   23.4870 C   0  0  0  0  0  0  0  0  0  0  0  0
   12.0469    0.0961   22.7270 C   0  0  0  0  0  0  0  0  0  0  0  0
    5.7970    0.9500   18.6730 C   0  0  0  0  0  0  0  0  0  0  0  0
    6.1460    0.6070   19.9750 C   0  0  0  0  0  0  0  0  0  0  0  0
    8.3450   -3.3440   25.0980 C   0  0  0  0  0  0  0  0  0  0  0  0
    9.0430    0.2380   21.4940 C   0  0  0  0  0  0  0  0  0  0  0  0
    8.9526   -5.2008   26.6600 C   0  0  0  0  0  0  0  0  0  0  0  0
    6.6115   -4.5057   26.4392 C   0  0  0  0  0  0  0  0  0  0  0  0
    8.9053   -4.7827   28.1257 C   0  0  0  0  0  0  0  0  0  0  0  0
    6.6391   -4.1219   27.9194 C   0  0  0  0  0  0  0  0  0  0  0  0
   10.7220    0.6590   23.1850 C   0  0  0  0  0  0  0  0  0  0  0  0
    9.5820   -0.1080   22.7000 C   0  0  2  0  0  0  0  0  0  0  0  0
    6.7100    0.3850   17.8100 N   0  0  0  0  0  0  0  0  0  0  0  0
    7.5840   -0.2700   18.5160 N   0  0  0  0  0  0  0  0  0  0  0  0
    7.2710   -0.1460   19.8310 N   0  0  0  0  0  0  0  0  0  0  0  0
    7.9774   -4.4013   25.9152 N   0  0  0  0  0  0  0  0  0  0  0  0
    8.0950   -0.7700   20.8440 N   0  0  0  0  0  0  0  0  0  0  0  0
    9.2950    1.3000   20.9480 O   0  0  0  0  0  0  0  0  0  0  0  0
    7.5748   -4.9364   28.6347 O   0  0  0  0  0  0  0  0  0  0  0  0
   13.9651   -0.7419   21.2375 S   0  0  0  0  0  0  0  0  0  0  0  0
    2.9846    2.6932   19.3610 H   0  0  0  0  0  0  0  0  0  0  0  0
    3.6235    2.0692   21.6570 H   0  0  0  0  0  0  0  0  0  0  0  0
   10.2684   -2.6719   22.3867 H   0  0  0  0  0  0  0  0  0  0  0  0
    7.8717   -0.0016   24.7596 H   0  0  0  0  0  0  0  0  0  0  0  0
    4.3785    2.0113   17.4257 H   0  0  0  0  0  0  0  0  0  0  0  0
    5.6763    0.7332   22.0915 H   0  0  0  0  0  0  0  0  0  0  0  0
    9.5443   -4.5616   23.7817 H   0  0  0  0  0  0  0  0  0  0  0  0
    7.1921   -1.8821   26.1908 H   0  0  0  0  0  0  0  0  0  0  0  0
   13.0348   -0.2550   24.6927 H   0  0  0  0  0  0  0  0  0  0  0  0
   15.1124   -1.1544   23.3550 H   0  0  0  0  0  0  0  0  0  0  0  0
   11.8003    0.1355   20.5285 H   0  0  0  0  0  0  0  0  0  0  0  0
    9.9614   -5.0503   26.2701 H   0  0  0  0  0  0  0  0  0  0  0  0
    8.6932   -6.2593   26.5731 H   0  0  0  0  0  0  0  0  0  0  0  0
    6.2625   -5.5339   26.3355 H   0  0  0  0  0  0  0  0  0  0  0  0
    5.9348   -3.8414   25.9036 H   0  0  0  0  0  0  0  0  0  0  0  0
    9.5615   -5.4255   28.7162 H   0  0  0  0  0  0  0  0  0  0  0  0
    9.2365   -3.7494   28.2620 H   0  0  0  0  0  0  0  0  0  0  0  0
    6.8895   -3.0633   28.0551 H   0  0  0  0  0  0  0  0  0  0  0  0
    5.6514   -4.2861   28.3610 H   0  0  0  0  0  0  0  0  0  0  0  0
   10.7288    0.6889   24.2835 H   0  0  0  0  0  0  0  0  0  0  0  0
   10.6393    1.7086   22.8728 H   0  0  0  0  0  0  0  0  0  0  0  0
    8.6955    0.7993   23.3793 H   0  0  0  0  0  0  0  0  0  0  0  0
    8.0815   -1.6117   21.0754 H   0  0  0  0  0  0  0  0  0  0  0  0
  1  2  1  0  0  0  0
  1  5  2  0  0  0  0
  2  6  2  0  0  0  0
  3  7  2  0  0  0  0
  3 12  1  0  0  0  0
  4  8  1  0  0  0  0
  4 12  2  0  0  0  0
  5 14  1  0  0  0  0
  6 15  1  0  0  0  0
  7 16  1  0  0  0  0
  8 16  2  0  0  0  0
  9 10  2  0  0  0  0
  9 13  1  0  0  0  0
 10 31  1  0  0  0  0
 11 13  2  0  0  0  0
 11 31  1  0  0  0  0
 12 23  1  0  0  0  0
 13 22  1  0  0  0  0
 14 15  2  0  0  0  0
 14 24  1  0  0  0  0
 15 26  1  0  0  0  0
 16 27  1  0  0  0  0
 17 23  1  6  0  0  0
 17 28  1  0  0  0  0
 17 29  2  0  0  0  0
 18 20  1  0  0  0  0
 18 27  1  0  0  0  0
 19 21  1  0  0  0  0
 19 27  1  0  0  0  0
 20 30  1  0  0  0  0
 21 30  1  0  0  0  0
 22 23  1  0  0  0  0
 24 25  2  0  0  0  0
 25 26  1  0  0  0  0
 26 28  1  0  0  0  0
  1 32  1  0  0  0  0
  2 33  1  0  0  0  0
  3 34  1  0  0  0  0
  4 35  1  0  0  0  0
  5 36  1  0  0  0  0
  6 37  1  0  0  0  0
  7 38  1  0  0  0  0
  8 39  1  0  0  0  0
  9 40  1  0  0  0  0
 10 41  1  0  0  0  0
 11 42  1  0  0  0  0
 18 43  1  0  0  0  0
 18 44  1  0  0  0  0
 19 45  1  0  0  0  0
 19 46  1  0  0  0  0
 20 47  1  0  0  0  0
 20 48  1  0  0  0  0
 21 49  1  0  0  0  0
 21 50  1  0  0  0  0
 22 51  1  0  0  0  0
 22 52  1  0  0  0  0
 23 53  1  0  0  0  0
 28 54  1  0  0  0  0
M  END
> <clash_score>
0

> <docking_score>
-7.783967018127441

> <overlap_score>
0.9530364871025085

$$$$
BENZO_192_1
  -OEChem-08222022443D

 54 58  0     1  0  0  0  0  0999 V2000
    3.8860    2.1050   19.5250 C   0  0  0  0  0  0  0  0  0  0  0  0
    4.2460    1.7520   20.8250 C   0  0  0  0  0  0  0  0  0  0  0  0
    9.5890   -2.4950   23.2210 C   0  0  0  0  0  0  0  0  0  0  0  0
    8.2550   -1.0010   24.5520 C   0  0  0  0  0  0  0  0  0  0  0  0
    4.6610    1.7170   18.4380 C   0  0  0  0  0  0  0  0  0  0  0  0
    5.3890    1.0010   21.0690 C   0  0  0  0  0  0  0  0  0  0  0  0
    9.1890   -3.5540   24.0140 C   0  0  0  0  0  0  0  0  0  0  0  0
    7.8700   -2.0610   25.3550 C   0  0  0  0  0  0  0  0  0  0  0  0
   12.5272   -1.1406   22.7211 C   0  0  0  0  0  0  0  0  0  0  0  0
   13.5595   -1.8071   23.3438 C   0  0  0  0  0  0  0  0  0  0  0  0
   12.4536   -0.2056   24.8477 C   0  0  0  0  0  0  0  0  0  0  0  0
    9.1280   -1.2090   23.4870 C   0  0  0  0  0  0  0  0  0  0  0  0
   11.8866   -0.2127   23.5922 C   0  0  0  0  0  0  0  0  0  0  0  0
    5.7970    0.9500   18.6730 C   0  0  0  0  0  0  0  0  0  0  0  0
    6.1460    0.6070   19.9750 C   0  0  0  0  0  0  0  0  0  0  0  0
    8.3450   -3.3440   25.0980 C   0  0  0  0  0  0  0  0  0  0  0  0
    9.0430    0.2380   21.4940 C   0  0  0  0  0  0  0  0  0  0  0  0
    7.2565   -5.5374   25.3135 C   0  0  0  0  0  0  0  0  0  0  0  0
    7.6794   -4.1702   27.3379 C   0  0  0  0  0  0  0  0  0  0  0  0
    7.3938   -6.7712   26.1984 C   0  0  0  0  0  0  0  0  0  0  0  0
    7.7937   -5.4770   28.1149 C   0  0  0  0  0  0  0  0  0  0  0  0
   10.7220    0.6590   23.1850 C   0  0  0  0  0  0  0  0  0  0  0  0
    9.5820   -0.1080   22.7000 C   0  0  1  0  0  0  0  0  0  0  0  0
    6.7100    0.3850   17.8100 N   0  0  0  0  0  0  0  0  0  0  0  0
    7.5840   -0.2700   18.5160 N   0  0  0  0  0  0  0  0  0  0  0  0
    7.2710   -0.1460   19.8310 N   0  0  0  0  0  0  0  0  0  0  0  0
    7.9748   -4.4087   25.9209 N   0  0  0  0  0  0  0  0  0  0  0  0
    8.0950   -0.7700   20.8440 N   0  0  0  0  0  0  0  0  0  0  0  0
    9.2950    1.3000   20.9480 O   0  0  0  0  0  0  0  0  0  0  0  0
    6.9659   -6.4811   27.5290 O   0  0  0  0  0  0  0  0  0  0  0  0
   13.7529   -1.3140   24.9722 S   0  0  0  0  0  0  0  0  0  0  0  0
    2.9846    2.6932   19.3610 H   0  0  0  0  0  0  0  0  0  0  0  0
    3.6235    2.0692   21.6570 H   0  0  0  0  0  0  0  0  0  0  0  0
   10.2684   -2.6719   22.3867 H   0  0  0  0  0  0  0  0  0  0  0  0
    7.8717   -0.0016   24.7596 H   0  0  0  0  0  0  0  0  0  0  0  0
    4.3785    2.0113   17.4257 H   0  0  0  0  0  0  0  0  0  0  0  0
    5.6763    0.7332   22.0915 H   0  0  0  0  0  0  0  0  0  0  0  0
    9.5443   -4.5616   23.7817 H   0  0  0  0  0  0  0  0  0  0  0  0
    7.1922   -1.8821   26.1908 H   0  0  0  0  0  0  0  0  0  0  0  0
   12.2480   -1.3139   21.6894 H   0  0  0  0  0  0  0  0  0  0  0  0
   14.2088   -2.5605   22.9207 H   0  0  0  0  0  0  0  0  0  0  0  0
   12.1694    0.3949   25.7008 H   0  0  0  0  0  0  0  0  0  0  0  0
    7.6524   -5.7575   24.3152 H   0  0  0  0  0  0  0  0  0  0  0  0
    6.1957   -5.2743   25.2131 H   0  0  0  0  0  0  0  0  0  0  0  0
    6.6589   -3.7764   27.4304 H   0  0  0  0  0  0  0  0  0  0  0  0
    8.3709   -3.4318   27.7607 H   0  0  0  0  0  0  0  0  0  0  0  0
    6.7593   -7.5756   25.8129 H   0  0  0  0  0  0  0  0  0  0  0  0
    8.4251   -7.1438   26.2126 H   0  0  0  0  0  0  0  0  0  0  0  0
    8.8313   -5.8295   28.1592 H   0  0  0  0  0  0  0  0  0  0  0  0
    7.4542   -5.3252   29.1446 H   0  0  0  0  0  0  0  0  0  0  0  0
   10.4364    1.2691   24.0532 H   0  0  0  0  0  0  0  0  0  0  0  0
   11.0496    1.3814   22.4256 H   0  0  0  0  0  0  0  0  0  0  0  0
   10.5267   -0.9929   22.0072 H   0  0  0  0  0  0  0  0  0  0  0  0
    8.0815   -1.6117   21.0754 H   0  0  0  0  0  0  0  0  0  0  0  0
  1  2  1  0  0  0  0
  1  5  2  0  0  0  0
  2  6  2  0  0  0  0
  3  7  2  0  0  0  0
  3 12  1  0  0  0  0
  4  8  1  0  0  0  0
  4 12  2  0  0  0  0
  5 14  1  0  0  0  0
  6 15  1  0  0  0  0
  7 16  1  0  0  0  0
  8 16  2  0  0  0  0
  9 10  2  0  0  0  0
  9 13  1  0  0  0  0
 10 31  1  0  0  0  0
 11 13  2  0  0  0  0
 11 31  1  0  0  0  0
 12 23  1  0  0  0  0
 13 22  1  0  0  0  0
 14 15  2  0  0  0  0
 14 24  1  0  0  0  0
 15 26  1  0  0  0  0
 16 27  1  0  0  0  0
 17 23  1  1  0  0  0
 17 28  1  0  0  0  0
 17 29  2  0  0  0  0
 18 20  1  0  0  0  0
 18 27  1  0  0  0  0
 19 21  1  0  0  0  0
 19 27  1  0  0  0  0
 20 30  1  0  0  0  0
 21 30  1  0  0  0  0
 22 23  1  0  0  0  0
 24 25  2  0  0  0  0
 25 26  1  0  0  0  0
 26 28  1  0  0  0  0
  1 32  1  0  0  0  0
  2 33  1  0  0  0  0
  3 34  1  0  0  0  0
  4 35  1  0  0  0  0
  5 36  1  0  0  0  0
  6 37  1  0  0  0  0
  7 38  1  0  0  0  0
  8 39  1  0  0  0  0
  9 40  1  0  0  0  0
 10 41  1  0  0  0  0
 11 42  1  0  0  0  0
 18 43  1  0  0  0  0
 18 44  1  0  0  0  0
 19 45  1  0  0  0  0
 19 46  1  0  0  0  0
 20 47  1  0  0  0  0
 20 48  1  0  0  0  0
 21 49  1  0  0  0  0
 21 50  1  0  0  0  0
 22 51  1  0  0  0  0
 22 52  1  0  0  0  0
 23 53  1  0  0  0  0
 28 54  1  0  0  0  0
M  END
> <clash_score>
0

> <docking_score>
-8.206802368164062

> <overlap_score>
0.961473286151886

$$$$
BENZO_197_1
  -OEChem-08222022443D

 53 56  0     1  0  0  0  0  0999 V2000
   14.5074   -0.9113   21.8819 C   0  0  0  0  0  0  0  0  0  0  0  0
   14.4132   -0.2412   23.1016 C   0  0  0  0  0  0  0  0  0  0  0  0
   13.3738   -1.0719   21.0850 C   0  0  0  0  0  0  0  0  0  0  0  0
    3.8860    2.1050   19.5250 C   0  0  0  0  0  0  0  0  0  0  0  0
    4.2460    1.7520   20.8250 C   0  0  0  0  0  0  0  0  0  0  0  0
   13.1855    0.2683   23.5244 C   0  0  0  0  0  0  0  0  0  0  0  0
   12.1461   -0.5625   21.5079 C   0  0  0  0  0  0  0  0  0  0  0  0
    9.5890   -2.4950   23.2210 C   0  0  0  0  0  0  0  0  0  0  0  0
    8.2550   -1.0010   24.5520 C   0  0  0  0  0  0  0  0  0  0  0  0
    4.6610    1.7170   18.4380 C   0  0  0  0  0  0  0  0  0  0  0  0
    5.3890    1.0010   21.0690 C   0  0  0  0  0  0  0  0  0  0  0  0
    9.1890   -3.5540   24.0140 C   0  0  0  0  0  0  0  0  0  0  0  0
    7.8700   -2.0610   25.3550 C   0  0  0  0  0  0  0  0  0  0  0  0
    7.5840   -0.2700   18.5160 C   0  0  0  0  0  0  0  0  0  0  0  0
   12.0519    0.1077   22.7276 C   0  0  0  0  0  0  0  0  0  0  0  0
    9.1280   -1.2090   23.4870 C   0  0  0  0  0  0  0  0  0  0  0  0
    5.7970    0.9500   18.6730 C   0  0  0  0  0  0  0  0  0  0  0  0
    6.1460    0.6070   19.9750 C   0  0  0  0  0  0  0  0  0  0  0  0
    8.3450   -3.3440   25.0980 C   0  0  0  0  0  0  0  0  0  0  0  0
    9.0430    0.2380   21.4940 C   0  0  0  0  0  0  0  0  0  0  0  0
    7.2615   -5.5559   25.3795 C   0  0  0  0  0  0  0  0  0  0  0  0
    8.3042   -4.4055   27.3386 C   0  0  0  0  0  0  0  0  0  0  0  0
   10.7220    0.6590   23.1850 C   0  0  0  0  0  0  0  0  0  0  0  0
    9.5820   -0.1080   22.7000 C   0  0  1  0  0  0  0  0  0  0  0  0
    6.7100    0.3850   17.8100 N   0  0  0  0  0  0  0  0  0  0  0  0
    7.2710   -0.1460   19.8310 N   0  0  0  0  0  0  0  0  0  0  0  0
    8.0950   -0.7700   20.8440 N   0  0  0  0  0  0  0  0  0  0  0  0
    7.9717   -4.4175   25.9277 N   0  0  0  0  0  0  0  0  0  0  0  0
    9.2950    1.3000   20.9480 O   0  0  0  0  0  0  0  0  0  0  0  0
   15.4637   -1.3068   21.5522 H   0  0  0  0  0  0  0  0  0  0  0  0
   15.2959   -0.1151   23.7217 H   0  0  0  0  0  0  0  0  0  0  0  0
   13.4470   -1.5927   20.1349 H   0  0  0  0  0  0  0  0  0  0  0  0
    2.9844    2.6927   19.3613 H   0  0  0  0  0  0  0  0  0  0  0  0
    3.6214    2.0680   21.6561 H   0  0  0  0  0  0  0  0  0  0  0  0
   13.1215    0.7889   24.4763 H   0  0  0  0  0  0  0  0  0  0  0  0
   11.2683   -0.6924   20.8805 H   0  0  0  0  0  0  0  0  0  0  0  0
   10.2684   -2.6719   22.3867 H   0  0  0  0  0  0  0  0  0  0  0  0
    7.8717   -0.0016   24.7596 H   0  0  0  0  0  0  0  0  0  0  0  0
    4.3780    2.0103   17.4276 H   0  0  0  0  0  0  0  0  0  0  0  0
    5.6758    0.7336   22.0897 H   0  0  0  0  0  0  0  0  0  0  0  0
    9.5443   -4.5616   23.7817 H   0  0  0  0  0  0  0  0  0  0  0  0
    7.1921   -1.8821   26.1908 H   0  0  0  0  0  0  0  0  0  0  0  0
    8.4213   -0.8245   18.1548 H   0  0  0  0  0  0  0  0  0  0  0  0
    7.0604   -6.2833   26.1797 H   0  0  0  0  0  0  0  0  0  0  0  0
    6.3097   -5.2186   24.9432 H   0  0  0  0  0  0  0  0  0  0  0  0
    7.8751   -6.0296   24.5991 H   0  0  0  0  0  0  0  0  0  0  0  0
    7.9292   -5.3249   27.8120 H   0  0  0  0  0  0  0  0  0  0  0  0
    9.3964   -4.3513   27.4573 H   0  0  0  0  0  0  0  0  0  0  0  0
    7.8395   -3.5309   27.8172 H   0  0  0  0  0  0  0  0  0  0  0  0
   10.7195    0.6680   24.2839 H   0  0  0  0  0  0  0  0  0  0  0  0
   10.6395    1.7141   22.8921 H   0  0  0  0  0  0  0  0  0  0  0  0
    8.6943    0.7922   23.3819 H   0  0  0  0  0  0  0  0  0  0  0  0
    8.1074   -1.6160   21.1028 H   0  0  0  0  0  0  0  0  0  0  0  0
  1  2  1  0  0  0  0
  1  3  2  0  0  0  0
  2  6  2  0  0  0  0
  3  7  1  0  0  0  0
  4  5  1  0  0  0  0
  4 10  2  0  0  0  0
  5 11  2  0  0  0  0
  6 15  1  0  0  0  0
  7 15  2  0  0  0  0
  8 12  2  0  0  0  0
  8 16  1  0  0  0  0
  9 13  1  0  0  0  0
  9 16  2  0  0  0  0
 10 17  1  0  0  0  0
 11 18  1  0  0  0  0
 12 19  1  0  0  0  0
 13 19  2  0  0  0  0
 14 25  2  0  0  0  0
 14 26  1  0  0  0  0
 15 23  1  0  0  0  0
 16 24  1  0  0  0  0
 17 18  2  0  0  0  0
 17 25  1  0  0  0  0
 18 26  1  0  0  0  0
 19 28  1  0  0  0  0
 20 24  1  0  0  0  0
 20 27  1  0  0  0  0
 20 29  2  0  0  0  0
 21 28  1  0  0  0  0
 22 28  1  0  0  0  0
 23 24  1  1  0  0  0
 26 27  1  0  0  0  0
  1 30  1  0  0  0  0
  2 31  1  0  0  0  0
  3 32  1  0  0  0  0
  4 33  1  0  0  0  0
  5 34  1  0  0  0  0
  6 35  1  0  0  0  0
  7 36  1  0  0  0  0
  8 37  1  0  0  0  0
  9 38  1  0  0  0  0
 10 39  1  0  0  0  0
 11 40  1  0  0  0  0
 12 41  1  0  0  0  0
 13 42  1  0  0  0  0
 14 43  1  0  0  0  0
 21 44  1  0  0  0  0
 21 45  1  0  0  0  0
 21 46  1  0  0  0  0
 22 47  1  0  0  0  0
 22 48  1  0  0  0  0
 22 49  1  0  0  0  0
 23 50  1  0  0  0  0
 23 51  1  0  0  0  0
 24 52  1  0  0  0  0
 27 53  1  0  0  0  0
M  END
> <clash_score>
0

> <docking_score>
-7.586032867431641

> <overlap_score>
0.9079724550247192

$$$$
BENZO_195_2
  -OEChem-08222022443D

 57 61  0     1  0  0  0  0  0999 V2000
    3.8860    2.1050   19.5250 C   0  0  0  0  0  0  0  0  0  0  0  0
    4.2460    1.7520   20.8250 C   0  0  0  0  0  0  0  0  0  0  0  0
    9.5890   -2.4950   23.2210 C   0  0  0  0  0  0  0  0  0  0  0  0
    8.2550   -1.0010   24.5520 C   0  0  0  0  0  0  0  0  0  0  0  0
    4.6610    1.7170   18.4380 C   0  0  0  0  0  0  0  0  0  0  0  0
    5.3890    1.0010   21.0690 C   0  0  0  0  0  0  0  0  0  0  0  0
    9.1890   -3.5540   24.0140 C   0  0  0  0  0  0  0  0  0  0  0  0
    7.8700   -2.0610   25.3550 C   0  0  0  0  0  0  0  0  0  0  0  0
   12.1481   -0.7687   24.8588 C   0  0  0  0  0  0  0  0  0  0  0  0
   12.9278   -0.6432   22.8067 C   0  0  0  0  0  0  0  0  0  0  0  0
    9.1280   -1.2090   23.4870 C   0  0  0  0  0  0  0  0  0  0  0  0
   11.8866   -0.2127   23.5922 C   0  0  0  0  0  0  0  0  0  0  0  0
    5.7970    0.9500   18.6730 C   0  0  0  0  0  0  0  0  0  0  0  0
    6.1460    0.6070   19.9750 C   0  0  0  0  0  0  0  0  0  0  0  0
    8.3450   -3.3440   25.0980 C   0  0  0  0  0  0  0  0  0  0  0  0
    9.0430    0.2380   21.4940 C   0  0  0  0  0  0  0  0  0  0  0  0
    8.9526   -5.2008   26.6600 C   0  0  0  0  0  0  0  0  0  0  0  0
    6.6115   -4.5057   26.4392 C   0  0  0  0  0  0  0  0  0  0  0  0
    8.9053   -4.7827   28.1257 C   0  0  0  0  0  0  0  0  0  0  0  0
    6.6391   -4.1219   27.9194 C   0  0  0  0  0  0  0  0  0  0  0  0
   14.9394   -2.0726   23.2413 C   0  0  0  0  0  0  0  0  0  0  0  0
   10.7220    0.6590   23.1850 C   0  0  0  0  0  0  0  0  0  0  0  0
    9.5820   -0.1080   22.7000 C   0  0  2  0  0  0  0  0  0  0  0  0
   13.2676   -1.4968   24.8812 N   0  0  0  0  0  0  0  0  0  0  0  0
    6.7100    0.3850   17.8100 N   0  0  0  0  0  0  0  0  0  0  0  0
    7.5840   -0.2700   18.5160 N   0  0  0  0  0  0  0  0  0  0  0  0
   13.7187   -1.4015   23.6188 N   0  0  0  0  0  0  0  0  0  0  0  0
    7.2710   -0.1460   19.8310 N   0  0  0  0  0  0  0  0  0  0  0  0
    7.9774   -4.4013   25.9152 N   0  0  0  0  0  0  0  0  0  0  0  0
    8.0950   -0.7700   20.8440 N   0  0  0  0  0  0  0  0  0  0  0  0
    9.2950    1.3000   20.9480 O   0  0  0  0  0  0  0  0  0  0  0  0
    7.5748   -4.9364   28.6347 O   0  0  0  0  0  0  0  0  0  0  0  0
    2.9846    2.6932   19.3610 H   0  0  0  0  0  0  0  0  0  0  0  0
    3.6235    2.0692   21.6570 H   0  0  0  0  0  0  0  0  0  0  0  0
   10.2684   -2.6719   22.3867 H   0  0  0  0  0  0  0  0  0  0  0  0
    7.8717   -0.0016   24.7596 H   0  0  0  0  0  0  0  0  0  0  0  0
    4.3785    2.0113   17.4257 H   0  0  0  0  0  0  0  0  0  0  0  0
    5.6763    0.7332   22.0915 H   0  0  0  0  0  0  0  0  0  0  0  0
    9.5443   -4.5616   23.7817 H   0  0  0  0  0  0  0  0  0  0  0  0
    7.1921   -1.8821   26.1908 H   0  0  0  0  0  0  0  0  0  0  0  0
   11.5706   -0.6757   25.7677 H   0  0  0  0  0  0  0  0  0  0  0  0
   13.1667   -0.4796   21.7645 H   0  0  0  0  0  0  0  0  0  0  0  0
    9.9614   -5.0503   26.2701 H   0  0  0  0  0  0  0  0  0  0  0  0
    8.6932   -6.2593   26.5731 H   0  0  0  0  0  0  0  0  0  0  0  0
    6.2625   -5.5339   26.3355 H   0  0  0  0  0  0  0  0  0  0  0  0
    5.9348   -3.8414   25.9036 H   0  0  0  0  0  0  0  0  0  0  0  0
    9.5615   -5.4255   28.7162 H   0  0  0  0  0  0  0  0  0  0  0  0
    9.2365   -3.7494   28.2620 H   0  0  0  0  0  0  0  0  0  0  0  0
    6.8895   -3.0633   28.0551 H   0  0  0  0  0  0  0  0  0  0  0  0
    5.6514   -4.2861   28.3610 H   0  0  0  0  0  0  0  0  0  0  0  0
   15.7702   -1.3830   23.4123 H   0  0  0  0  0  0  0  0  0  0  0  0
   15.0610   -2.9751   23.8468 H   0  0  0  0  0  0  0  0  0  0  0  0
   14.8856   -2.3540   22.1859 H   0  0  0  0  0  0  0  0  0  0  0  0
   10.4364    1.2691   24.0532 H   0  0  0  0  0  0  0  0  0  0  0  0
   11.0496    1.3814   22.4256 H   0  0  0  0  0  0  0  0  0  0  0  0
   10.5267   -0.9929   22.0072 H   0  0  0  0  0  0  0  0  0  0  0  0
    8.0815   -1.6117   21.0754 H   0  0  0  0  0  0  0  0  0  0  0  0
  1  2  1  0  0  0  0
  1  5  2  0  0  0  0
  2  6  2  0  0  0  0
  3  7  2  0  0  0  0
  3 11  1  0  0  0  0
  4  8  1  0  0  0  0
  4 11  2  0  0  0  0
  5 13  1  0  0  0  0
  6 14  1  0  0  0  0
  7 15  1  0  0  0  0
  8 15  2  0  0  0  0
  9 12  1  0  0  0  0
  9 24  2  0  0  0  0
 10 12  2  0  0  0  0
 10 27  1  0  0  0  0
 11 23  1  0  0  0  0
 12 22  1  0  0  0  0
 13 14  2  0  0  0  0
 13 25  1  0  0  0  0
 14 28  1  0  0  0  0
 15 29  1  0  0  0  0
 16 23  1  0  0  0  0
 16 30  1  0  0  0  0
 16 31  2  0  0  0  0
 17 19  1  0  0  0  0
 17 29  1  0  0  0  0
 18 20  1  0  0  0  0
 18 29  1  0  0  0  0
 19 32  1  0  0  0  0
 20 32  1  0  0  0  0
 21 27  1  0  0  0  0
 22 23  1  6  0  0  0
 24 27  1  0  0  0  0
 25 26  2  0  0  0  0
 26 28  1  0  0  0  0
 28 30  1  0  0  0  0
  1 33  1  0  0  0  0
  2 34  1  0  0  0  0
  3 35  1  0  0  0  0
  4 36  1  0  0  0  0
  5 37  1  0  0  0  0
  6 38  1  0  0  0  0
  7 39  1  0  0  0  0
  8 40  1  0  0  0  0
  9 41  1  0  0  0  0
 10 42  1  0  0  0  0
 17 43  1  0  0  0  0
 17 44  1  0  0  0  0
 18 45  1  0  0  0  0
 18 46  1  0  0  0  0
 19 47  1  0  0  0  0
 19 48  1  0  0  0  0
 20 49  1  0  0  0  0
 20 50  1  0  0  0  0
 21 51  1  0  0  0  0
 21 52  1  0  0  0  0
 21 53  1  0  0  0  0
 22 54  1  0  0  0  0
 22 55  1  0  0  0  0
 23 56  1  0  0  0  0
 30 57  1  0  0  0  0
M  END
> <clash_score>
0

> <docking_score>
-7.604211807250977

> <overlap_score>
0.9778862595558167

$$$$
BENZO_197_2
  -OEChem-08222022443D

 53 56  0     1  0  0  0  0  0999 V2000
   14.0513   -1.7974   24.3577 C   0  0  0  0  0  0  0  0  0  0  0  0
   13.0726   -1.4574   25.2916 C   0  0  0  0  0  0  0  0  0  0  0  0
   13.9501   -1.3405   23.0436 C   0  0  0  0  0  0  0  0  0  0  0  0
    3.8860    2.1050   19.5250 C   0  0  0  0  0  0  0  0  0  0  0  0
    4.2460    1.7520   20.8250 C   0  0  0  0  0  0  0  0  0  0  0  0
   11.9927   -0.6606   24.9115 C   0  0  0  0  0  0  0  0  0  0  0  0
   12.8701   -0.5437   22.6635 C   0  0  0  0  0  0  0  0  0  0  0  0
    9.5890   -2.4950   23.2210 C   0  0  0  0  0  0  0  0  0  0  0  0
    8.2550   -1.0010   24.5520 C   0  0  0  0  0  0  0  0  0  0  0  0
    4.6610    1.7170   18.4380 C   0  0  0  0  0  0  0  0  0  0  0  0
    5.3890    1.0010   21.0690 C   0  0  0  0  0  0  0  0  0  0  0  0
    9.1890   -3.5540   24.0140 C   0  0  0  0  0  0  0  0  0  0  0  0
    7.8700   -2.0610   25.3550 C   0  0  0  0  0  0  0  0  0  0  0  0
    7.5840   -0.2700   18.5160 C   0  0  0  0  0  0  0  0  0  0  0  0
   11.8914   -0.2037   23.5974 C   0  0  0  0  0  0  0  0  0  0  0  0
    9.1280   -1.2090   23.4870 C   0  0  0  0  0  0  0  0  0  0  0  0
    5.7970    0.9500   18.6730 C   0  0  0  0  0  0  0  0  0  0  0  0
    6.1460    0.6070   19.9750 C   0  0  0  0  0  0  0  0  0  0  0  0
    8.3450   -3.3440   25.0980 C   0  0  0  0  0  0  0  0  0  0  0  0
    9.0430    0.2380   21.4940 C   0  0  0  0  0  0  0  0  0  0  0  0
    7.2615   -5.5559   25.3795 C   0  0  0  0  0  0  0  0  0  0  0  0
    8.3042   -4.4055   27.3386 C   0  0  0  0  0  0  0  0  0  0  0  0
   10.7220    0.6590   23.1850 C   0  0  0  0  0  0  0  0  0  0  0  0
    9.5820   -0.1080   22.7000 C   0  0  2  0  0  0  0  0  0  0  0  0
    6.7100    0.3850   17.8100 N   0  0  0  0  0  0  0  0  0  0  0  0
    7.2710   -0.1460   19.8310 N   0  0  0  0  0  0  0  0  0  0  0  0
    8.0950   -0.7700   20.8440 N   0  0  0  0  0  0  0  0  0  0  0  0
    7.9717   -4.4175   25.9277 N   0  0  0  0  0  0  0  0  0  0  0  0
    9.2950    1.3000   20.9480 O   0  0  0  0  0  0  0  0  0  0  0  0
   14.8928   -2.4167   24.6542 H   0  0  0  0  0  0  0  0  0  0  0  0
   13.1518   -1.8121   26.3151 H   0  0  0  0  0  0  0  0  0  0  0  0
   14.7124   -1.6041   22.3165 H   0  0  0  0  0  0  0  0  0  0  0  0
    2.9844    2.6927   19.3613 H   0  0  0  0  0  0  0  0  0  0  0  0
    3.6214    2.0680   21.6561 H   0  0  0  0  0  0  0  0  0  0  0  0
   11.2348   -0.4008   25.6459 H   0  0  0  0  0  0  0  0  0  0  0  0
   12.7995   -0.1925   21.6375 H   0  0  0  0  0  0  0  0  0  0  0  0
   10.2684   -2.6719   22.3867 H   0  0  0  0  0  0  0  0  0  0  0  0
    7.8717   -0.0016   24.7596 H   0  0  0  0  0  0  0  0  0  0  0  0
    4.3780    2.0103   17.4276 H   0  0  0  0  0  0  0  0  0  0  0  0
    5.6758    0.7336   22.0897 H   0  0  0  0  0  0  0  0  0  0  0  0
    9.5443   -4.5616   23.7817 H   0  0  0  0  0  0  0  0  0  0  0  0
    7.1921   -1.8821   26.1908 H   0  0  0  0  0  0  0  0  0  0  0  0
    8.4213   -0.8245   18.1548 H   0  0  0  0  0  0  0  0  0  0  0  0
    7.0604   -6.2833   26.1797 H   0  0  0  0  0  0  0  0  0  0  0  0
    6.3097   -5.2186   24.9432 H   0  0  0  0  0  0  0  0  0  0  0  0
    7.8751   -6.0296   24.5991 H   0  0  0  0  0  0  0  0  0  0  0  0
    7.9292   -5.3249   27.8120 H   0  0  0  0  0  0  0  0  0  0  0  0
    9.3964   -4.3513   27.4573 H   0  0  0  0  0  0  0  0  0  0  0  0
    7.8395   -3.5309   27.8172 H   0  0  0  0  0  0  0  0  0  0  0  0
   10.4198    1.2578   24.0555 H   0  0  0  0  0  0  0  0  0  0  0  0
   11.0503    1.3920   22.4361 H   0  0  0  0  0  0  0  0  0  0  0  0
   10.5231   -0.9933   22.0106 H   0  0  0  0  0  0  0  0  0  0  0  0
    8.1074   -1.6160   21.1028 H   0  0  0  0  0  0  0  0  0  0  0  0
  1  2  1  0  0  0  0
  1  3  2  0  0  0  0
  2  6  2  0  0  0  0
  3  7  1  0  0  0  0
  4  5  1  0  0  0  0
  4 10  2  0  0  0  0
  5 11  2  0  0  0  0
  6 15  1  0  0  0  0
  7 15  2  0  0  0  0
  8 12  2  0  0  0  0
  8 16  1  0  0  0  0
  9 13  1  0  0  0  0
  9 16  2  0  0  0  0
 10 17  1  0  0  0  0
 11 18  1  0  0  0  0
 12 19  1  0  0  0  0
 13 19  2  0  0  0  0
 14 25  2  0  0  0  0
 14 26  1  0  0  0  0
 15 23  1  0  0  0  0
 16 24  1  0  0  0  0
 17 18  2  0  0  0  0
 17 25  1  0  0  0  0
 18 26  1  0  0  0  0
 19 28  1  0  0  0  0
 20 24  1  0  0  0  0
 20 27  1  0  0  0  0
 20 29  2  0  0  0  0
 21 28  1  0  0  0  0
 22 28  1  0  0  0  0
 23 24  1  6  0  0  0
 26 27  1  0  0  0  0
  1 30  1  0  0  0  0
  2 31  1  0  0  0  0
  3 32  1  0  0  0  0
  4 33  1  0  0  0  0
  5 34  1  0  0  0  0
  6 35  1  0  0  0  0
  7 36  1  0  0  0  0
  8 37  1  0  0  0  0
  9 38  1  0  0  0  0
 10 39  1  0  0  0  0
 11 40  1  0  0  0  0
 12 41  1  0  0  0  0
 13 42  1  0  0  0  0
 14 43  1  0  0  0  0
 21 44  1  0  0  0  0
 21 45  1  0  0  0  0
 21 46  1  0  0  0  0
 22 47  1  0  0  0  0
 22 48  1  0  0  0  0
 22 49  1  0  0  0  0
 23 50  1  0  0  0  0
 23 51  1  0  0  0  0
 24 52  1  0  0  0  0
 27 53  1  0  0  0  0
M  END
> <clash_score>
0

> <docking_score>
-8.12628173828125

> <overlap_score>
0.9287671446800232

$$$$
BENZO_196_1
  -OEChem-08222022443D

 50 53  0     1  0  0  0  0  0999 V2000
    3.8860    2.1050   19.5250 C   0  0  0  0  0  0  0  0  0  0  0  0
    4.2460    1.7520   20.8250 C   0  0  0  0  0  0  0  0  0  0  0  0
    9.5890   -2.4950   23.2210 C   0  0  0  0  0  0  0  0  0  0  0  0
    8.2550   -1.0010   24.5520 C   0  0  0  0  0  0  0  0  0  0  0  0
    4.6610    1.7170   18.4380 C   0  0  0  0  0  0  0  0  0  0  0  0
    5.3890    1.0010   21.0690 C   0  0  0  0  0  0  0  0  0  0  0  0
    9.1890   -3.5540   24.0140 C   0  0  0  0  0  0  0  0  0  0  0  0
    7.8700   -2.0610   25.3550 C   0  0  0  0  0  0  0  0  0  0  0  0
   13.0855   -0.3117   23.6141 C   0  0  0  0  0  0  0  0  0  0  0  0
   14.1930   -0.7722   22.9367 C   0  0  0  0  0  0  0  0  0  0  0  0
   12.4091   -0.0480   21.4061 C   0  0  0  0  0  0  0  0  0  0  0  0
    7.5840   -0.2700   18.5160 C   0  0  0  0  0  0  0  0  0  0  0  0
    9.1280   -1.2090   23.4870 C   0  0  0  0  0  0  0  0  0  0  0  0
   12.0519    0.1077   22.7276 C   0  0  0  0  0  0  0  0  0  0  0  0
    5.7970    0.9500   18.6730 C   0  0  0  0  0  0  0  0  0  0  0  0
    6.1460    0.6070   19.9750 C   0  0  0  0  0  0  0  0  0  0  0  0
    8.3450   -3.3440   25.0980 C   0  0  0  0  0  0  0  0  0  0  0  0
    9.0430    0.2380   21.4940 C   0  0  0  0  0  0  0  0  0  0  0  0
    7.2615   -5.5559   25.3795 C   0  0  0  0  0  0  0  0  0  0  0  0
    8.3042   -4.4055   27.3386 C   0  0  0  0  0  0  0  0  0  0  0  0
   10.7220    0.6590   23.1850 C   0  0  0  0  0  0  0  0  0  0  0  0
    9.5820   -0.1080   22.7000 C   0  0  1  0  0  0  0  0  0  0  0  0
    6.7100    0.3850   17.8100 N   0  0  0  0  0  0  0  0  0  0  0  0
    7.2710   -0.1460   19.8310 N   0  0  0  0  0  0  0  0  0  0  0  0
    8.0950   -0.7700   20.8440 N   0  0  0  0  0  0  0  0  0  0  0  0
    7.9717   -4.4175   25.9277 N   0  0  0  0  0  0  0  0  0  0  0  0
    9.2950    1.3000   20.9480 O   0  0  0  0  0  0  0  0  0  0  0  0
   13.9845   -0.6978   21.2387 S   0  0  0  0  0  0  0  0  0  0  0  0
    2.9844    2.6927   19.3613 H   0  0  0  0  0  0  0  0  0  0  0  0
    3.6214    2.0680   21.6561 H   0  0  0  0  0  0  0  0  0  0  0  0
   10.2684   -2.6719   22.3867 H   0  0  0  0  0  0  0  0  0  0  0  0
    7.8717   -0.0016   24.7596 H   0  0  0  0  0  0  0  0  0  0  0  0
    4.3780    2.0103   17.4276 H   0  0  0  0  0  0  0  0  0  0  0  0
    5.6758    0.7336   22.0897 H   0  0  0  0  0  0  0  0  0  0  0  0
    9.5443   -4.5616   23.7817 H   0  0  0  0  0  0  0  0  0  0  0  0
    7.1921   -1.8821   26.1908 H   0  0  0  0  0  0  0  0  0  0  0  0
   13.0241   -0.2787   24.6946 H   0  0  0  0  0  0  0  0  0  0  0  0
   15.1149   -1.1481   23.3576 H   0  0  0  0  0  0  0  0  0  0  0  0
   11.8238    0.1885   20.5283 H   0  0  0  0  0  0  0  0  0  0  0  0
    8.4213   -0.8245   18.1548 H   0  0  0  0  0  0  0  0  0  0  0  0
    7.0604   -6.2833   26.1797 H   0  0  0  0  0  0  0  0  0  0  0  0
    6.3097   -5.2186   24.9432 H   0  0  0  0  0  0  0  0  0  0  0  0
    7.8751   -6.0296   24.5991 H   0  0  0  0  0  0  0  0  0  0  0  0
    7.9292   -5.3249   27.8120 H   0  0  0  0  0  0  0  0  0  0  0  0
    9.3964   -4.3513   27.4573 H   0  0  0  0  0  0  0  0  0  0  0  0
    7.8395   -3.5309   27.8172 H   0  0  0  0  0  0  0  0  0  0  0  0
   10.7195    0.6680   24.2839 H   0  0  0  0  0  0  0  0  0  0  0  0
   10.6395    1.7141   22.8921 H   0  0  0  0  0  0  0  0  0  0  0  0
    8.6943    0.7922   23.3819 H   0  0  0  0  0  0  0  0  0  0  0  0
    8.1074   -1.6160   21.1028 H   0  0  0  0  0  0  0  0  0  0  0  0
  1  2  1  0  0  0  0
  1  5  2  0  0  0  0
  2  6  2  0  0  0  0
  3  7  2  0  0  0  0
  3 13  1  0  0  0  0
  4  8  1  0  0  0  0
  4 13  2  0  0  0  0
  5 15  1  0  0  0  0
  6 16  1  0  0  0  0
  7 17  1  0  0  0  0
  8 17  2  0  0  0  0
  9 10  2  0  0  0  0
  9 14  1  0  0  0  0
 10 28  1  0  0  0  0
 11 14  2  0  0  0  0
 11 28  1  0  0  0  0
 12 23  2  0  0  0  0
 12 24  1  0  0  0  0
 13 22  1  0  0  0  0
 14 21  1  0  0  0  0
 15 16  2  0  0  0  0
 15 23  1  0  0  0  0
 16 24  1  0  0  0  0
 17 26  1  0  0  0  0
 18 22  1  0  0  0  0
 18 25  1  0  0  0  0
 18 27  2  0  0  0  0
 19 26  1  0  0  0  0
 20 26  1  0  0  0  0
 21 22  1  1  0  0  0
 24 25  1  0  0  0  0
  1 29  1  0  0  0  0
  2 30  1  0  0  0  0
  3 31  1  0  0  0  0
  4 32  1  0  0  0  0
  5 33  1  0  0  0  0
  6 34  1  0  0  0  0
  7 35  1  0  0  0  0
  8 36  1  0  0  0  0
  9 37  1  0  0  0  0
 10 38  1  0  0  0  0
 11 39  1  0  0  0  0
 12 40  1  0  0  0  0
 19 41  1  0  0  0  0
 19 42  1  0  0  0  0
 19 43  1  0  0  0  0
 20 44  1  0  0  0  0
 20 45  1  0  0  0  0
 20 46  1  0  0  0  0
 21 47  1  0  0  0  0
 21 48  1  0  0  0  0
 22 49  1  0  0  0  0
 25 50  1  0  0  0  0
M  END
> <clash_score>
0

> <docking_score>
-7.279360771179199

> <overlap_score>
0.9044998288154602

$$$$
BENZO_196_2
  -OEChem-08222022443D

 50 53  0     1  0  0  0  0  0999 V2000
    3.8860    2.1050   19.5250 C   0  0  0  0  0  0  0  0  0  0  0  0
    4.2460    1.7520   20.8250 C   0  0  0  0  0  0  0  0  0  0  0  0
    9.5890   -2.4950   23.2210 C   0  0  0  0  0  0  0  0  0  0  0  0
    8.2550   -1.0010   24.5520 C   0  0  0  0  0  0  0  0  0  0  0  0
    4.6610    1.7170   18.4380 C   0  0  0  0  0  0  0  0  0  0  0  0
    5.3890    1.0010   21.0690 C   0  0  0  0  0  0  0  0  0  0  0  0
    9.1890   -3.5540   24.0140 C   0  0  0  0  0  0  0  0  0  0  0  0
    7.8700   -2.0610   25.3550 C   0  0  0  0  0  0  0  0  0  0  0  0
   12.5521   -1.1164   22.7252 C   0  0  0  0  0  0  0  0  0  0  0  0
   13.5845   -1.7774   23.3535 C   0  0  0  0  0  0  0  0  0  0  0  0
   12.4440   -0.2022   24.8594 C   0  0  0  0  0  0  0  0  0  0  0  0
    7.5840   -0.2700   18.5160 C   0  0  0  0  0  0  0  0  0  0  0  0
    9.1280   -1.2090   23.4870 C   0  0  0  0  0  0  0  0  0  0  0  0
   11.8914   -0.2037   23.5974 C   0  0  0  0  0  0  0  0  0  0  0  0
    5.7970    0.9500   18.6730 C   0  0  0  0  0  0  0  0  0  0  0  0
    6.1460    0.6070   19.9750 C   0  0  0  0  0  0  0  0  0  0  0  0
    8.3450   -3.3440   25.0980 C   0  0  0  0  0  0  0  0  0  0  0  0
    9.0430    0.2380   21.4940 C   0  0  0  0  0  0  0  0  0  0  0  0
    8.8666   -5.5413   26.1203 C   0  0  0  0  0  0  0  0  0  0  0  0
    6.6935   -4.4076   26.6113 C   0  0  0  0  0  0  0  0  0  0  0  0
   10.7220    0.6590   23.1850 C   0  0  0  0  0  0  0  0  0  0  0  0
    9.5820   -0.1080   22.7000 C   0  0  2  0  0  0  0  0  0  0  0  0
    6.7100    0.3850   17.8100 N   0  0  0  0  0  0  0  0  0  0  0  0
    7.2710   -0.1460   19.8310 N   0  0  0  0  0  0  0  0  0  0  0  0
    8.0950   -0.7700   20.8440 N   0  0  0  0  0  0  0  0  0  0  0  0
    7.9717   -4.4175   25.9277 N   0  0  0  0  0  0  0  0  0  0  0  0
    9.2950    1.3000   20.9480 O   0  0  0  0  0  0  0  0  0  0  0  0
   13.7539   -1.2974   24.9886 S   0  0  0  0  0  0  0  0  0  0  0  0
    2.9844    2.6927   19.3613 H   0  0  0  0  0  0  0  0  0  0  0  0
    3.6214    2.0680   21.6561 H   0  0  0  0  0  0  0  0  0  0  0  0
   10.2684   -2.6719   22.3867 H   0  0  0  0  0  0  0  0  0  0  0  0
    7.8717   -0.0016   24.7596 H   0  0  0  0  0  0  0  0  0  0  0  0
    4.3780    2.0103   17.4276 H   0  0  0  0  0  0  0  0  0  0  0  0
    5.6758    0.7336   22.0897 H   0  0  0  0  0  0  0  0  0  0  0  0
    9.5443   -4.5616   23.7817 H   0  0  0  0  0  0  0  0  0  0  0  0
    7.1921   -1.8821   26.1908 H   0  0  0  0  0  0  0  0  0  0  0  0
   12.2866   -1.2830   21.6889 H   0  0  0  0  0  0  0  0  0  0  0  0
   14.2469   -2.5196   22.9310 H   0  0  0  0  0  0  0  0  0  0  0  0
   12.1435    0.3871   25.7147 H   0  0  0  0  0  0  0  0  0  0  0  0
    8.4213   -0.8245   18.1548 H   0  0  0  0  0  0  0  0  0  0  0  0
    8.3986   -6.2716   26.7968 H   0  0  0  0  0  0  0  0  0  0  0  0
    9.0701   -6.0183   25.1502 H   0  0  0  0  0  0  0  0  0  0  0  0
    9.8106   -5.1870   26.5600 H   0  0  0  0  0  0  0  0  0  0  0  0
    6.5880   -5.3270   27.2059 H   0  0  0  0  0  0  0  0  0  0  0  0
    6.6402   -3.5330   27.2762 H   0  0  0  0  0  0  0  0  0  0  0  0
    5.8821   -4.3550   25.8705 H   0  0  0  0  0  0  0  0  0  0  0  0
   10.4198    1.2578   24.0555 H   0  0  0  0  0  0  0  0  0  0  0  0
   11.0503    1.3920   22.4361 H   0  0  0  0  0  0  0  0  0  0  0  0
   10.5231   -0.9933   22.0106 H   0  0  0  0  0  0  0  0  0  0  0  0
    8.1074   -1.6160   21.1028 H   0  0  0  0  0  0  0  0  0  0  0  0
  1  2  1  0  0  0  0
  1  5  2  0  0  0  0
  2  6  2  0  0  0  0
  3  7  2  0  0  0  0
  3 13  1  0  0  0  0
  4  8  1  0  0  0  0
  4 13  2  0  0  0  0
  5 15  1  0  0  0  0
  6 16  1  0  0  0  0
  7 17  1  0  0  0  0
  8 17  2  0  0  0  0
  9 10  2  0  0  0  0
  9 14  1  0  0  0  0
 10 28  1  0  0  0  0
 11 14  2  0  0  0  0
 11 28  1  0  0  0  0
 12 23  2  0  0  0  0
 12 24  1  0  0  0  0
 13 22  1  0  0  0  0
 14 21  1  0  0  0  0
 15 16  2  0  0  0  0
 15 23  1  0  0  0  0
 16 24  1  0  0  0  0
 17 26  1  0  0  0  0
 18 22  1  0  0  0  0
 18 25  1  0  0  0  0
 18 27  2  0  0  0  0
 19 26  1  0  0  0  0
 20 26  1  0  0  0  0
 21 22  1  6  0  0  0
 24 25  1  0  0  0  0
  1 29  1  0  0  0  0
  2 30  1  0  0  0  0
  3 31  1  0  0  0  0
  4 32  1  0  0  0  0
  5 33  1  0  0  0  0
  6 34  1  0  0  0  0
  7 35  1  0  0  0  0
  8 36  1  0  0  0  0
  9 37  1  0  0  0  0
 10 38  1  0  0  0  0
 11 39  1  0  0  0  0
 12 40  1  0  0  0  0
 19 41  1  0  0  0  0
 19 42  1  0  0  0  0
 19 43  1  0  0  0  0
 20 44  1  0  0  0  0
 20 45  1  0  0  0  0
 20 46  1  0  0  0  0
 21 47  1  0  0  0  0
 21 48  1  0  0  0  0
 22 49  1  0  0  0  0
 25 50  1  0  0  0  0
M  END
> <clash_score>
0

> <docking_score>
-8.526250839233398

> <overlap_score>
0.905072033405304

$$$$
BENZO_195_1
  -OEChem-08222022443D

 57 61  0     1  0  0  0  0  0999 V2000
    3.8860    2.1050   19.5250 C   0  0  0  0  0  0  0  0  0  0  0  0
    4.2460    1.7520   20.8250 C   0  0  0  0  0  0  0  0  0  0  0  0
    9.5890   -2.4950   23.2210 C   0  0  0  0  0  0  0  0  0  0  0  0
    8.2550   -1.0010   24.5520 C   0  0  0  0  0  0  0  0  0  0  0  0
    4.6610    1.7170   18.4380 C   0  0  0  0  0  0  0  0  0  0  0  0
    5.3890    1.0010   21.0690 C   0  0  0  0  0  0  0  0  0  0  0  0
    9.1890   -3.5540   24.0140 C   0  0  0  0  0  0  0  0  0  0  0  0
    7.8700   -2.0610   25.3550 C   0  0  0  0  0  0  0  0  0  0  0  0
   13.2863    0.1542   23.3919 C   0  0  0  0  0  0  0  0  0  0  0  0
   12.3112   -0.5906   21.5672 C   0  0  0  0  0  0  0  0  0  0  0  0
    9.1280   -1.2090   23.4870 C   0  0  0  0  0  0  0  0  0  0  0  0
   12.0469    0.0961   22.7270 C   0  0  0  0  0  0  0  0  0  0  0  0
    5.7970    0.9500   18.6730 C   0  0  0  0  0  0  0  0  0  0  0  0
    6.1460    0.6070   19.9750 C   0  0  0  0  0  0  0  0  0  0  0  0
    8.3450   -3.3440   25.0980 C   0  0  0  0  0  0  0  0  0  0  0  0
    9.0430    0.2380   21.4940 C   0  0  0  0  0  0  0  0  0  0  0  0
    8.9526   -5.2008   26.6600 C   0  0  0  0  0  0  0  0  0  0  0  0
    6.6115   -4.5057   26.4392 C   0  0  0  0  0  0  0  0  0  0  0  0
    8.9053   -4.7827   28.1257 C   0  0  0  0  0  0  0  0  0  0  0  0
    6.6391   -4.1219   27.9194 C   0  0  0  0  0  0  0  0  0  0  0  0
   14.3866   -1.6105   20.6020 C   0  0  0  0  0  0  0  0  0  0  0  0
   10.7220    0.6590   23.1850 C   0  0  0  0  0  0  0  0  0  0  0  0
    9.5820   -0.1080   22.7000 C   0  0  1  0  0  0  0  0  0  0  0  0
   14.2653   -0.4478   22.7113 N   0  0  0  0  0  0  0  0  0  0  0  0
    6.7100    0.3850   17.8100 N   0  0  0  0  0  0  0  0  0  0  0  0
    7.5840   -0.2700   18.5160 N   0  0  0  0  0  0  0  0  0  0  0  0
   13.6411   -0.8907   21.6066 N   0  0  0  0  0  0  0  0  0  0  0  0
    7.2710   -0.1460   19.8310 N   0  0  0  0  0  0  0  0  0  0  0  0
    7.9774   -4.4013   25.9152 N   0  0  0  0  0  0  0  0  0  0  0  0
    8.0950   -0.7700   20.8440 N   0  0  0  0  0  0  0  0  0  0  0  0
    9.2950    1.3000   20.9480 O   0  0  0  0  0  0  0  0  0  0  0  0
    7.5748   -4.9364   28.6347 O   0  0  0  0  0  0  0  0  0  0  0  0
    2.9846    2.6932   19.3610 H   0  0  0  0  0  0  0  0  0  0  0  0
    3.6235    2.0692   21.6570 H   0  0  0  0  0  0  0  0  0  0  0  0
   10.2684   -2.6719   22.3867 H   0  0  0  0  0  0  0  0  0  0  0  0
    7.8717   -0.0016   24.7596 H   0  0  0  0  0  0  0  0  0  0  0  0
    4.3785    2.0113   17.4257 H   0  0  0  0  0  0  0  0  0  0  0  0
    5.6763    0.7332   22.0915 H   0  0  0  0  0  0  0  0  0  0  0  0
    9.5443   -4.5616   23.7817 H   0  0  0  0  0  0  0  0  0  0  0  0
    7.1921   -1.8821   26.1908 H   0  0  0  0  0  0  0  0  0  0  0  0
   13.5193    0.6087   24.3445 H   0  0  0  0  0  0  0  0  0  0  0  0
   11.6817   -0.8851   20.7385 H   0  0  0  0  0  0  0  0  0  0  0  0
    9.9614   -5.0503   26.2701 H   0  0  0  0  0  0  0  0  0  0  0  0
    8.6932   -6.2593   26.5731 H   0  0  0  0  0  0  0  0  0  0  0  0
    6.2625   -5.5339   26.3355 H   0  0  0  0  0  0  0  0  0  0  0  0
    5.9348   -3.8414   25.9036 H   0  0  0  0  0  0  0  0  0  0  0  0
    9.5615   -5.4255   28.7162 H   0  0  0  0  0  0  0  0  0  0  0  0
    9.2365   -3.7494   28.2620 H   0  0  0  0  0  0  0  0  0  0  0  0
    6.8895   -3.0633   28.0551 H   0  0  0  0  0  0  0  0  0  0  0  0
    5.6514   -4.2861   28.3610 H   0  0  0  0  0  0  0  0  0  0  0  0
   14.7772   -0.8827   19.8859 H   0  0  0  0  0  0  0  0  0  0  0  0
   15.2060   -2.1563   21.0779 H   0  0  0  0  0  0  0  0  0  0  0  0
   13.7245   -2.3229   20.1020 H   0  0  0  0  0  0  0  0  0  0  0  0
   10.7288    0.6889   24.2835 H   0  0  0  0  0  0  0  0  0  0  0  0
   10.6393    1.7086   22.8728 H   0  0  0  0  0  0  0  0  0  0  0  0
    8.6955    0.7993   23.3793 H   0  0  0  0  0  0  0  0  0  0  0  0
    8.0815   -1.6117   21.0754 H   0  0  0  0  0  0  0  0  0  0  0  0
  1  2  1  0  0  0  0
  1  5  2  0  0  0  0
  2  6  2  0  0  0  0
  3  7  2  0  0  0  0
  3 11  1  0  0  0  0
  4  8  1  0  0  0  0
  4 11  2  0  0  0  0
  5 13  1  0  0  0  0
  6 14  1  0  0  0  0
  7 15  1  0  0  0  0
  8 15  2  0  0  0  0
  9 12  1  0  0  0  0
  9 24  2  0  0  0  0
 10 12  2  0  0  0  0
 10 27  1  0  0  0  0
 11 23  1  0  0  0  0
 12 22  1  0  0  0  0
 13 14  2  0  0  0  0
 13 25  1  0  0  0  0
 14 28  1  0  0  0  0
 15 29  1  0  0  0  0
 16 23  1  0  0  0  0
 16 30  1  0  0  0  0
 16 31  2  0  0  0  0
 17 19  1  0  0  0  0
 17 29  1  0  0  0  0
 18 20  1  0  0  0  0
 18 29  1  0  0  0  0
 19 32  1  0  0  0  0
 20 32  1  0  0  0  0
 21 27  1  0  0  0  0
 22 23  1  1  0  0  0
 24 27  1  0  0  0  0
 25 26  2  0  0  0  0
 26 28  1  0  0  0  0
 28 30  1  0  0  0  0
  1 33  1  0  0  0  0
  2 34  1  0  0  0  0
  3 35  1  0  0  0  0
  4 36  1  0  0  0  0
  5 37  1  0  0  0  0
  6 38  1  0  0  0  0
  7 39  1  0  0  0  0
  8 40  1  0  0  0  0
  9 41  1  0  0  0  0
 10 42  1  0  0  0  0
 17 43  1  0  0  0  0
 17 44  1  0  0  0  0
 18 45  1  0  0  0  0
 18 46  1  0  0  0  0
 19 47  1  0  0  0  0
 19 48  1  0  0  0  0
 20 49  1  0  0  0  0
 20 50  1  0  0  0  0
 21 51  1  0  0  0  0
 21 52  1  0  0  0  0
 21 53  1  0  0  0  0
 22 54  1  0  0  0  0
 22 55  1  0  0  0  0
 23 56  1  0  0  0  0
 30 57  1  0  0  0  0
M  END
> <clash_score>
0

> <docking_score>
-9.154267311096191

> <overlap_score>
0.95653235912323

$$$$
BENZO_194_1
  -OEChem-08222022443D

 57 61  0     1  0  0  0  0  0999 V2000
    3.8860    2.1050   19.5250 C   0  0  0  0  0  0  0  0  0  0  0  0
    4.2460    1.7520   20.8250 C   0  0  0  0  0  0  0  0  0  0  0  0
   13.0596   -1.4816   25.2806 C   0  0  0  0  0  0  0  0  0  0  0  0
   11.9851   -0.6757   24.9042 C   0  0  0  0  0  0  0  0  0  0  0  0
    9.5890   -2.4950   23.2210 C   0  0  0  0  0  0  0  0  0  0  0  0
    8.2550   -1.0010   24.5520 C   0  0  0  0  0  0  0  0  0  0  0  0
    4.6610    1.7170   18.4380 C   0  0  0  0  0  0  0  0  0  0  0  0
    5.3890    1.0010   21.0690 C   0  0  0  0  0  0  0  0  0  0  0  0
    9.1890   -3.5540   24.0140 C   0  0  0  0  0  0  0  0  0  0  0  0
    7.8700   -2.0610   25.3550 C   0  0  0  0  0  0  0  0  0  0  0  0
   14.0356   -1.8245   24.3449 C   0  0  0  0  0  0  0  0  0  0  0  0
   12.8626   -0.5556   22.6564 C   0  0  0  0  0  0  0  0  0  0  0  0
    9.1280   -1.2090   23.4870 C   0  0  0  0  0  0  0  0  0  0  0  0
   11.8866   -0.2127   23.5922 C   0  0  0  0  0  0  0  0  0  0  0  0
    5.7970    0.9500   18.6730 C   0  0  0  0  0  0  0  0  0  0  0  0
    6.1460    0.6070   19.9750 C   0  0  0  0  0  0  0  0  0  0  0  0
    8.3450   -3.3440   25.0980 C   0  0  0  0  0  0  0  0  0  0  0  0
   13.9370   -1.3615   23.0328 C   0  0  0  0  0  0  0  0  0  0  0  0
    9.0430    0.2380   21.4940 C   0  0  0  0  0  0  0  0  0  0  0  0
    8.9526   -5.2008   26.6600 C   0  0  0  0  0  0  0  0  0  0  0  0
    6.6115   -4.5057   26.4392 C   0  0  0  0  0  0  0  0  0  0  0  0
    8.9053   -4.7827   28.1257 C   0  0  0  0  0  0  0  0  0  0  0  0
    6.6391   -4.1219   27.9194 C   0  0  0  0  0  0  0  0  0  0  0  0
   10.7220    0.6590   23.1850 C   0  0  0  0  0  0  0  0  0  0  0  0
    9.5820   -0.1080   22.7000 C   0  0  1  0  0  0  0  0  0  0  0  0
    6.7100    0.3850   17.8100 N   0  0  0  0  0  0  0  0  0  0  0  0
    7.5840   -0.2700   18.5160 N   0  0  0  0  0  0  0  0  0  0  0  0
    7.2710   -0.1460   19.8310 N   0  0  0  0  0  0  0  0  0  0  0  0
    7.9774   -4.4013   25.9152 N   0  0  0  0  0  0  0  0  0  0  0  0
    8.0950   -0.7700   20.8440 N   0  0  0  0  0  0  0  0  0  0  0  0
    9.2950    1.3000   20.9480 O   0  0  0  0  0  0  0  0  0  0  0  0
    7.5748   -4.9364   28.6347 O   0  0  0  0  0  0  0  0  0  0  0  0
   15.1409   -1.7858   21.8785 Cl  0  0  0  0  0  0  0  0  0  0  0  0
    2.9846    2.6932   19.3610 H   0  0  0  0  0  0  0  0  0  0  0  0
    3.6235    2.0692   21.6570 H   0  0  0  0  0  0  0  0  0  0  0  0
   13.1358   -1.8421   26.3024 H   0  0  0  0  0  0  0  0  0  0  0  0
   11.2292   -0.4136   25.6399 H   0  0  0  0  0  0  0  0  0  0  0  0
   10.2684   -2.6719   22.3867 H   0  0  0  0  0  0  0  0  0  0  0  0
    7.8717   -0.0016   24.7596 H   0  0  0  0  0  0  0  0  0  0  0  0
    4.3785    2.0113   17.4257 H   0  0  0  0  0  0  0  0  0  0  0  0
    5.6763    0.7332   22.0915 H   0  0  0  0  0  0  0  0  0  0  0  0
    9.5443   -4.5616   23.7817 H   0  0  0  0  0  0  0  0  0  0  0  0
    7.1921   -1.8821   26.1908 H   0  0  0  0  0  0  0  0  0  0  0  0
   14.8673   -2.4536   24.6523 H   0  0  0  0  0  0  0  0  0  0  0  0
   12.7815   -0.1917   21.6347 H   0  0  0  0  0  0  0  0  0  0  0  0
    9.9614   -5.0503   26.2701 H   0  0  0  0  0  0  0  0  0  0  0  0
    8.6932   -6.2593   26.5731 H   0  0  0  0  0  0  0  0  0  0  0  0
    6.2625   -5.5339   26.3355 H   0  0  0  0  0  0  0  0  0  0  0  0
    5.9348   -3.8414   25.9036 H   0  0  0  0  0  0  0  0  0  0  0  0
    9.5615   -5.4255   28.7162 H   0  0  0  0  0  0  0  0  0  0  0  0
    9.2365   -3.7494   28.2620 H   0  0  0  0  0  0  0  0  0  0  0  0
    6.8895   -3.0633   28.0551 H   0  0  0  0  0  0  0  0  0  0  0  0
    5.6514   -4.2861   28.3610 H   0  0  0  0  0  0  0  0  0  0  0  0
   10.4364    1.2691   24.0532 H   0  0  0  0  0  0  0  0  0  0  0  0
   11.0496    1.3814   22.4256 H   0  0  0  0  0  0  0  0  0  0  0  0
   10.5267   -0.9929   22.0072 H   0  0  0  0  0  0  0  0  0  0  0  0
    8.0815   -1.6117   21.0754 H   0  0  0  0  0  0  0  0  0  0  0  0
  1  2  1  0  0  0  0
  1  7  2  0  0  0  0
  2  8  2  0  0  0  0
  3  4  2  0  0  0  0
  3 11  1  0  0  0  0
  4 14  1  0  0  0  0
  5  9  2  0  0  0  0
  5 13  1  0  0  0  0
  6 10  1  0  0  0  0
  6 13  2  0  0  0  0
  7 15  1  0  0  0  0
  8 16  1  0  0  0  0
  9 17  1  0  0  0  0
 10 17  2  0  0  0  0
 11 18  2  0  0  0  0
 12 14  2  0  0  0  0
 12 18  1  0  0  0  0
 13 25  1  0  0  0  0
 14 24  1  0  0  0  0
 15 16  2  0  0  0  0
 15 26  1  0  0  0  0
 16 28  1  0  0  0  0
 17 29  1  0  0  0  0
 18 33  1  0  0  0  0
 19 25  1  1  0  0  0
 19 30  1  0  0  0  0
 19 31  2  0  0  0  0
 20 22  1  0  0  0  0
 20 29  1  0  0  0  0
 21 23  1  0  0  0  0
 21 29  1  0  0  0  0
 22 32  1  0  0  0  0
 23 32  1  0  0  0  0
 24 25  1  0  0  0  0
 26 27  2  0  0  0  0
 27 28  1  0  0  0  0
 28 30  1  0  0  0  0
  1 34  1  0  0  0  0
  2 35  1  0  0  0  0
  3 36  1  0  0  0  0
  4 37  1  0  0  0  0
  5 38  1  0  0  0  0
  6 39  1  0  0  0  0
  7 40  1  0  0  0  0
  8 41  1  0  0  0  0
  9 42  1  0  0  0  0
 10 43  1  0  0  0  0
 11 44  1  0  0  0  0
 12 45  1  0  0  0  0
 20 46  1  0  0  0  0
 20 47  1  0  0  0  0
 21 48  1  0  0  0  0
 21 49  1  0  0  0  0
 22 50  1  0  0  0  0
 22 51  1  0  0  0  0
 23 52  1  0  0  0  0
 23 53  1  0  0  0  0
 24 54  1  0  0  0  0
 24 55  1  0  0  0  0
 25 56  1  0  0  0  0
 30 57  1  0  0  0  0
M  END
> <clash_score>
0

> <docking_score>
-7.669610977172852

> <overlap_score>
0.9819604158401489

$$$$
BENZO_194_2
  -OEChem-08222022443D

 57 61  0     1  0  0  0  0  0999 V2000
    3.8860    2.1050   19.5250 C   0  0  0  0  0  0  0  0  0  0  0  0
    4.2460    1.7520   20.8250 C   0  0  0  0  0  0  0  0  0  0  0  0
   13.3570   -1.0972   21.0849 C   0  0  0  0  0  0  0  0  0  0  0  0
   12.1338   -0.5782   21.5090 C   0  0  0  0  0  0  0  0  0  0  0  0
    9.5890   -2.4950   23.2210 C   0  0  0  0  0  0  0  0  0  0  0  0
    8.2550   -1.0010   24.5520 C   0  0  0  0  0  0  0  0  0  0  0  0
    4.6610    1.7170   18.4380 C   0  0  0  0  0  0  0  0  0  0  0  0
    5.3890    1.0010   21.0690 C   0  0  0  0  0  0  0  0  0  0  0  0
    9.1890   -3.5540   24.0140 C   0  0  0  0  0  0  0  0  0  0  0  0
    7.8700   -2.0610   25.3550 C   0  0  0  0  0  0  0  0  0  0  0  0
   14.4934   -0.9420   21.8789 C   0  0  0  0  0  0  0  0  0  0  0  0
   13.1832    0.2514   23.5209 C   0  0  0  0  0  0  0  0  0  0  0  0
    9.1280   -1.2090   23.4870 C   0  0  0  0  0  0  0  0  0  0  0  0
   12.0469    0.0961   22.7270 C   0  0  0  0  0  0  0  0  0  0  0  0
    5.7970    0.9500   18.6730 C   0  0  0  0  0  0  0  0  0  0  0  0
    6.1460    0.6070   19.9750 C   0  0  0  0  0  0  0  0  0  0  0  0
    8.3450   -3.3440   25.0980 C   0  0  0  0  0  0  0  0  0  0  0  0
   14.4065   -0.2677   23.0968 C   0  0  0  0  0  0  0  0  0  0  0  0
    9.0430    0.2380   21.4940 C   0  0  0  0  0  0  0  0  0  0  0  0
    8.9526   -5.2008   26.6600 C   0  0  0  0  0  0  0  0  0  0  0  0
    6.6115   -4.5057   26.4392 C   0  0  0  0  0  0  0  0  0  0  0  0
    8.9053   -4.7827   28.1257 C   0  0  0  0  0  0  0  0  0  0  0  0
    6.6391   -4.1219   27.9194 C   0  0  0  0  0  0  0  0  0  0  0  0
   10.7220    0.6590   23.1850 C   0  0  0  0  0  0  0  0  0  0  0  0
    9.5820   -0.1080   22.7000 C   0  0  2  0  0  0  0  0  0  0  0  0
    6.7100    0.3850   17.8100 N   0  0  0  0  0  0  0  0  0  0  0  0
    7.5840   -0.2700   18.5160 N   0  0  0  0  0  0  0  0  0  0  0  0
    7.2710   -0.1460   19.8310 N   0  0  0  0  0  0  0  0  0  0  0  0
    7.9774   -4.4013   25.9152 N   0  0  0  0  0  0  0  0  0  0  0  0
    8.0950   -0.7700   20.8440 N   0  0  0  0  0  0  0  0  0  0  0  0
    9.2950    1.3000   20.9480 O   0  0  0  0  0  0  0  0  0  0  0  0
    7.5748   -4.9364   28.6347 O   0  0  0  0  0  0  0  0  0  0  0  0
   15.8091   -0.0755   24.0753 Cl  0  0  0  0  0  0  0  0  0  0  0  0
    2.9846    2.6932   19.3610 H   0  0  0  0  0  0  0  0  0  0  0  0
    3.6235    2.0692   21.6570 H   0  0  0  0  0  0  0  0  0  0  0  0
   13.4243   -1.6221   20.1364 H   0  0  0  0  0  0  0  0  0  0  0  0
   11.2535   -0.7038   20.8839 H   0  0  0  0  0  0  0  0  0  0  0  0
   10.2684   -2.6719   22.3867 H   0  0  0  0  0  0  0  0  0  0  0  0
    7.8717   -0.0016   24.7596 H   0  0  0  0  0  0  0  0  0  0  0  0
    4.3785    2.0113   17.4257 H   0  0  0  0  0  0  0  0  0  0  0  0
    5.6763    0.7332   22.0915 H   0  0  0  0  0  0  0  0  0  0  0  0
    9.5443   -4.5616   23.7817 H   0  0  0  0  0  0  0  0  0  0  0  0
    7.1921   -1.8821   26.1908 H   0  0  0  0  0  0  0  0  0  0  0  0
   15.4403   -1.3515   21.5355 H   0  0  0  0  0  0  0  0  0  0  0  0
   13.1102    0.7775   24.4699 H   0  0  0  0  0  0  0  0  0  0  0  0
    9.9614   -5.0503   26.2701 H   0  0  0  0  0  0  0  0  0  0  0  0
    8.6932   -6.2593   26.5731 H   0  0  0  0  0  0  0  0  0  0  0  0
    6.2625   -5.5339   26.3355 H   0  0  0  0  0  0  0  0  0  0  0  0
    5.9348   -3.8414   25.9036 H   0  0  0  0  0  0  0  0  0  0  0  0
    9.5615   -5.4255   28.7162 H   0  0  0  0  0  0  0  0  0  0  0  0
    9.2365   -3.7494   28.2620 H   0  0  0  0  0  0  0  0  0  0  0  0
    6.8895   -3.0633   28.0551 H   0  0  0  0  0  0  0  0  0  0  0  0
    5.6514   -4.2861   28.3610 H   0  0  0  0  0  0  0  0  0  0  0  0
   10.7288    0.6889   24.2835 H   0  0  0  0  0  0  0  0  0  0  0  0
   10.6393    1.7086   22.8728 H   0  0  0  0  0  0  0  0  0  0  0  0
    8.6955    0.7993   23.3793 H   0  0  0  0  0  0  0  0  0  0  0  0
    8.0815   -1.6117   21.0754 H   0  0  0  0  0  0  0  0  0  0  0  0
  1  2  1  0  0  0  0
  1  7  2  0  0  0  0
  2  8  2  0  0  0  0
  3  4  2  0  0  0  0
  3 11  1  0  0  0  0
  4 14  1  0  0  0  0
  5  9  2  0  0  0  0
  5 13  1  0  0  0  0
  6 10  1  0  0  0  0
  6 13  2  0  0  0  0
  7 15  1  0  0  0  0
  8 16  1  0  0  0  0
  9 17  1  0  0  0  0
 10 17  2  0  0  0  0
 11 18  2  0  0  0  0
 12 14  2  0  0  0  0
 12 18  1  0  0  0  0
 13 25  1  0  0  0  0
 14 24  1  0  0  0  0
 15 16  2  0  0  0  0
 15 26  1  0  0  0  0
 16 28  1  0  0  0  0
 17 29  1  0  0  0  0
 18 33  1  0  0  0  0
 19 25  1  6  0  0  0
 19 30  1  0  0  0  0
 19 31  2  0  0  0  0
 20 22  1  0  0  0  0
 20 29  1  0  0  0  0
 21 23  1  0  0  0  0
 21 29  1  0  0  0  0
 22 32  1  0  0  0  0
 23 32  1  0  0  0  0
 24 25  1  0  0  0  0
 26 27  2  0  0  0  0
 27 28  1  0  0  0  0
 28 30  1  0  0  0  0
  1 34  1  0  0  0  0
  2 35  1  0  0  0  0
  3 36  1  0  0  0  0
  4 37  1  0  0  0  0
  5 38  1  0  0  0  0
  6 39  1  0  0  0  0
  7 40  1  0  0  0  0
  8 41  1  0  0  0  0
  9 42  1  0  0  0  0
 10 43  1  0  0  0  0
 11 44  1  0  0  0  0
 12 45  1  0  0  0  0
 20 46  1  0  0  0  0
 20 47  1  0  0  0  0
 21 48  1  0  0  0  0
 21 49  1  0  0  0  0
 22 50  1  0  0  0  0
 22 51  1  0  0  0  0
 23 52  1  0  0  0  0
 23 53  1  0  0  0  0
 24 54  1  0  0  0  0
 24 55  1  0  0  0  0
 25 56  1  0  0  0  0
 30 57  1  0  0  0  0
M  END
> <clash_score>
1.4596595483058121

> <docking_score>
-7.273379325866699

> <overlap_score>
0.958263099193573

$$$$
BENZO_199_1
  -OEChem-08222022453D

 53 56  0     1  0  0  0  0  0999 V2000
    3.8860    2.1050   19.5250 C   0  0  0  0  0  0  0  0  0  0  0  0
    4.2460    1.7520   20.8250 C   0  0  0  0  0  0  0  0  0  0  0  0
    9.5890   -2.4950   23.2210 C   0  0  0  0  0  0  0  0  0  0  0  0
    8.2550   -1.0010   24.5520 C   0  0  0  0  0  0  0  0  0  0  0  0
    4.6610    1.7170   18.4380 C   0  0  0  0  0  0  0  0  0  0  0  0
    5.3890    1.0010   21.0690 C   0  0  0  0  0  0  0  0  0  0  0  0
    9.1890   -3.5540   24.0140 C   0  0  0  0  0  0  0  0  0  0  0  0
    7.8700   -2.0610   25.3550 C   0  0  0  0  0  0  0  0  0  0  0  0
   13.2896    0.1726   23.3952 C   0  0  0  0  0  0  0  0  0  0  0  0
   12.3237   -0.5728   21.5659 C   0  0  0  0  0  0  0  0  0  0  0  0
    7.5840   -0.2700   18.5160 C   0  0  0  0  0  0  0  0  0  0  0  0
    9.1280   -1.2090   23.4870 C   0  0  0  0  0  0  0  0  0  0  0  0
   12.0519    0.1077   22.7276 C   0  0  0  0  0  0  0  0  0  0  0  0
    5.7970    0.9500   18.6730 C   0  0  0  0  0  0  0  0  0  0  0  0
    6.1460    0.6070   19.9750 C   0  0  0  0  0  0  0  0  0  0  0  0
    8.3450   -3.3440   25.0980 C   0  0  0  0  0  0  0  0  0  0  0  0
    9.0430    0.2380   21.4940 C   0  0  0  0  0  0  0  0  0  0  0  0
   14.4085   -1.5736   20.6011 C   0  0  0  0  0  0  0  0  0  0  0  0
    7.2615   -5.5559   25.3795 C   0  0  0  0  0  0  0  0  0  0  0  0
    8.3042   -4.4055   27.3386 C   0  0  0  0  0  0  0  0  0  0  0  0
   10.7220    0.6590   23.1850 C   0  0  0  0  0  0  0  0  0  0  0  0
    9.5820   -0.1080   22.7000 C   0  0  1  0  0  0  0  0  0  0  0  0
   14.2744   -0.4196   22.7144 N   0  0  0  0  0  0  0  0  0  0  0  0
    6.7100    0.3850   17.8100 N   0  0  0  0  0  0  0  0  0  0  0  0
   13.6557   -0.8631   21.6068 N   0  0  0  0  0  0  0  0  0  0  0  0
    7.2710   -0.1460   19.8310 N   0  0  0  0  0  0  0  0  0  0  0  0
    8.0950   -0.7700   20.8440 N   0  0  0  0  0  0  0  0  0  0  0  0
    7.9717   -4.4175   25.9277 N   0  0  0  0  0  0  0  0  0  0  0  0
    9.2950    1.3000   20.9480 O   0  0  0  0  0  0  0  0  0  0  0  0
    2.9844    2.6927   19.3613 H   0  0  0  0  0  0  0  0  0  0  0  0
    3.6214    2.0680   21.6561 H   0  0  0  0  0  0  0  0  0  0  0  0
   10.2684   -2.6719   22.3867 H   0  0  0  0  0  0  0  0  0  0  0  0
    7.8717   -0.0016   24.7596 H   0  0  0  0  0  0  0  0  0  0  0  0
    4.3780    2.0103   17.4276 H   0  0  0  0  0  0  0  0  0  0  0  0
    5.6758    0.7336   22.0897 H   0  0  0  0  0  0  0  0  0  0  0  0
    9.5443   -4.5616   23.7817 H   0  0  0  0  0  0  0  0  0  0  0  0
    7.1921   -1.8821   26.1908 H   0  0  0  0  0  0  0  0  0  0  0  0
   13.5173    0.6253   24.3499 H   0  0  0  0  0  0  0  0  0  0  0  0
   11.6980   -0.8689   20.7348 H   0  0  0  0  0  0  0  0  0  0  0  0
    8.4213   -0.8245   18.1548 H   0  0  0  0  0  0  0  0  0  0  0  0
   14.7952   -0.8403   19.8885 H   0  0  0  0  0  0  0  0  0  0  0  0
   15.2310   -2.1150   21.0767 H   0  0  0  0  0  0  0  0  0  0  0  0
   13.7528   -2.2891   20.0972 H   0  0  0  0  0  0  0  0  0  0  0  0
    7.0604   -6.2833   26.1797 H   0  0  0  0  0  0  0  0  0  0  0  0
    6.3097   -5.2186   24.9432 H   0  0  0  0  0  0  0  0  0  0  0  0
    7.8751   -6.0296   24.5991 H   0  0  0  0  0  0  0  0  0  0  0  0
    7.9292   -5.3249   27.8120 H   0  0  0  0  0  0  0  0  0  0  0  0
    9.3964   -4.3513   27.4573 H   0  0  0  0  0  0  0  0  0  0  0  0
    7.8395   -3.5309   27.8172 H   0  0  0  0  0  0  0  0  0  0  0  0
   10.7195    0.6680   24.2839 H   0  0  0  0  0  0  0  0  0  0  0  0
   10.6395    1.7141   22.8921 H   0  0  0  0  0  0  0  0  0  0  0  0
    8.6943    0.7922   23.3819 H   0  0  0  0  0  0  0  0  0  0  0  0
    8.1074   -1.6160   21.1028 H   0  0  0  0  0  0  0  0  0  0  0  0
  1  2  1  0  0  0  0
  1  5  2  0  0  0  0
  2  6  2  0  0  0  0
  3  7  2  0  0  0  0
  3 12  1  0  0  0  0
  4  8  1  0  0  0  0
  4 12  2  0  0  0  0
  5 14  1  0  0  0  0
  6 15  1  0  0  0  0
  7 16  1  0  0  0  0
  8 16  2  0  0  0  0
  9 13  1  0  0  0  0
  9 23  2  0  0  0  0
 10 13  2  0  0  0  0
 10 25  1  0  0  0  0
 11 24  2  0  0  0  0
 11 26  1  0  0  0  0
 12 22  1  0  0  0  0
 13 21  1  0  0  0  0
 14 15  2  0  0  0  0
 14 24  1  0  0  0  0
 15 26  1  0  0  0  0
 16 28  1  0  0  0  0
 17 22  1  0  0  0  0
 17 27  1  0  0  0  0
 17 29  2  0  0  0  0
 18 25  1  0  0  0  0
 19 28  1  0  0  0  0
 20 28  1  0  0  0  0
 21 22  1  1  0  0  0
 23 25  1  0  0  0  0
 26 27  1  0  0  0  0
  1 30  1  0  0  0  0
  2 31  1  0  0  0  0
  3 32  1  0  0  0  0
  4 33  1  0  0  0  0
  5 34  1  0  0  0  0
  6 35  1  0  0  0  0
  7 36  1  0  0  0  0
  8 37  1  0  0  0  0
  9 38  1  0  0  0  0
 10 39  1  0  0  0  0
 11 40  1  0  0  0  0
 18 41  1  0  0  0  0
 18 42  1  0  0  0  0
 18 43  1  0  0  0  0
 19 44  1  0  0  0  0
 19 45  1  0  0  0  0
 19 46  1  0  0  0  0
 20 47  1  0  0  0  0
 20 48  1  0  0  0  0
 20 49  1  0  0  0  0
 21 50  1  0  0  0  0
 21 51  1  0  0  0  0
 22 52  1  0  0  0  0
 27 53  1  0  0  0  0
M  END
> <clash_score>
0

> <docking_score>
-8.694032669067383

> <overlap_score>
0.9078224301338196

$$$$
BENZO_199_2
  -OEChem-08222022453D

 53 56  0     1  0  0  0  0  0999 V2000
    3.8860    2.1050   19.5250 C   0  0  0  0  0  0  0  0  0  0  0  0
    4.2460    1.7520   20.8250 C   0  0  0  0  0  0  0  0  0  0  0  0
    9.5890   -2.4950   23.2210 C   0  0  0  0  0  0  0  0  0  0  0  0
    8.2550   -1.0010   24.5520 C   0  0  0  0  0  0  0  0  0  0  0  0
    4.6610    1.7170   18.4380 C   0  0  0  0  0  0  0  0  0  0  0  0
    5.3890    1.0010   21.0690 C   0  0  0  0  0  0  0  0  0  0  0  0
    9.1890   -3.5540   24.0140 C   0  0  0  0  0  0  0  0  0  0  0  0
    7.8700   -2.0610   25.3550 C   0  0  0  0  0  0  0  0  0  0  0  0
   12.1546   -0.7527   24.8667 C   0  0  0  0  0  0  0  0  0  0  0  0
   12.9364   -0.6310   22.8152 C   0  0  0  0  0  0  0  0  0  0  0  0
    7.5840   -0.2700   18.5160 C   0  0  0  0  0  0  0  0  0  0  0  0
    9.1280   -1.2090   23.4870 C   0  0  0  0  0  0  0  0  0  0  0  0
   11.8914   -0.2037   23.5974 C   0  0  0  0  0  0  0  0  0  0  0  0
    5.7970    0.9500   18.6730 C   0  0  0  0  0  0  0  0  0  0  0  0
    6.1460    0.6070   19.9750 C   0  0  0  0  0  0  0  0  0  0  0  0
    8.3450   -3.3440   25.0980 C   0  0  0  0  0  0  0  0  0  0  0  0
    9.0430    0.2380   21.4940 C   0  0  0  0  0  0  0  0  0  0  0  0
   14.9563   -2.0460   23.2586 C   0  0  0  0  0  0  0  0  0  0  0  0
    7.2615   -5.5559   25.3795 C   0  0  0  0  0  0  0  0  0  0  0  0
    8.3042   -4.4055   27.3386 C   0  0  0  0  0  0  0  0  0  0  0  0
   10.7220    0.6590   23.1850 C   0  0  0  0  0  0  0  0  0  0  0  0
    9.5820   -0.1080   22.7000 C   0  0  2  0  0  0  0  0  0  0  0  0
   13.2786   -1.4738   24.8937 N   0  0  0  0  0  0  0  0  0  0  0  0
    6.7100    0.3850   17.8100 N   0  0  0  0  0  0  0  0  0  0  0  0
   13.7309   -1.3809   23.6316 N   0  0  0  0  0  0  0  0  0  0  0  0
    7.2710   -0.1460   19.8310 N   0  0  0  0  0  0  0  0  0  0  0  0
    8.0950   -0.7700   20.8440 N   0  0  0  0  0  0  0  0  0  0  0  0
    7.9717   -4.4175   25.9277 N   0  0  0  0  0  0  0  0  0  0  0  0
    9.2950    1.3000   20.9480 O   0  0  0  0  0  0  0  0  0  0  0  0
    2.9844    2.6927   19.3613 H   0  0  0  0  0  0  0  0  0  0  0  0
    3.6214    2.0680   21.6561 H   0  0  0  0  0  0  0  0  0  0  0  0
   10.2684   -2.6719   22.3867 H   0  0  0  0  0  0  0  0  0  0  0  0
    7.8717   -0.0016   24.7596 H   0  0  0  0  0  0  0  0  0  0  0  0
    4.3780    2.0103   17.4276 H   0  0  0  0  0  0  0  0  0  0  0  0
    5.6758    0.7336   22.0897 H   0  0  0  0  0  0  0  0  0  0  0  0
    9.5443   -4.5616   23.7817 H   0  0  0  0  0  0  0  0  0  0  0  0
    7.1921   -1.8821   26.1908 H   0  0  0  0  0  0  0  0  0  0  0  0
   11.5753   -0.6595   25.7744 H   0  0  0  0  0  0  0  0  0  0  0  0
   13.1758   -0.4703   21.7727 H   0  0  0  0  0  0  0  0  0  0  0  0
    8.4213   -0.8245   18.1548 H   0  0  0  0  0  0  0  0  0  0  0  0
   15.7825   -1.3505   23.4278 H   0  0  0  0  0  0  0  0  0  0  0  0
   15.0826   -2.9452   23.8680 H   0  0  0  0  0  0  0  0  0  0  0  0
   14.9057   -2.3321   22.2043 H   0  0  0  0  0  0  0  0  0  0  0  0
    7.0604   -6.2833   26.1797 H   0  0  0  0  0  0  0  0  0  0  0  0
    6.3097   -5.2186   24.9432 H   0  0  0  0  0  0  0  0  0  0  0  0
    7.8751   -6.0296   24.5991 H   0  0  0  0  0  0  0  0  0  0  0  0
    7.9292   -5.3249   27.8120 H   0  0  0  0  0  0  0  0  0  0  0  0
    9.3964   -4.3513   27.4573 H   0  0  0  0  0  0  0  0  0  0  0  0
    7.8395   -3.5309   27.8172 H   0  0  0  0  0  0  0  0  0  0  0  0
   10.4198    1.2578   24.0555 H   0  0  0  0  0  0  0  0  0  0  0  0
   11.0503    1.3920   22.4361 H   0  0  0  0  0  0  0  0  0  0  0  0
   10.5231   -0.9933   22.0106 H   0  0  0  0  0  0  0  0  0  0  0  0
    8.1074   -1.6160   21.1028 H   0  0  0  0  0  0  0  0  0  0  0  0
  1  2  1  0  0  0  0
  1  5  2  0  0  0  0
  2  6  2  0  0  0  0
  3  7  2  0  0  0  0
  3 12  1  0  0  0  0
  4  8  1  0  0  0  0
  4 12  2  0  0  0  0
  5 14  1  0  0  0  0
  6 15  1  0  0  0  0
  7 16  1  0  0  0  0
  8 16  2  0  0  0  0
  9 13  1  0  0  0  0
  9 23  2  0  0  0  0
 10 13  2  0  0  0  0
 10 25  1  0  0  0  0
 11 24  2  0  0  0  0
 11 26  1  0  0  0  0
 12 22  1  0  0  0  0
 13 21  1  0  0  0  0
 14 15  2  0  0  0  0
 14 24  1  0  0  0  0
 15 26  1  0  0  0  0
 16 28  1  0  0  0  0
 17 22  1  0  0  0  0
 17 27  1  0  0  0  0
 17 29  2  0  0  0  0
 18 25  1  0  0  0  0
 19 28  1  0  0  0  0
 20 28  1  0  0  0  0
 21 22  1  6  0  0  0
 23 25  1  0  0  0  0
 26 27  1  0  0  0  0
  1 30  1  0  0  0  0
  2 31  1  0  0  0  0
  3 32  1  0  0  0  0
  4 33  1  0  0  0  0
  5 34  1  0  0  0  0
  6 35  1  0  0  0  0
  7 36  1  0  0  0  0
  8 37  1  0  0  0  0
  9 38  1  0  0  0  0
 10 39  1  0  0  0  0
 11 40  1  0  0  0  0
 18 41  1  0  0  0  0
 18 42  1  0  0  0  0
 18 43  1  0  0  0  0
 19 44  1  0  0  0  0
 19 45  1  0  0  0  0
 19 46  1  0  0  0  0
 20 47  1  0  0  0  0
 20 48  1  0  0  0  0
 20 49  1  0  0  0  0
 21 50  1  0  0  0  0
 21 51  1  0  0  0  0
 22 52  1  0  0  0  0
 27 53  1  0  0  0  0
M  END
> <clash_score>
0

> <docking_score>
-7.179258346557617

> <overlap_score>
0.9305068254470825

$$$$
BENZO_198_1
  -OEChem-08222022453D

 53 56  0     1  0  0  0  0  0999 V2000
    3.8860    2.1050   19.5250 C   0  0  0  0  0  0  0  0  0  0  0  0
    4.2460    1.7520   20.8250 C   0  0  0  0  0  0  0  0  0  0  0  0
   13.8446    0.0438   21.1092 C   0  0  0  0  0  0  0  0  0  0  0  0
   12.6160    0.5516   21.5316 C   0  0  0  0  0  0  0  0  0  0  0  0
    9.5890   -2.4950   23.2210 C   0  0  0  0  0  0  0  0  0  0  0  0
    8.2550   -1.0010   24.5520 C   0  0  0  0  0  0  0  0  0  0  0  0
    4.6610    1.7170   18.4380 C   0  0  0  0  0  0  0  0  0  0  0  0
    5.3890    1.0010   21.0690 C   0  0  0  0  0  0  0  0  0  0  0  0
    9.1890   -3.5540   24.0140 C   0  0  0  0  0  0  0  0  0  0  0  0
    7.8700   -2.0610   25.3550 C   0  0  0  0  0  0  0  0  0  0  0  0
   14.5090   -0.9080   21.8827 C   0  0  0  0  0  0  0  0  0  0  0  0
   12.7164   -0.8440   23.5012 C   0  0  0  0  0  0  0  0  0  0  0  0
    7.5840   -0.2700   18.5160 C   0  0  0  0  0  0  0  0  0  0  0  0
    9.1280   -1.2090   23.4870 C   0  0  0  0  0  0  0  0  0  0  0  0
   12.0519    0.1077   22.7276 C   0  0  0  0  0  0  0  0  0  0  0  0
    5.7970    0.9500   18.6730 C   0  0  0  0  0  0  0  0  0  0  0  0
    6.1460    0.6070   19.9750 C   0  0  0  0  0  0  0  0  0  0  0  0
    8.3450   -3.3440   25.0980 C   0  0  0  0  0  0  0  0  0  0  0  0
   13.9449   -1.3519   23.0787 C   0  0  0  0  0  0  0  0  0  0  0  0
    9.0430    0.2380   21.4940 C   0  0  0  0  0  0  0  0  0  0  0  0
    7.2615   -5.5559   25.3795 C   0  0  0  0  0  0  0  0  0  0  0  0
    8.3042   -4.4055   27.3386 C   0  0  0  0  0  0  0  0  0  0  0  0
   10.7220    0.6590   23.1850 C   0  0  0  0  0  0  0  0  0  0  0  0
    9.5820   -0.1080   22.7000 C   0  0  1  0  0  0  0  0  0  0  0  0
    6.7100    0.3850   17.8100 N   0  0  0  0  0  0  0  0  0  0  0  0
    7.2710   -0.1460   19.8310 N   0  0  0  0  0  0  0  0  0  0  0  0
    8.0950   -0.7700   20.8440 N   0  0  0  0  0  0  0  0  0  0  0  0
    7.9717   -4.4175   25.9277 N   0  0  0  0  0  0  0  0  0  0  0  0
    9.2950    1.3000   20.9480 O   0  0  0  0  0  0  0  0  0  0  0  0
   14.7657   -2.5253   24.0333 Cl  0  0  0  0  0  0  0  0  0  0  0  0
    2.9844    2.6927   19.3613 H   0  0  0  0  0  0  0  0  0  0  0  0
    3.6214    2.0680   21.6561 H   0  0  0  0  0  0  0  0  0  0  0  0
   14.2835    0.3898   20.1778 H   0  0  0  0  0  0  0  0  0  0  0  0
   12.1054    1.2930   20.9225 H   0  0  0  0  0  0  0  0  0  0  0  0
   10.2684   -2.6719   22.3867 H   0  0  0  0  0  0  0  0  0  0  0  0
    7.8717   -0.0016   24.7596 H   0  0  0  0  0  0  0  0  0  0  0  0
    4.3780    2.0103   17.4276 H   0  0  0  0  0  0  0  0  0  0  0  0
    5.6758    0.7336   22.0897 H   0  0  0  0  0  0  0  0  0  0  0  0
    9.5443   -4.5616   23.7817 H   0  0  0  0  0  0  0  0  0  0  0  0
    7.1921   -1.8821   26.1908 H   0  0  0  0  0  0  0  0  0  0  0  0
   15.4660   -1.2948   21.5412 H   0  0  0  0  0  0  0  0  0  0  0  0
   12.2722   -1.1873   24.4326 H   0  0  0  0  0  0  0  0  0  0  0  0
    8.4213   -0.8245   18.1548 H   0  0  0  0  0  0  0  0  0  0  0  0
    7.0604   -6.2833   26.1797 H   0  0  0  0  0  0  0  0  0  0  0  0
    6.3097   -5.2186   24.9432 H   0  0  0  0  0  0  0  0  0  0  0  0
    7.8751   -6.0296   24.5991 H   0  0  0  0  0  0  0  0  0  0  0  0
    7.9292   -5.3249   27.8120 H   0  0  0  0  0  0  0  0  0  0  0  0
    9.3964   -4.3513   27.4573 H   0  0  0  0  0  0  0  0  0  0  0  0
    7.8395   -3.5309   27.8172 H   0  0  0  0  0  0  0  0  0  0  0  0
   10.7195    0.6680   24.2839 H   0  0  0  0  0  0  0  0  0  0  0  0
   10.6395    1.7141   22.8921 H   0  0  0  0  0  0  0  0  0  0  0  0
    8.6943    0.7922   23.3819 H   0  0  0  0  0  0  0  0  0  0  0  0
    8.1074   -1.6160   21.1028 H   0  0  0  0  0  0  0  0  0  0  0  0
  1  2  1  0  0  0  0
  1  7  2  0  0  0  0
  2  8  2  0  0  0  0
  3  4  2  0  0  0  0
  3 11  1  0  0  0  0
  4 15  1  0  0  0  0
  5  9  2  0  0  0  0
  5 14  1  0  0  0  0
  6 10  1  0  0  0  0
  6 14  2  0  0  0  0
  7 16  1  0  0  0  0
  8 17  1  0  0  0  0
  9 18  1  0  0  0  0
 10 18  2  0  0  0  0
 11 19  2  0  0  0  0
 12 15  2  0  0  0  0
 12 19  1  0  0  0  0
 13 25  2  0  0  0  0
 13 26  1  0  0  0  0
 14 24  1  0  0  0  0
 15 23  1  0  0  0  0
 16 17  2  0  0  0  0
 16 25  1  0  0  0  0
 17 26  1  0  0  0  0
 18 28  1  0  0  0  0
 19 30  1  0  0  0  0
 20 24  1  0  0  0  0
 20 27  1  0  0  0  0
 20 29  2  0  0  0  0
 21 28  1  0  0  0  0
 22 28  1  0  0  0  0
 23 24  1  1  0  0  0
 26 27  1  0  0  0  0
  1 31  1  0  0  0  0
  2 32  1  0  0  0  0
  3 33  1  0  0  0  0
  4 34  1  0  0  0  0
  5 35  1  0  0  0  0
  6 36  1  0  0  0  0
  7 37  1  0  0  0  0
  8 38  1  0  0  0  0
  9 39  1  0  0  0  0
 10 40  1  0  0  0  0
 11 41  1  0  0  0  0
 12 42  1  0  0  0  0
 13 43  1  0  0  0  0
 21 44  1  0  0  0  0
 21 45  1  0  0  0  0
 21 46  1  0  0  0  0
 22 47  1  0  0  0  0
 22 48  1  0  0  0  0
 22 49  1  0  0  0  0
 23 50  1  0  0  0  0
 23 51  1  0  0  0  0
 24 52  1  0  0  0  0
 27 53  1  0  0  0  0
M  END
> <clash_score>
0

> <docking_score>
-6.635506629943848

> <overlap_score>
0.92209792137146

$$$$
BENZO_201_1
  -OEChem-08222022453D

 55 58  0     1  0  0  0  0  0999 V2000
   14.5078   -0.9101   21.8815 C   0  0  0  0  0  0  0  0  0  0  0  0
   13.9442   -1.3530   23.0780 C   0  0  0  0  0  0  0  0  0  0  0  0
   13.8435    0.0419   21.1080 C   0  0  0  0  0  0  0  0  0  0  0  0
    3.8860    2.1050   19.5250 C   0  0  0  0  0  0  0  0  0  0  0  0
    4.2460    1.7520   20.8250 C   0  0  0  0  0  0  0  0  0  0  0  0
   12.7163   -0.8442   23.5011 C   0  0  0  0  0  0  0  0  0  0  0  0
   12.6156    0.5507   21.5310 C   0  0  0  0  0  0  0  0  0  0  0  0
    9.5890   -2.4950   23.2210 C   0  0  0  0  0  0  0  0  0  0  0  0
    8.2550   -1.0010   24.5520 C   0  0  0  0  0  0  0  0  0  0  0  0
    4.6610    1.7170   18.4380 C   0  0  0  0  0  0  0  0  0  0  0  0
    5.3890    1.0010   21.0690 C   0  0  0  0  0  0  0  0  0  0  0  0
    9.1890   -3.5540   24.0140 C   0  0  0  0  0  0  0  0  0  0  0  0
    7.8700   -2.0610   25.3550 C   0  0  0  0  0  0  0  0  0  0  0  0
    7.5840   -0.2700   18.5160 C   0  0  0  0  0  0  0  0  0  0  0  0
   12.0519    0.1077   22.7276 C   0  0  0  0  0  0  0  0  0  0  0  0
    9.1280   -1.2090   23.4870 C   0  0  0  0  0  0  0  0  0  0  0  0
    5.7970    0.9500   18.6730 C   0  0  0  0  0  0  0  0  0  0  0  0
    6.1460    0.6070   19.9750 C   0  0  0  0  0  0  0  0  0  0  0  0
    8.3450   -3.3440   25.0980 C   0  0  0  0  0  0  0  0  0  0  0  0
    8.2024   -4.5567   27.2976 C   0  0  0  0  0  0  0  0  0  0  0  0
    9.0430    0.2380   21.4940 C   0  0  0  0  0  0  0  0  0  0  0  0
    7.8884   -6.0886   29.2877 C   0  0  0  0  0  0  0  0  0  0  0  0
   10.7220    0.6590   23.1850 C   0  0  0  0  0  0  0  0  0  0  0  0
    7.6340   -5.8731   27.8066 C   0  0  0  0  0  0  0  0  0  0  0  0
    9.5820   -0.1080   22.7000 C   0  0  1  0  0  0  0  0  0  0  0  0
    6.7100    0.3850   17.8100 N   0  0  0  0  0  0  0  0  0  0  0  0
    7.2710   -0.1460   19.8310 N   0  0  0  0  0  0  0  0  0  0  0  0
    7.9771   -4.4057   25.9197 N   0  0  0  0  0  0  0  0  0  0  0  0
    8.0950   -0.7700   20.8440 N   0  0  0  0  0  0  0  0  0  0  0  0
    8.7745   -3.7650   28.0394 O   0  0  0  0  0  0  0  0  0  0  0  0
    9.2950    1.3000   20.9480 O   0  0  0  0  0  0  0  0  0  0  0  0
   15.4645   -1.3054   21.5529 H   0  0  0  0  0  0  0  0  0  0  0  0
   14.4618   -2.0934   23.6809 H   0  0  0  0  0  0  0  0  0  0  0  0
   14.2825    0.3878   20.1769 H   0  0  0  0  0  0  0  0  0  0  0  0
    2.9844    2.6927   19.3613 H   0  0  0  0  0  0  0  0  0  0  0  0
    3.6214    2.0680   21.6561 H   0  0  0  0  0  0  0  0  0  0  0  0
   12.2846   -1.1954   24.4346 H   0  0  0  0  0  0  0  0  0  0  0  0
   12.1051    1.2920   20.9218 H   0  0  0  0  0  0  0  0  0  0  0  0
   10.2695   -2.6718   22.3873 H   0  0  0  0  0  0  0  0  0  0  0  0
    7.8712   -0.0014   24.7587 H   0  0  0  0  0  0  0  0  0  0  0  0
    4.3780    2.0103   17.4276 H   0  0  0  0  0  0  0  0  0  0  0  0
    5.6758    0.7336   22.0897 H   0  0  0  0  0  0  0  0  0  0  0  0
    9.5431   -4.5618   23.7801 H   0  0  0  0  0  0  0  0  0  0  0  0
    7.1923   -1.8823   26.1912 H   0  0  0  0  0  0  0  0  0  0  0  0
    8.4213   -0.8245   18.1548 H   0  0  0  0  0  0  0  0  0  0  0  0
    8.9611   -6.0840   29.5072 H   0  0  0  0  0  0  0  0  0  0  0  0
    7.4778   -7.0508   29.6088 H   0  0  0  0  0  0  0  0  0  0  0  0
    7.4200   -5.3000   29.8858 H   0  0  0  0  0  0  0  0  0  0  0  0
   10.7195    0.6680   24.2839 H   0  0  0  0  0  0  0  0  0  0  0  0
   10.6395    1.7141   22.8921 H   0  0  0  0  0  0  0  0  0  0  0  0
    6.5546   -5.8823   27.6161 H   0  0  0  0  0  0  0  0  0  0  0  0
    8.0868   -6.6914   27.2350 H   0  0  0  0  0  0  0  0  0  0  0  0
    8.6943    0.7922   23.3819 H   0  0  0  0  0  0  0  0  0  0  0  0
    7.4775   -5.1796   25.4663 H   0  0  0  0  0  0  0  0  0  0  0  0
    8.1074   -1.6160   21.1028 H   0  0  0  0  0  0  0  0  0  0  0  0
  1  2  1  0  0  0  0
  1  3  2  0  0  0  0
  2  6  2  0  0  0  0
  3  7  1  0  0  0  0
  4  5  1  0  0  0  0
  4 10  2  0  0  0  0
  5 11  2  0  0  0  0
  6 15  1  0  0  0  0
  7 15  2  0  0  0  0
  8 12  2  0  0  0  0
  8 16  1  0  0  0  0
  9 13  1  0  0  0  0
  9 16  2  0  0  0  0
 10 17  1  0  0  0  0
 11 18  1  0  0  0  0
 12 19  1  0  0  0  0
 13 19  2  0  0  0  0
 14 26  2  0  0  0  0
 14 27  1  0  0  0  0
 15 23  1  0  0  0  0
 16 25  1  0  0  0  0
 17 18  2  0  0  0  0
 17 26  1  0  0  0  0
 18 27  1  0  0  0  0
 19 28  1  0  0  0  0
 20 24  1  0  0  0  0
 20 28  1  0  0  0  0
 20 30  2  0  0  0  0
 21 25  1  0  0  0  0
 21 29  1  0  0  0  0
 21 31  2  0  0  0  0
 22 24  1  0  0  0  0
 23 25  1  1  0  0  0
 27 29  1  0  0  0  0
  1 32  1  0  0  0  0
  2 33  1  0  0  0  0
  3 34  1  0  0  0  0
  4 35  1  0  0  0  0
  5 36  1  0  0  0  0
  6 37  1  0  0  0  0
  7 38  1  0  0  0  0
  8 39  1  0  0  0  0
  9 40  1  0  0  0  0
 10 41  1  0  0  0  0
 11 42  1  0  0  0  0
 12 43  1  0  0  0  0
 13 44  1  0  0  0  0
 14 45  1  0  0  0  0
 22 46  1  0  0  0  0
 22 47  1  0  0  0  0
 22 48  1  0  0  0  0
 23 49  1  0  0  0  0
 23 50  1  0  0  0  0
 24 51  1  0  0  0  0
 24 52  1  0  0  0  0
 25 53  1  0  0  0  0
 28 54  1  0  0  0  0
 29 55  1  0  0  0  0
M  END
> <clash_score>
0

> <docking_score>
-7.491595268249512

> <overlap_score>
0.970455527305603

$$$$
BENZO_198_2
  -OEChem-08222022453D

 53 56  0     1  0  0  0  0  0999 V2000
    3.8860    2.1050   19.5250 C   0  0  0  0  0  0  0  0  0  0  0  0
    4.2460    1.7520   20.8250 C   0  0  0  0  0  0  0  0  0  0  0  0
   13.0699   -1.4582   25.2928 C   0  0  0  0  0  0  0  0  0  0  0  0
   11.9910   -0.6606   24.9116 C   0  0  0  0  0  0  0  0  0  0  0  0
    9.5890   -2.4950   23.2210 C   0  0  0  0  0  0  0  0  0  0  0  0
    8.2550   -1.0010   24.5520 C   0  0  0  0  0  0  0  0  0  0  0  0
    4.6610    1.7170   18.4380 C   0  0  0  0  0  0  0  0  0  0  0  0
    5.3890    1.0010   21.0690 C   0  0  0  0  0  0  0  0  0  0  0  0
    9.1890   -3.5540   24.0140 C   0  0  0  0  0  0  0  0  0  0  0  0
    7.8700   -2.0610   25.3550 C   0  0  0  0  0  0  0  0  0  0  0  0
   14.0494   -1.7989   24.3598 C   0  0  0  0  0  0  0  0  0  0  0  0
   12.8708   -0.5445   22.6644 C   0  0  0  0  0  0  0  0  0  0  0  0
    7.5840   -0.2700   18.5160 C   0  0  0  0  0  0  0  0  0  0  0  0
    9.1280   -1.2090   23.4870 C   0  0  0  0  0  0  0  0  0  0  0  0
   11.8914   -0.2037   23.5974 C   0  0  0  0  0  0  0  0  0  0  0  0
    5.7970    0.9500   18.6730 C   0  0  0  0  0  0  0  0  0  0  0  0
    6.1460    0.6070   19.9750 C   0  0  0  0  0  0  0  0  0  0  0  0
    8.3450   -3.3440   25.0980 C   0  0  0  0  0  0  0  0  0  0  0  0
   13.9498   -1.3420   23.0457 C   0  0  0  0  0  0  0  0  0  0  0  0
    9.0430    0.2380   21.4940 C   0  0  0  0  0  0  0  0  0  0  0  0
    7.2615   -5.5559   25.3795 C   0  0  0  0  0  0  0  0  0  0  0  0
    8.3042   -4.4055   27.3386 C   0  0  0  0  0  0  0  0  0  0  0  0
   10.7220    0.6590   23.1850 C   0  0  0  0  0  0  0  0  0  0  0  0
    9.5820   -0.1080   22.7000 C   0  0  2  0  0  0  0  0  0  0  0  0
    6.7100    0.3850   17.8100 N   0  0  0  0  0  0  0  0  0  0  0  0
    7.2710   -0.1460   19.8310 N   0  0  0  0  0  0  0  0  0  0  0  0
    8.0950   -0.7700   20.8440 N   0  0  0  0  0  0  0  0  0  0  0  0
    7.9717   -4.4175   25.9277 N   0  0  0  0  0  0  0  0  0  0  0  0
    9.2950    1.3000   20.9480 O   0  0  0  0  0  0  0  0  0  0  0  0
   15.1579   -1.7637   21.8948 Cl  0  0  0  0  0  0  0  0  0  0  0  0
    2.9844    2.6927   19.3613 H   0  0  0  0  0  0  0  0  0  0  0  0
    3.6214    2.0680   21.6561 H   0  0  0  0  0  0  0  0  0  0  0  0
   13.1470   -1.8139   26.3162 H   0  0  0  0  0  0  0  0  0  0  0  0
   11.2324   -0.4001   25.6451 H   0  0  0  0  0  0  0  0  0  0  0  0
   10.2684   -2.6719   22.3867 H   0  0  0  0  0  0  0  0  0  0  0  0
    7.8717   -0.0016   24.7596 H   0  0  0  0  0  0  0  0  0  0  0  0
    4.3780    2.0103   17.4276 H   0  0  0  0  0  0  0  0  0  0  0  0
    5.6758    0.7336   22.0897 H   0  0  0  0  0  0  0  0  0  0  0  0
    9.5443   -4.5616   23.7817 H   0  0  0  0  0  0  0  0  0  0  0  0
    7.1921   -1.8821   26.1908 H   0  0  0  0  0  0  0  0  0  0  0  0
   14.8846   -2.4215   24.6710 H   0  0  0  0  0  0  0  0  0  0  0  0
   12.7889   -0.1853   21.6412 H   0  0  0  0  0  0  0  0  0  0  0  0
    8.4213   -0.8245   18.1548 H   0  0  0  0  0  0  0  0  0  0  0  0
    7.0604   -6.2833   26.1797 H   0  0  0  0  0  0  0  0  0  0  0  0
    6.3097   -5.2186   24.9432 H   0  0  0  0  0  0  0  0  0  0  0  0
    7.8751   -6.0296   24.5991 H   0  0  0  0  0  0  0  0  0  0  0  0
    7.9292   -5.3249   27.8120 H   0  0  0  0  0  0  0  0  0  0  0  0
    9.3964   -4.3513   27.4573 H   0  0  0  0  0  0  0  0  0  0  0  0
    7.8395   -3.5309   27.8172 H   0  0  0  0  0  0  0  0  0  0  0  0
   10.4198    1.2578   24.0555 H   0  0  0  0  0  0  0  0  0  0  0  0
   11.0503    1.3920   22.4361 H   0  0  0  0  0  0  0  0  0  0  0  0
   10.5231   -0.9933   22.0106 H   0  0  0  0  0  0  0  0  0  0  0  0
    8.1074   -1.6160   21.1028 H   0  0  0  0  0  0  0  0  0  0  0  0
  1  2  1  0  0  0  0
  1  7  2  0  0  0  0
  2  8  2  0  0  0  0
  3  4  2  0  0  0  0
  3 11  1  0  0  0  0
  4 15  1  0  0  0  0
  5  9  2  0  0  0  0
  5 14  1  0  0  0  0
  6 10  1  0  0  0  0
  6 14  2  0  0  0  0
  7 16  1  0  0  0  0
  8 17  1  0  0  0  0
  9 18  1  0  0  0  0
 10 18  2  0  0  0  0
 11 19  2  0  0  0  0
 12 15  2  0  0  0  0
 12 19  1  0  0  0  0
 13 25  2  0  0  0  0
 13 26  1  0  0  0  0
 14 24  1  0  0  0  0
 15 23  1  0  0  0  0
 16 17  2  0  0  0  0
 16 25  1  0  0  0  0
 17 26  1  0  0  0  0
 18 28  1  0  0  0  0
 19 30  1  0  0  0  0
 20 24  1  0  0  0  0
 20 27  1  0  0  0  0
 20 29  2  0  0  0  0
 21 28  1  0  0  0  0
 22 28  1  0  0  0  0
 23 24  1  6  0  0  0
 26 27  1  0  0  0  0
  1 31  1  0  0  0  0
  2 32  1  0  0  0  0
  3 33  1  0  0  0  0
  4 34  1  0  0  0  0
  5 35  1  0  0  0  0
  6 36  1  0  0  0  0
  7 37  1  0  0  0  0
  8 38  1  0  0  0  0
  9 39  1  0  0  0  0
 10 40  1  0  0  0  0
 11 41  1  0  0  0  0
 12 42  1  0  0  0  0
 13 43  1  0  0  0  0
 21 44  1  0  0  0  0
 21 45  1  0  0  0  0
 21 46  1  0  0  0  0
 22 47  1  0  0  0  0
 22 48  1  0  0  0  0
 22 49  1  0  0  0  0
 23 50  1  0  0  0  0
 23 51  1  0  0  0  0
 24 52  1  0  0  0  0
 27 53  1  0  0  0  0
M  END
> <clash_score>
0

> <docking_score>
-7.252200126647949

> <overlap_score>
0.9345613718032837

$$$$
BENZO_201_2
  -OEChem-08222022453D

 55 58  0     1  0  0  0  0  0999 V2000
   14.0513   -1.7974   24.3577 C   0  0  0  0  0  0  0  0  0  0  0  0
   13.0726   -1.4574   25.2916 C   0  0  0  0  0  0  0  0  0  0  0  0
   13.9501   -1.3405   23.0436 C   0  0  0  0  0  0  0  0  0  0  0  0
    3.8860    2.1050   19.5250 C   0  0  0  0  0  0  0  0  0  0  0  0
    4.2460    1.7520   20.8250 C   0  0  0  0  0  0  0  0  0  0  0  0
   11.9927   -0.6606   24.9115 C   0  0  0  0  0  0  0  0  0  0  0  0
   12.8701   -0.5437   22.6635 C   0  0  0  0  0  0  0  0  0  0  0  0
    9.5890   -2.4950   23.2210 C   0  0  0  0  0  0  0  0  0  0  0  0
    8.2550   -1.0010   24.5520 C   0  0  0  0  0  0  0  0  0  0  0  0
    4.6610    1.7170   18.4380 C   0  0  0  0  0  0  0  0  0  0  0  0
    5.3890    1.0010   21.0690 C   0  0  0  0  0  0  0  0  0  0  0  0
    9.1890   -3.5540   24.0140 C   0  0  0  0  0  0  0  0  0  0  0  0
    7.8700   -2.0610   25.3550 C   0  0  0  0  0  0  0  0  0  0  0  0
    7.5840   -0.2700   18.5160 C   0  0  0  0  0  0  0  0  0  0  0  0
   11.8914   -0.2037   23.5974 C   0  0  0  0  0  0  0  0  0  0  0  0
    9.1280   -1.2090   23.4870 C   0  0  0  0  0  0  0  0  0  0  0  0
    5.7970    0.9500   18.6730 C   0  0  0  0  0  0  0  0  0  0  0  0
    6.1460    0.6070   19.9750 C   0  0  0  0  0  0  0  0  0  0  0  0
    8.3450   -3.3440   25.0980 C   0  0  0  0  0  0  0  0  0  0  0  0
    7.6605   -4.3767   27.2875 C   0  0  0  0  0  0  0  0  0  0  0  0
    9.0430    0.2380   21.4940 C   0  0  0  0  0  0  0  0  0  0  0  0
    8.4365   -6.7653   27.6013 C   0  0  0  0  0  0  0  0  0  0  0  0
   10.7220    0.6590   23.1850 C   0  0  0  0  0  0  0  0  0  0  0  0
    7.3112   -5.7658   27.8006 C   0  0  0  0  0  0  0  0  0  0  0  0
    9.5820   -0.1080   22.7000 C   0  0  2  0  0  0  0  0  0  0  0  0
    6.7100    0.3850   17.8100 N   0  0  0  0  0  0  0  0  0  0  0  0
    7.2710   -0.1460   19.8310 N   0  0  0  0  0  0  0  0  0  0  0  0
    7.9771   -4.4057   25.9197 N   0  0  0  0  0  0  0  0  0  0  0  0
    8.0950   -0.7700   20.8440 N   0  0  0  0  0  0  0  0  0  0  0  0
    7.6507   -3.3918   28.0185 O   0  0  0  0  0  0  0  0  0  0  0  0
    9.2950    1.3000   20.9480 O   0  0  0  0  0  0  0  0  0  0  0  0
   14.8928   -2.4167   24.6542 H   0  0  0  0  0  0  0  0  0  0  0  0
   13.1518   -1.8121   26.3151 H   0  0  0  0  0  0  0  0  0  0  0  0
   14.7124   -1.6041   22.3165 H   0  0  0  0  0  0  0  0  0  0  0  0
    2.9844    2.6927   19.3613 H   0  0  0  0  0  0  0  0  0  0  0  0
    3.6214    2.0680   21.6561 H   0  0  0  0  0  0  0  0  0  0  0  0
   11.2348   -0.4008   25.6459 H   0  0  0  0  0  0  0  0  0  0  0  0
   12.7995   -0.1925   21.6375 H   0  0  0  0  0  0  0  0  0  0  0  0
   10.2695   -2.6718   22.3873 H   0  0  0  0  0  0  0  0  0  0  0  0
    7.8712   -0.0014   24.7587 H   0  0  0  0  0  0  0  0  0  0  0  0
    4.3780    2.0103   17.4276 H   0  0  0  0  0  0  0  0  0  0  0  0
    5.6758    0.7336   22.0897 H   0  0  0  0  0  0  0  0  0  0  0  0
    9.5431   -4.5618   23.7801 H   0  0  0  0  0  0  0  0  0  0  0  0
    7.1923   -1.8823   26.1912 H   0  0  0  0  0  0  0  0  0  0  0  0
    8.4213   -0.8245   18.1548 H   0  0  0  0  0  0  0  0  0  0  0  0
    8.6961   -6.8591   26.5417 H   0  0  0  0  0  0  0  0  0  0  0  0
    8.1392   -7.7521   27.9692 H   0  0  0  0  0  0  0  0  0  0  0  0
    9.3373   -6.4559   28.1415 H   0  0  0  0  0  0  0  0  0  0  0  0
   10.4198    1.2578   24.0555 H   0  0  0  0  0  0  0  0  0  0  0  0
   11.0503    1.3920   22.4361 H   0  0  0  0  0  0  0  0  0  0  0  0
    7.0726   -5.6922   28.8679 H   0  0  0  0  0  0  0  0  0  0  0  0
    6.4147   -6.1151   27.2755 H   0  0  0  0  0  0  0  0  0  0  0  0
   10.5231   -0.9933   22.0106 H   0  0  0  0  0  0  0  0  0  0  0  0
    7.9296   -5.3297   25.4748 H   0  0  0  0  0  0  0  0  0  0  0  0
    8.1074   -1.6160   21.1028 H   0  0  0  0  0  0  0  0  0  0  0  0
  1  2  1  0  0  0  0
  1  3  2  0  0  0  0
  2  6  2  0  0  0  0
  3  7  1  0  0  0  0
  4  5  1  0  0  0  0
  4 10  2  0  0  0  0
  5 11  2  0  0  0  0
  6 15  1  0  0  0  0
  7 15  2  0  0  0  0
  8 12  2  0  0  0  0
  8 16  1  0  0  0  0
  9 13  1  0  0  0  0
  9 16  2  0  0  0  0
 10 17  1  0  0  0  0
 11 18  1  0  0  0  0
 12 19  1  0  0  0  0
 13 19  2  0  0  0  0
 14 26  2  0  0  0  0
 14 27  1  0  0  0  0
 15 23  1  0  0  0  0
 16 25  1  0  0  0  0
 17 18  2  0  0  0  0
 17 26  1  0  0  0  0
 18 27  1  0  0  0  0
 19 28  1  0  0  0  0
 20 24  1  0  0  0  0
 20 28  1  0  0  0  0
 20 30  2  0  0  0  0
 21 25  1  0  0  0  0
 21 29  1  0  0  0  0
 21 31  2  0  0  0  0
 22 24  1  0  0  0  0
 23 25  1  6  0  0  0
 27 29  1  0  0  0  0
  1 32  1  0  0  0  0
  2 33  1  0  0  0  0
  3 34  1  0  0  0  0
  4 35  1  0  0  0  0
  5 36  1  0  0  0  0
  6 37  1  0  0  0  0
  7 38  1  0  0  0  0
  8 39  1  0  0  0  0
  9 40  1  0  0  0  0
 10 41  1  0  0  0  0
 11 42  1  0  0  0  0
 12 43  1  0  0  0  0
 13 44  1  0  0  0  0
 14 45  1  0  0  0  0
 22 46  1  0  0  0  0
 22 47  1  0  0  0  0
 22 48  1  0  0  0  0
 23 49  1  0  0  0  0
 23 50  1  0  0  0  0
 24 51  1  0  0  0  0
 24 52  1  0  0  0  0
 25 53  1  0  0  0  0
 28 54  1  0  0  0  0
 29 55  1  0  0  0  0
M  END
> <clash_score>
0

> <docking_score>
-7.895642280578613

> <overlap_score>
0.9679313898086548

$$$$
BENZO_200_1
  -OEChem-08222022453D

 52 55  0     1  0  0  0  0  0999 V2000
    3.8860    2.1050   19.5250 C   0  0  0  0  0  0  0  0  0  0  0  0
    4.2460    1.7520   20.8250 C   0  0  0  0  0  0  0  0  0  0  0  0
    9.5890   -2.4950   23.2210 C   0  0  0  0  0  0  0  0  0  0  0  0
    8.2550   -1.0010   24.5520 C   0  0  0  0  0  0  0  0  0  0  0  0
    4.6610    1.7170   18.4380 C   0  0  0  0  0  0  0  0  0  0  0  0
    5.3890    1.0010   21.0690 C   0  0  0  0  0  0  0  0  0  0  0  0
    9.1890   -3.5540   24.0140 C   0  0  0  0  0  0  0  0  0  0  0  0
    7.8700   -2.0610   25.3550 C   0  0  0  0  0  0  0  0  0  0  0  0
   13.0855   -0.3117   23.6141 C   0  0  0  0  0  0  0  0  0  0  0  0
   14.1930   -0.7722   22.9367 C   0  0  0  0  0  0  0  0  0  0  0  0
   12.4091   -0.0480   21.4061 C   0  0  0  0  0  0  0  0  0  0  0  0
    7.5840   -0.2700   18.5160 C   0  0  0  0  0  0  0  0  0  0  0  0
    9.1280   -1.2090   23.4870 C   0  0  0  0  0  0  0  0  0  0  0  0
   12.0519    0.1077   22.7276 C   0  0  0  0  0  0  0  0  0  0  0  0
    5.7970    0.9500   18.6730 C   0  0  0  0  0  0  0  0  0  0  0  0
    6.1460    0.6070   19.9750 C   0  0  0  0  0  0  0  0  0  0  0  0
    8.3450   -3.3440   25.0980 C   0  0  0  0  0  0  0  0  0  0  0  0
    8.2024   -4.5567   27.2976 C   0  0  0  0  0  0  0  0  0  0  0  0
    9.0430    0.2380   21.4940 C   0  0  0  0  0  0  0  0  0  0  0  0
    7.8884   -6.0886   29.2877 C   0  0  0  0  0  0  0  0  0  0  0  0
   10.7220    0.6590   23.1850 C   0  0  0  0  0  0  0  0  0  0  0  0
    7.6340   -5.8731   27.8066 C   0  0  0  0  0  0  0  0  0  0  0  0
    9.5820   -0.1080   22.7000 C   0  0  1  0  0  0  0  0  0  0  0  0
    6.7100    0.3850   17.8100 N   0  0  0  0  0  0  0  0  0  0  0  0
    7.2710   -0.1460   19.8310 N   0  0  0  0  0  0  0  0  0  0  0  0
    7.9771   -4.4057   25.9197 N   0  0  0  0  0  0  0  0  0  0  0  0
    8.0950   -0.7700   20.8440 N   0  0  0  0  0  0  0  0  0  0  0  0
    8.7745   -3.7650   28.0394 O   0  0  0  0  0  0  0  0  0  0  0  0
    9.2950    1.3000   20.9480 O   0  0  0  0  0  0  0  0  0  0  0  0
   13.9845   -0.6978   21.2387 S   0  0  0  0  0  0  0  0  0  0  0  0
    2.9844    2.6927   19.3613 H   0  0  0  0  0  0  0  0  0  0  0  0
    3.6214    2.0680   21.6561 H   0  0  0  0  0  0  0  0  0  0  0  0
   10.2695   -2.6718   22.3873 H   0  0  0  0  0  0  0  0  0  0  0  0
    7.8712   -0.0014   24.7587 H   0  0  0  0  0  0  0  0  0  0  0  0
    4.3780    2.0103   17.4276 H   0  0  0  0  0  0  0  0  0  0  0  0
    5.6758    0.7336   22.0897 H   0  0  0  0  0  0  0  0  0  0  0  0
    9.5431   -4.5618   23.7801 H   0  0  0  0  0  0  0  0  0  0  0  0
    7.1923   -1.8823   26.1912 H   0  0  0  0  0  0  0  0  0  0  0  0
   13.0241   -0.2787   24.6946 H   0  0  0  0  0  0  0  0  0  0  0  0
   15.1149   -1.1481   23.3576 H   0  0  0  0  0  0  0  0  0  0  0  0
   11.8238    0.1885   20.5283 H   0  0  0  0  0  0  0  0  0  0  0  0
    8.4213   -0.8245   18.1548 H   0  0  0  0  0  0  0  0  0  0  0  0
    8.9611   -6.0840   29.5072 H   0  0  0  0  0  0  0  0  0  0  0  0
    7.4778   -7.0508   29.6088 H   0  0  0  0  0  0  0  0  0  0  0  0
    7.4200   -5.3000   29.8858 H   0  0  0  0  0  0  0  0  0  0  0  0
   10.7195    0.6680   24.2839 H   0  0  0  0  0  0  0  0  0  0  0  0
   10.6395    1.7141   22.8921 H   0  0  0  0  0  0  0  0  0  0  0  0
    6.5546   -5.8823   27.6161 H   0  0  0  0  0  0  0  0  0  0  0  0
    8.0868   -6.6914   27.2350 H   0  0  0  0  0  0  0  0  0  0  0  0
    8.6943    0.7922   23.3819 H   0  0  0  0  0  0  0  0  0  0  0  0
    7.4775   -5.1796   25.4663 H   0  0  0  0  0  0  0  0  0  0  0  0
    8.1074   -1.6160   21.1028 H   0  0  0  0  0  0  0  0  0  0  0  0
  1  2  1  0  0  0  0
  1  5  2  0  0  0  0
  2  6  2  0  0  0  0
  3  7  2  0  0  0  0
  3 13  1  0  0  0  0
  4  8  1  0  0  0  0
  4 13  2  0  0  0  0
  5 15  1  0  0  0  0
  6 16  1  0  0  0  0
  7 17  1  0  0  0  0
  8 17  2  0  0  0  0
  9 10  2  0  0  0  0
  9 14  1  0  0  0  0
 10 30  1  0  0  0  0
 11 14  2  0  0  0  0
 11 30  1  0  0  0  0
 12 24  2  0  0  0  0
 12 25  1  0  0  0  0
 13 23  1  0  0  0  0
 14 21  1  0  0  0  0
 15 16  2  0  0  0  0
 15 24  1  0  0  0  0
 16 25  1  0  0  0  0
 17 26  1  0  0  0  0
 18 22  1  0  0  0  0
 18 26  1  0  0  0  0
 18 28  2  0  0  0  0
 19 23  1  0  0  0  0
 19 27  1  0  0  0  0
 19 29  2  0  0  0  0
 20 22  1  0  0  0  0
 21 23  1  1  0  0  0
 25 27  1  0  0  0  0
  1 31  1  0  0  0  0
  2 32  1  0  0  0  0
  3 33  1  0  0  0  0
  4 34  1  0  0  0  0
  5 35  1  0  0  0  0
  6 36  1  0  0  0  0
  7 37  1  0  0  0  0
  8 38  1  0  0  0  0
  9 39  1  0  0  0  0
 10 40  1  0  0  0  0
 11 41  1  0  0  0  0
 12 42  1  0  0  0  0
 20 43  1  0  0  0  0
 20 44  1  0  0  0  0
 20 45  1  0  0  0  0
 21 46  1  0  0  0  0
 21 47  1  0  0  0  0
 22 48  1  0  0  0  0
 22 49  1  0  0  0  0
 23 50  1  0  0  0  0
 26 51  1  0  0  0  0
 27 52  1  0  0  0  0
M  END
> <clash_score>
0

> <docking_score>
-7.556562423706055

> <overlap_score>
0.9610078930854797

$$$$
BENZO_200_2
  -OEChem-08222022453D

 52 55  0     1  0  0  0  0  0999 V2000
    3.8860    2.1050   19.5250 C   0  0  0  0  0  0  0  0  0  0  0  0
    4.2460    1.7520   20.8250 C   0  0  0  0  0  0  0  0  0  0  0  0
    9.5890   -2.4950   23.2210 C   0  0  0  0  0  0  0  0  0  0  0  0
    8.2550   -1.0010   24.5520 C   0  0  0  0  0  0  0  0  0  0  0  0
    4.6610    1.7170   18.4380 C   0  0  0  0  0  0  0  0  0  0  0  0
    5.3890    1.0010   21.0690 C   0  0  0  0  0  0  0  0  0  0  0  0
    9.1890   -3.5540   24.0140 C   0  0  0  0  0  0  0  0  0  0  0  0
    7.8700   -2.0610   25.3550 C   0  0  0  0  0  0  0  0  0  0  0  0
   12.5521   -1.1164   22.7252 C   0  0  0  0  0  0  0  0  0  0  0  0
   13.5845   -1.7774   23.3535 C   0  0  0  0  0  0  0  0  0  0  0  0
   12.4440   -0.2022   24.8594 C   0  0  0  0  0  0  0  0  0  0  0  0
    7.5840   -0.2700   18.5160 C   0  0  0  0  0  0  0  0  0  0  0  0
    9.1280   -1.2090   23.4870 C   0  0  0  0  0  0  0  0  0  0  0  0
   11.8914   -0.2037   23.5974 C   0  0  0  0  0  0  0  0  0  0  0  0
    5.7970    0.9500   18.6730 C   0  0  0  0  0  0  0  0  0  0  0  0
    6.1460    0.6070   19.9750 C   0  0  0  0  0  0  0  0  0  0  0  0
    8.3450   -3.3440   25.0980 C   0  0  0  0  0  0  0  0  0  0  0  0
    7.1420   -4.3821   27.0485 C   0  0  0  0  0  0  0  0  0  0  0  0
    9.0430    0.2380   21.4940 C   0  0  0  0  0  0  0  0  0  0  0  0
    5.6767   -5.9657   28.3717 C   0  0  0  0  0  0  0  0  0  0  0  0
   10.7220    0.6590   23.1850 C   0  0  0  0  0  0  0  0  0  0  0  0
    7.0023   -5.7690   27.6582 C   0  0  0  0  0  0  0  0  0  0  0  0
    9.5820   -0.1080   22.7000 C   0  0  2  0  0  0  0  0  0  0  0  0
    6.7100    0.3850   17.8100 N   0  0  0  0  0  0  0  0  0  0  0  0
    7.2710   -0.1460   19.8310 N   0  0  0  0  0  0  0  0  0  0  0  0
    7.9771   -4.4057   25.9197 N   0  0  0  0  0  0  0  0  0  0  0  0
    8.0950   -0.7700   20.8440 N   0  0  0  0  0  0  0  0  0  0  0  0
    6.5752   -3.4030   27.5225 O   0  0  0  0  0  0  0  0  0  0  0  0
    9.2950    1.3000   20.9480 O   0  0  0  0  0  0  0  0  0  0  0  0
   13.7539   -1.2974   24.9886 S   0  0  0  0  0  0  0  0  0  0  0  0
    2.9844    2.6927   19.3613 H   0  0  0  0  0  0  0  0  0  0  0  0
    3.6214    2.0680   21.6561 H   0  0  0  0  0  0  0  0  0  0  0  0
   10.2695   -2.6718   22.3873 H   0  0  0  0  0  0  0  0  0  0  0  0
    7.8712   -0.0014   24.7587 H   0  0  0  0  0  0  0  0  0  0  0  0
    4.3780    2.0103   17.4276 H   0  0  0  0  0  0  0  0  0  0  0  0
    5.6758    0.7336   22.0897 H   0  0  0  0  0  0  0  0  0  0  0  0
    9.5431   -4.5618   23.7801 H   0  0  0  0  0  0  0  0  0  0  0  0
    7.1923   -1.8823   26.1912 H   0  0  0  0  0  0  0  0  0  0  0  0
   12.2866   -1.2830   21.6889 H   0  0  0  0  0  0  0  0  0  0  0  0
   14.2469   -2.5196   22.9310 H   0  0  0  0  0  0  0  0  0  0  0  0
   12.1435    0.3871   25.7147 H   0  0  0  0  0  0  0  0  0  0  0  0
    8.4213   -0.8245   18.1548 H   0  0  0  0  0  0  0  0  0  0  0  0
    5.5519   -5.2353   29.1779 H   0  0  0  0  0  0  0  0  0  0  0  0
    5.6235   -6.9682   28.8073 H   0  0  0  0  0  0  0  0  0  0  0  0
    4.8364   -5.8484   27.6795 H   0  0  0  0  0  0  0  0  0  0  0  0
   10.4198    1.2578   24.0555 H   0  0  0  0  0  0  0  0  0  0  0  0
   11.0503    1.3920   22.4361 H   0  0  0  0  0  0  0  0  0  0  0  0
    7.1003   -6.5118   26.8581 H   0  0  0  0  0  0  0  0  0  0  0  0
    7.8249   -5.9219   28.3662 H   0  0  0  0  0  0  0  0  0  0  0  0
   10.5231   -0.9933   22.0106 H   0  0  0  0  0  0  0  0  0  0  0  0
    8.3623   -5.3252   25.6743 H   0  0  0  0  0  0  0  0  0  0  0  0
    8.1074   -1.6160   21.1028 H   0  0  0  0  0  0  0  0  0  0  0  0
  1  2  1  0  0  0  0
  1  5  2  0  0  0  0
  2  6  2  0  0  0  0
  3  7  2  0  0  0  0
  3 13  1  0  0  0  0
  4  8  1  0  0  0  0
  4 13  2  0  0  0  0
  5 15  1  0  0  0  0
  6 16  1  0  0  0  0
  7 17  1  0  0  0  0
  8 17  2  0  0  0  0
  9 10  2  0  0  0  0
  9 14  1  0  0  0  0
 10 30  1  0  0  0  0
 11 14  2  0  0  0  0
 11 30  1  0  0  0  0
 12 24  2  0  0  0  0
 12 25  1  0  0  0  0
 13 23  1  0  0  0  0
 14 21  1  0  0  0  0
 15 16  2  0  0  0  0
 15 24  1  0  0  0  0
 16 25  1  0  0  0  0
 17 26  1  0  0  0  0
 18 22  1  0  0  0  0
 18 26  1  0  0  0  0
 18 28  2  0  0  0  0
 19 23  1  0  0  0  0
 19 27  1  0  0  0  0
 19 29  2  0  0  0  0
 20 22  1  0  0  0  0
 21 23  1  6  0  0  0
 25 27  1  0  0  0  0
  1 31  1  0  0  0  0
  2 32  1  0  0  0  0
  3 33  1  0  0  0  0
  4 34  1  0  0  0  0
  5 35  1  0  0  0  0
  6 36  1  0  0  0  0
  7 37  1  0  0  0  0
  8 38  1  0  0  0  0
  9 39  1  0  0  0  0
 10 40  1  0  0  0  0
 11 41  1  0  0  0  0
 12 42  1  0  0  0  0
 20 43  1  0  0  0  0
 20 44  1  0  0  0  0
 20 45  1  0  0  0  0
 21 46  1  0  0  0  0
 21 47  1  0  0  0  0
 22 48  1  0  0  0  0
 22 49  1  0  0  0  0
 23 50  1  0  0  0  0
 26 51  1  0  0  0  0
 27 52  1  0  0  0  0
M  END
> <clash_score>
0

> <docking_score>
-7.696802139282227

> <overlap_score>
0.9328876733779907

$$$$
BENZO_204_1
  -OEChem-08222022453D

 57 61  0     1  0  0  0  0  0999 V2000
    3.8860    2.1050   19.5250 C   0  0  0  0  0  0  0  0  0  0  0  0
    4.2460    1.7520   20.8250 C   0  0  0  0  0  0  0  0  0  0  0  0
    9.5890   -2.4950   23.2210 C   0  0  0  0  0  0  0  0  0  0  0  0
    8.2550   -1.0010   24.5520 C   0  0  0  0  0  0  0  0  0  0  0  0
    4.6610    1.7170   18.4380 C   0  0  0  0  0  0  0  0  0  0  0  0
    5.3890    1.0010   21.0690 C   0  0  0  0  0  0  0  0  0  0  0  0
    9.1890   -3.5540   24.0140 C   0  0  0  0  0  0  0  0  0  0  0  0
    7.8700   -2.0610   25.3550 C   0  0  0  0  0  0  0  0  0  0  0  0
   12.5272   -1.1406   22.7211 C   0  0  0  0  0  0  0  0  0  0  0  0
   13.5595   -1.8071   23.3438 C   0  0  0  0  0  0  0  0  0  0  0  0
   12.4536   -0.2056   24.8477 C   0  0  0  0  0  0  0  0  0  0  0  0
    7.5840   -0.2700   18.5160 C   0  0  0  0  0  0  0  0  0  0  0  0
    9.1280   -1.2090   23.4870 C   0  0  0  0  0  0  0  0  0  0  0  0
   11.8866   -0.2127   23.5922 C   0  0  0  0  0  0  0  0  0  0  0  0
    5.7970    0.9500   18.6730 C   0  0  0  0  0  0  0  0  0  0  0  0
    6.1460    0.6070   19.9750 C   0  0  0  0  0  0  0  0  0  0  0  0
    8.3450   -3.3440   25.0980 C   0  0  0  0  0  0  0  0  0  0  0  0
    9.0430    0.2380   21.4940 C   0  0  0  0  0  0  0  0  0  0  0  0
    7.1332   -6.6676   27.5104 C   0  0  0  0  0  0  0  0  0  0  0  0
    8.6006   -6.2699   27.4092 C   0  0  0  0  0  0  0  0  0  0  0  0
    6.2435   -5.4423   27.3384 C   0  0  0  0  0  0  0  0  0  0  0  0
    8.8968   -5.5368   26.1018 C   0  0  0  0  0  0  0  0  0  0  0  0
    6.5407   -4.7160   26.0284 C   0  0  0  0  0  0  0  0  0  0  0  0
   10.7220    0.6590   23.1850 C   0  0  0  0  0  0  0  0  0  0  0  0
    9.5820   -0.1080   22.7000 C   0  0  1  0  0  0  0  0  0  0  0  0
    6.7100    0.3850   17.8100 N   0  0  0  0  0  0  0  0  0  0  0  0
    7.2710   -0.1460   19.8310 N   0  0  0  0  0  0  0  0  0  0  0  0
    7.9744   -4.4098   25.9218 N   0  0  0  0  0  0  0  0  0  0  0  0
    8.0950   -0.7700   20.8440 N   0  0  0  0  0  0  0  0  0  0  0  0
    9.2950    1.3000   20.9480 O   0  0  0  0  0  0  0  0  0  0  0  0
   13.7529   -1.3140   24.9722 S   0  0  0  0  0  0  0  0  0  0  0  0
    2.9844    2.6927   19.3613 H   0  0  0  0  0  0  0  0  0  0  0  0
    3.6214    2.0680   21.6561 H   0  0  0  0  0  0  0  0  0  0  0  0
   10.2684   -2.6719   22.3867 H   0  0  0  0  0  0  0  0  0  0  0  0
    7.8717   -0.0016   24.7596 H   0  0  0  0  0  0  0  0  0  0  0  0
    4.3780    2.0103   17.4276 H   0  0  0  0  0  0  0  0  0  0  0  0
    5.6758    0.7335   22.0897 H   0  0  0  0  0  0  0  0  0  0  0  0
    9.5443   -4.5616   23.7817 H   0  0  0  0  0  0  0  0  0  0  0  0
    7.1921   -1.8821   26.1908 H   0  0  0  0  0  0  0  0  0  0  0  0
   12.2480   -1.3139   21.6894 H   0  0  0  0  0  0  0  0  0  0  0  0
   14.2088   -2.5605   22.9207 H   0  0  0  0  0  0  0  0  0  0  0  0
   12.1694    0.3949   25.7008 H   0  0  0  0  0  0  0  0  0  0  0  0
    8.4213   -0.8245   18.1548 H   0  0  0  0  0  0  0  0  0  0  0  0
    6.8959   -7.4107   26.7395 H   0  0  0  0  0  0  0  0  0  0  0  0
    6.9397   -7.1354   28.4820 H   0  0  0  0  0  0  0  0  0  0  0  0
    8.8680   -5.6272   28.2575 H   0  0  0  0  0  0  0  0  0  0  0  0
    9.2298   -7.1645   27.4783 H   0  0  0  0  0  0  0  0  0  0  0  0
    5.1908   -5.7466   27.3580 H   0  0  0  0  0  0  0  0  0  0  0  0
    6.3923   -4.7556   28.1809 H   0  0  0  0  0  0  0  0  0  0  0  0
    9.9344   -5.1808   26.1246 H   0  0  0  0  0  0  0  0  0  0  0  0
    8.8025   -6.2317   25.2571 H   0  0  0  0  0  0  0  0  0  0  0  0
    6.2290   -5.3369   25.1786 H   0  0  0  0  0  0  0  0  0  0  0  0
    5.9514   -3.7910   25.9971 H   0  0  0  0  0  0  0  0  0  0  0  0
   10.4364    1.2691   24.0532 H   0  0  0  0  0  0  0  0  0  0  0  0
   11.0496    1.3814   22.4256 H   0  0  0  0  0  0  0  0  0  0  0  0
   10.5267   -0.9929   22.0072 H   0  0  0  0  0  0  0  0  0  0  0  0
    8.0815   -1.6117   21.0754 H   0  0  0  0  0  0  0  0  0  0  0  0
  1  2  1  0  0  0  0
  1  5  2  0  0  0  0
  2  6  2  0  0  0  0
  3  7  2  0  0  0  0
  3 13  1  0  0  0  0
  4  8  1  0  0  0  0
  4 13  2  0  0  0  0
  5 15  1  0  0  0  0
  6 16  1  0  0  0  0
  7 17  1  0  0  0  0
  8 17  2  0  0  0  0
  9 10  2  0  0  0  0
  9 14  1  0  0  0  0
 10 31  1  0  0  0  0
 11 14  2  0  0  0  0
 11 31  1  0  0  0  0
 12 26  2  0  0  0  0
 12 27  1  0  0  0  0
 13 25  1  0  0  0  0
 14 24  1  0  0  0  0
 15 16  2  0  0  0  0
 15 26  1  0  0  0  0
 16 27  1  0  0  0  0
 17 28  1  0  0  0  0
 18 25  1  1  0  0  0
 18 29  1  0  0  0  0
 18 30  2  0  0  0  0
 19 20  1  0  0  0  0
 19 21  1  0  0  0  0
 20 22  1  0  0  0  0
 21 23  1  0  0  0  0
 22 28  1  0  0  0  0
 23 28  1  0  0  0  0
 24 25  1  0  0  0  0
 27 29  1  0  0  0  0
  1 32  1  0  0  0  0
  2 33  1  0  0  0  0
  3 34  1  0  0  0  0
  4 35  1  0  0  0  0
  5 36  1  0  0  0  0
  6 37  1  0  0  0  0
  7 38  1  0  0  0  0
  8 39  1  0  0  0  0
  9 40  1  0  0  0  0
 10 41  1  0  0  0  0
 11 42  1  0  0  0  0
 12 43  1  0  0  0  0
 19 44  1  0  0  0  0
 19 45  1  0  0  0  0
 20 46  1  0  0  0  0
 20 47  1  0  0  0  0
 21 48  1  0  0  0  0
 21 49  1  0  0  0  0
 22 50  1  0  0  0  0
 22 51  1  0  0  0  0
 23 52  1  0  0  0  0
 23 53  1  0  0  0  0
 24 54  1  0  0  0  0
 24 55  1  0  0  0  0
 25 56  1  0  0  0  0
 29 57  1  0  0  0  0
M  END
> <clash_score>
0

> <docking_score>
-8.098734855651855

> <overlap_score>
0.9449204802513123

$$$$
BENZO_202_1
  -OEChem-08222022453D

 55 58  0     1  0  0  0  0  0999 V2000
    3.8860    2.1050   19.5250 C   0  0  0  0  0  0  0  0  0  0  0  0
    4.2460    1.7520   20.8250 C   0  0  0  0  0  0  0  0  0  0  0  0
   13.8446    0.0438   21.1092 C   0  0  0  0  0  0  0  0  0  0  0  0
   12.6160    0.5516   21.5316 C   0  0  0  0  0  0  0  0  0  0  0  0
    9.5890   -2.4950   23.2210 C   0  0  0  0  0  0  0  0  0  0  0  0
    8.2550   -1.0010   24.5520 C   0  0  0  0  0  0  0  0  0  0  0  0
    4.6610    1.7170   18.4380 C   0  0  0  0  0  0  0  0  0  0  0  0
    5.3890    1.0010   21.0690 C   0  0  0  0  0  0  0  0  0  0  0  0
    9.1890   -3.5540   24.0140 C   0  0  0  0  0  0  0  0  0  0  0  0
    7.8700   -2.0610   25.3550 C   0  0  0  0  0  0  0  0  0  0  0  0
   14.5090   -0.9080   21.8827 C   0  0  0  0  0  0  0  0  0  0  0  0
   12.7164   -0.8440   23.5012 C   0  0  0  0  0  0  0  0  0  0  0  0
    7.5840   -0.2700   18.5160 C   0  0  0  0  0  0  0  0  0  0  0  0
    9.1280   -1.2090   23.4870 C   0  0  0  0  0  0  0  0  0  0  0  0
   12.0519    0.1077   22.7276 C   0  0  0  0  0  0  0  0  0  0  0  0
    5.7970    0.9500   18.6730 C   0  0  0  0  0  0  0  0  0  0  0  0
    6.1460    0.6070   19.9750 C   0  0  0  0  0  0  0  0  0  0  0  0
    8.3450   -3.3440   25.0980 C   0  0  0  0  0  0  0  0  0  0  0  0
   13.9449   -1.3519   23.0787 C   0  0  0  0  0  0  0  0  0  0  0  0
    8.2024   -4.5567   27.2976 C   0  0  0  0  0  0  0  0  0  0  0  0
    9.0430    0.2380   21.4940 C   0  0  0  0  0  0  0  0  0  0  0  0
    7.8884   -6.0886   29.2877 C   0  0  0  0  0  0  0  0  0  0  0  0
   10.7220    0.6590   23.1850 C   0  0  0  0  0  0  0  0  0  0  0  0
    7.6340   -5.8731   27.8066 C   0  0  0  0  0  0  0  0  0  0  0  0
    9.5820   -0.1080   22.7000 C   0  0  1  0  0  0  0  0  0  0  0  0
    6.7100    0.3850   17.8100 N   0  0  0  0  0  0  0  0  0  0  0  0
    7.2710   -0.1460   19.8310 N   0  0  0  0  0  0  0  0  0  0  0  0
    7.9771   -4.4057   25.9197 N   0  0  0  0  0  0  0  0  0  0  0  0
    8.0950   -0.7700   20.8440 N   0  0  0  0  0  0  0  0  0  0  0  0
    8.7745   -3.7650   28.0394 O   0  0  0  0  0  0  0  0  0  0  0  0
    9.2950    1.3000   20.9480 O   0  0  0  0  0  0  0  0  0  0  0  0
   14.7657   -2.5253   24.0333 Cl  0  0  0  0  0  0  0  0  0  0  0  0
    2.9844    2.6927   19.3613 H   0  0  0  0  0  0  0  0  0  0  0  0
    3.6214    2.0680   21.6561 H   0  0  0  0  0  0  0  0  0  0  0  0
   14.2835    0.3898   20.1778 H   0  0  0  0  0  0  0  0  0  0  0  0
   12.1054    1.2930   20.9225 H   0  0  0  0  0  0  0  0  0  0  0  0
   10.2695   -2.6718   22.3873 H   0  0  0  0  0  0  0  0  0  0  0  0
    7.8712   -0.0014   24.7587 H   0  0  0  0  0  0  0  0  0  0  0  0
    4.3780    2.0103   17.4276 H   0  0  0  0  0  0  0  0  0  0  0  0
    5.6758    0.7336   22.0897 H   0  0  0  0  0  0  0  0  0  0  0  0
    9.5431   -4.5618   23.7801 H   0  0  0  0  0  0  0  0  0  0  0  0
    7.1923   -1.8823   26.1912 H   0  0  0  0  0  0  0  0  0  0  0  0
   15.4660   -1.2948   21.5412 H   0  0  0  0  0  0  0  0  0  0  0  0
   12.2722   -1.1873   24.4326 H   0  0  0  0  0  0  0  0  0  0  0  0
    8.4213   -0.8245   18.1548 H   0  0  0  0  0  0  0  0  0  0  0  0
    8.9611   -6.0840   29.5072 H   0  0  0  0  0  0  0  0  0  0  0  0
    7.4778   -7.0508   29.6088 H   0  0  0  0  0  0  0  0  0  0  0  0
    7.4200   -5.3000   29.8858 H   0  0  0  0  0  0  0  0  0  0  0  0
   10.7195    0.6680   24.2839 H   0  0  0  0  0  0  0  0  0  0  0  0
   10.6395    1.7141   22.8921 H   0  0  0  0  0  0  0  0  0  0  0  0
    6.5546   -5.8823   27.6161 H   0  0  0  0  0  0  0  0  0  0  0  0
    8.0868   -6.6914   27.2350 H   0  0  0  0  0  0  0  0  0  0  0  0
    8.6943    0.7922   23.3819 H   0  0  0  0  0  0  0  0  0  0  0  0
    7.4775   -5.1796   25.4663 H   0  0  0  0  0  0  0  0  0  0  0  0
    8.1074   -1.6160   21.1028 H   0  0  0  0  0  0  0  0  0  0  0  0
  1  2  1  0  0  0  0
  1  7  2  0  0  0  0
  2  8  2  0  0  0  0
  3  4  2  0  0  0  0
  3 11  1  0  0  0  0
  4 15  1  0  0  0  0
  5  9  2  0  0  0  0
  5 14  1  0  0  0  0
  6 10  1  0  0  0  0
  6 14  2  0  0  0  0
  7 16  1  0  0  0  0
  8 17  1  0  0  0  0
  9 18  1  0  0  0  0
 10 18  2  0  0  0  0
 11 19  2  0  0  0  0
 12 15  2  0  0  0  0
 12 19  1  0  0  0  0
 13 26  2  0  0  0  0
 13 27  1  0  0  0  0
 14 25  1  0  0  0  0
 15 23  1  0  0  0  0
 16 17  2  0  0  0  0
 16 26  1  0  0  0  0
 17 27  1  0  0  0  0
 18 28  1  0  0  0  0
 19 32  1  0  0  0  0
 20 24  1  0  0  0  0
 20 28  1  0  0  0  0
 20 30  2  0  0  0  0
 21 25  1  0  0  0  0
 21 29  1  0  0  0  0
 21 31  2  0  0  0  0
 22 24  1  0  0  0  0
 23 25  1  1  0  0  0
 27 29  1  0  0  0  0
  1 33  1  0  0  0  0
  2 34  1  0  0  0  0
  3 35  1  0  0  0  0
  4 36  1  0  0  0  0
  5 37  1  0  0  0  0
  6 38  1  0  0  0  0
  7 39  1  0  0  0  0
  8 40  1  0  0  0  0
  9 41  1  0  0  0  0
 10 42  1  0  0  0  0
 11 43  1  0  0  0  0
 12 44  1  0  0  0  0
 13 45  1  0  0  0  0
 22 46  1  0  0  0  0
 22 47  1  0  0  0  0
 22 48  1  0  0  0  0
 23 49  1  0  0  0  0
 23 50  1  0  0  0  0
 24 51  1  0  0  0  0
 24 52  1  0  0  0  0
 25 53  1  0  0  0  0
 28 54  1  0  0  0  0
 29 55  1  0  0  0  0
M  END
> <clash_score>
0

> <docking_score>
-6.912707328796387

> <overlap_score>
0.9783552289009094

$$$$
BENZO_202_2
  -OEChem-08222022453D

 55 58  0     1  0  0  0  0  0999 V2000
    3.8860    2.1050   19.5250 C   0  0  0  0  0  0  0  0  0  0  0  0
    4.2460    1.7520   20.8250 C   0  0  0  0  0  0  0  0  0  0  0  0
   13.0699   -1.4582   25.2928 C   0  0  0  0  0  0  0  0  0  0  0  0
   11.9910   -0.6606   24.9116 C   0  0  0  0  0  0  0  0  0  0  0  0
    9.5890   -2.4950   23.2210 C   0  0  0  0  0  0  0  0  0  0  0  0
    8.2550   -1.0010   24.5520 C   0  0  0  0  0  0  0  0  0  0  0  0
    4.6610    1.7170   18.4380 C   0  0  0  0  0  0  0  0  0  0  0  0
    5.3890    1.0010   21.0690 C   0  0  0  0  0  0  0  0  0  0  0  0
    9.1890   -3.5540   24.0140 C   0  0  0  0  0  0  0  0  0  0  0  0
    7.8700   -2.0610   25.3550 C   0  0  0  0  0  0  0  0  0  0  0  0
   14.0494   -1.7989   24.3598 C   0  0  0  0  0  0  0  0  0  0  0  0
   12.8708   -0.5445   22.6644 C   0  0  0  0  0  0  0  0  0  0  0  0
    7.5840   -0.2700   18.5160 C   0  0  0  0  0  0  0  0  0  0  0  0
    9.1280   -1.2090   23.4870 C   0  0  0  0  0  0  0  0  0  0  0  0
   11.8914   -0.2037   23.5974 C   0  0  0  0  0  0  0  0  0  0  0  0
    5.7970    0.9500   18.6730 C   0  0  0  0  0  0  0  0  0  0  0  0
    6.1460    0.6070   19.9750 C   0  0  0  0  0  0  0  0  0  0  0  0
    8.3450   -3.3440   25.0980 C   0  0  0  0  0  0  0  0  0  0  0  0
   13.9498   -1.3420   23.0457 C   0  0  0  0  0  0  0  0  0  0  0  0
    7.6605   -4.3767   27.2875 C   0  0  0  0  0  0  0  0  0  0  0  0
    9.0430    0.2380   21.4940 C   0  0  0  0  0  0  0  0  0  0  0  0
    8.4365   -6.7653   27.6013 C   0  0  0  0  0  0  0  0  0  0  0  0
   10.7220    0.6590   23.1850 C   0  0  0  0  0  0  0  0  0  0  0  0
    7.3112   -5.7658   27.8006 C   0  0  0  0  0  0  0  0  0  0  0  0
    9.5820   -0.1080   22.7000 C   0  0  2  0  0  0  0  0  0  0  0  0
    6.7100    0.3850   17.8100 N   0  0  0  0  0  0  0  0  0  0  0  0
    7.2710   -0.1460   19.8310 N   0  0  0  0  0  0  0  0  0  0  0  0
    7.9771   -4.4057   25.9197 N   0  0  0  0  0  0  0  0  0  0  0  0
    8.0950   -0.7700   20.8440 N   0  0  0  0  0  0  0  0  0  0  0  0
    7.6507   -3.3918   28.0185 O   0  0  0  0  0  0  0  0  0  0  0  0
    9.2950    1.3000   20.9480 O   0  0  0  0  0  0  0  0  0  0  0  0
   15.1579   -1.7637   21.8948 Cl  0  0  0  0  0  0  0  0  0  0  0  0
    2.9844    2.6927   19.3613 H   0  0  0  0  0  0  0  0  0  0  0  0
    3.6214    2.0680   21.6561 H   0  0  0  0  0  0  0  0  0  0  0  0
   13.1470   -1.8139   26.3162 H   0  0  0  0  0  0  0  0  0  0  0  0
   11.2324   -0.4001   25.6451 H   0  0  0  0  0  0  0  0  0  0  0  0
   10.2695   -2.6718   22.3873 H   0  0  0  0  0  0  0  0  0  0  0  0
    7.8712   -0.0014   24.7587 H   0  0  0  0  0  0  0  0  0  0  0  0
    4.3780    2.0103   17.4276 H   0  0  0  0  0  0  0  0  0  0  0  0
    5.6758    0.7336   22.0897 H   0  0  0  0  0  0  0  0  0  0  0  0
    9.5431   -4.5618   23.7801 H   0  0  0  0  0  0  0  0  0  0  0  0
    7.1923   -1.8823   26.1912 H   0  0  0  0  0  0  0  0  0  0  0  0
   14.8846   -2.4215   24.6710 H   0  0  0  0  0  0  0  0  0  0  0  0
   12.7889   -0.1853   21.6412 H   0  0  0  0  0  0  0  0  0  0  0  0
    8.4213   -0.8245   18.1548 H   0  0  0  0  0  0  0  0  0  0  0  0
    8.6961   -6.8591   26.5417 H   0  0  0  0  0  0  0  0  0  0  0  0
    8.1392   -7.7521   27.9692 H   0  0  0  0  0  0  0  0  0  0  0  0
    9.3373   -6.4559   28.1415 H   0  0  0  0  0  0  0  0  0  0  0  0
   10.4198    1.2578   24.0555 H   0  0  0  0  0  0  0  0  0  0  0  0
   11.0503    1.3920   22.4361 H   0  0  0  0  0  0  0  0  0  0  0  0
    7.0726   -5.6922   28.8679 H   0  0  0  0  0  0  0  0  0  0  0  0
    6.4147   -6.1151   27.2755 H   0  0  0  0  0  0  0  0  0  0  0  0
   10.5231   -0.9933   22.0106 H   0  0  0  0  0  0  0  0  0  0  0  0
    7.9296   -5.3297   25.4748 H   0  0  0  0  0  0  0  0  0  0  0  0
    8.1074   -1.6160   21.1028 H   0  0  0  0  0  0  0  0  0  0  0  0
  1  2  1  0  0  0  0
  1  7  2  0  0  0  0
  2  8  2  0  0  0  0
  3  4  2  0  0  0  0
  3 11  1  0  0  0  0
  4 15  1  0  0  0  0
  5  9  2  0  0  0  0
  5 14  1  0  0  0  0
  6 10  1  0  0  0  0
  6 14  2  0  0  0  0
  7 16  1  0  0  0  0
  8 17  1  0  0  0  0
  9 18  1  0  0  0  0
 10 18  2  0  0  0  0
 11 19  2  0  0  0  0
 12 15  2  0  0  0  0
 12 19  1  0  0  0  0
 13 26  2  0  0  0  0
 13 27  1  0  0  0  0
 14 25  1  0  0  0  0
 15 23  1  0  0  0  0
 16 17  2  0  0  0  0
 16 26  1  0  0  0  0
 17 27  1  0  0  0  0
 18 28  1  0  0  0  0
 19 32  1  0  0  0  0
 20 24  1  0  0  0  0
 20 28  1  0  0  0  0
 20 30  2  0  0  0  0
 21 25  1  0  0  0  0
 21 29  1  0  0  0  0
 21 31  2  0  0  0  0
 22 24  1  0  0  0  0
 23 25  1  6  0  0  0
 27 29  1  0  0  0  0
  1 33  1  0  0  0  0
  2 34  1  0  0  0  0
  3 35  1  0  0  0  0
  4 36  1  0  0  0  0
  5 37  1  0  0  0  0
  6 38  1  0  0  0  0
  7 39  1  0  0  0  0
  8 40  1  0  0  0  0
  9 41  1  0  0  0  0
 10 42  1  0  0  0  0
 11 43  1  0  0  0  0
 12 44  1  0  0  0  0
 13 45  1  0  0  0  0
 22 46  1  0  0  0  0
 22 47  1  0  0  0  0
 22 48  1  0  0  0  0
 23 49  1  0  0  0  0
 23 50  1  0  0  0  0
 24 51  1  0  0  0  0
 24 52  1  0  0  0  0
 25 53  1  0  0  0  0
 28 54  1  0  0  0  0
 29 55  1  0  0  0  0
M  END
> <clash_score>
0

> <docking_score>
-7.0215606689453125

> <overlap_score>
0.9736564755439758

$$$$
BENZO_205_1
  -OEChem-08222022453D

 60 64  0     1  0  0  0  0  0999 V2000
   14.0375   -1.8230   24.3427 C   0  0  0  0  0  0  0  0  0  0  0  0
   13.0623   -1.4808   25.2794 C   0  0  0  0  0  0  0  0  0  0  0  0
   13.9373   -1.3600   23.0307 C   0  0  0  0  0  0  0  0  0  0  0  0
    3.8860    2.1050   19.5250 C   0  0  0  0  0  0  0  0  0  0  0  0
    4.2460    1.7520   20.8250 C   0  0  0  0  0  0  0  0  0  0  0  0
   11.9868   -0.6757   24.9042 C   0  0  0  0  0  0  0  0  0  0  0  0
   12.8619   -0.5549   22.6555 C   0  0  0  0  0  0  0  0  0  0  0  0
    9.5890   -2.4950   23.2210 C   0  0  0  0  0  0  0  0  0  0  0  0
    8.2550   -1.0010   24.5520 C   0  0  0  0  0  0  0  0  0  0  0  0
    4.6610    1.7170   18.4380 C   0  0  0  0  0  0  0  0  0  0  0  0
    5.3890    1.0010   21.0690 C   0  0  0  0  0  0  0  0  0  0  0  0
    9.1890   -3.5540   24.0140 C   0  0  0  0  0  0  0  0  0  0  0  0
    7.8700   -2.0610   25.3550 C   0  0  0  0  0  0  0  0  0  0  0  0
    7.5840   -0.2700   18.5160 C   0  0  0  0  0  0  0  0  0  0  0  0
   11.8866   -0.2127   23.5922 C   0  0  0  0  0  0  0  0  0  0  0  0
    9.1280   -1.2090   23.4870 C   0  0  0  0  0  0  0  0  0  0  0  0
    5.7970    0.9500   18.6730 C   0  0  0  0  0  0  0  0  0  0  0  0
    6.1460    0.6070   19.9750 C   0  0  0  0  0  0  0  0  0  0  0  0
    8.3450   -3.3440   25.0980 C   0  0  0  0  0  0  0  0  0  0  0  0
    9.0430    0.2380   21.4940 C   0  0  0  0  0  0  0  0  0  0  0  0
    7.9496   -4.9537   28.7345 C   0  0  0  0  0  0  0  0  0  0  0  0
    6.8919   -4.0607   28.0818 C   0  0  0  0  0  0  0  0  0  0  0  0
    9.2470   -4.9693   27.9230 C   0  0  0  0  0  0  0  0  0  0  0  0
    6.6889   -4.4385   26.6147 C   0  0  0  0  0  0  0  0  0  0  0  0
    8.9871   -5.3207   26.4549 C   0  0  0  0  0  0  0  0  0  0  0  0
   10.7220    0.6590   23.1850 C   0  0  0  0  0  0  0  0  0  0  0  0
    9.5820   -0.1080   22.7000 C   0  0  1  0  0  0  0  0  0  0  0  0
    6.7100    0.3850   17.8100 N   0  0  0  0  0  0  0  0  0  0  0  0
    7.2710   -0.1460   19.8310 N   0  0  0  0  0  0  0  0  0  0  0  0
    7.9769   -4.4027   25.9163 N   0  0  0  0  0  0  0  0  0  0  0  0
    8.0950   -0.7700   20.8440 N   0  0  0  0  0  0  0  0  0  0  0  0
    9.2950    1.3000   20.9480 O   0  0  0  0  0  0  0  0  0  0  0  0
   14.8756   -2.4488   24.6355 H   0  0  0  0  0  0  0  0  0  0  0  0
   13.1407   -1.8403   26.3013 H   0  0  0  0  0  0  0  0  0  0  0  0
   14.6970   -1.6253   22.3015 H   0  0  0  0  0  0  0  0  0  0  0  0
    2.9844    2.6927   19.3613 H   0  0  0  0  0  0  0  0  0  0  0  0
    3.6214    2.0680   21.6561 H   0  0  0  0  0  0  0  0  0  0  0  0
   11.2315   -0.4143   25.6407 H   0  0  0  0  0  0  0  0  0  0  0  0
   12.7920   -0.1989   21.6310 H   0  0  0  0  0  0  0  0  0  0  0  0
   10.2684   -2.6719   22.3867 H   0  0  0  0  0  0  0  0  0  0  0  0
    7.8717   -0.0016   24.7596 H   0  0  0  0  0  0  0  0  0  0  0  0
    4.3780    2.0103   17.4276 H   0  0  0  0  0  0  0  0  0  0  0  0
    5.6758    0.7335   22.0897 H   0  0  0  0  0  0  0  0  0  0  0  0
    9.5443   -4.5616   23.7817 H   0  0  0  0  0  0  0  0  0  0  0  0
    7.1921   -1.8821   26.1908 H   0  0  0  0  0  0  0  0  0  0  0  0
    8.4213   -0.8245   18.1548 H   0  0  0  0  0  0  0  0  0  0  0  0
    8.1558   -4.5961   29.7550 H   0  0  0  0  0  0  0  0  0  0  0  0
    7.5611   -5.9778   28.8324 H   0  0  0  0  0  0  0  0  0  0  0  0
    5.9459   -4.1594   28.6209 H   0  0  0  0  0  0  0  0  0  0  0  0
    7.2011   -3.0160   28.1536 H   0  0  0  0  0  0  0  0  0  0  0  0
    9.7290   -3.9880   27.9846 H   0  0  0  0  0  0  0  0  0  0  0  0
    9.9437   -5.6964   28.3562 H   0  0  0  0  0  0  0  0  0  0  0  0
    6.2543   -5.4402   26.5659 H   0  0  0  0  0  0  0  0  0  0  0  0
    5.9909   -3.7397   26.1451 H   0  0  0  0  0  0  0  0  0  0  0  0
    9.9128   -5.2367   25.8843 H   0  0  0  0  0  0  0  0  0  0  0  0
    8.6365   -6.3517   26.3987 H   0  0  0  0  0  0  0  0  0  0  0  0
   10.4364    1.2691   24.0532 H   0  0  0  0  0  0  0  0  0  0  0  0
   11.0496    1.3814   22.4256 H   0  0  0  0  0  0  0  0  0  0  0  0
   10.5267   -0.9929   22.0072 H   0  0  0  0  0  0  0  0  0  0  0  0
    8.0815   -1.6117   21.0754 H   0  0  0  0  0  0  0  0  0  0  0  0
  1  2  1  0  0  0  0
  1  3  2  0  0  0  0
  2  6  2  0  0  0  0
  3  7  1  0  0  0  0
  4  5  1  0  0  0  0
  4 10  2  0  0  0  0
  5 11  2  0  0  0  0
  6 15  1  0  0  0  0
  7 15  2  0  0  0  0
  8 12  2  0  0  0  0
  8 16  1  0  0  0  0
  9 13  1  0  0  0  0
  9 16  2  0  0  0  0
 10 17  1  0  0  0  0
 11 18  1  0  0  0  0
 12 19  1  0  0  0  0
 13 19  2  0  0  0  0
 14 28  2  0  0  0  0
 14 29  1  0  0  0  0
 15 26  1  0  0  0  0
 16 27  1  0  0  0  0
 17 18  2  0  0  0  0
 17 28  1  0  0  0  0
 18 29  1  0  0  0  0
 19 30  1  0  0  0  0
 20 27  1  1  0  0  0
 20 31  1  0  0  0  0
 20 32  2  0  0  0  0
 21 22  1  0  0  0  0
 21 23  1  0  0  0  0
 22 24  1  0  0  0  0
 23 25  1  0  0  0  0
 24 30  1  0  0  0  0
 25 30  1  0  0  0  0
 26 27  1  0  0  0  0
 29 31  1  0  0  0  0
  1 33  1  0  0  0  0
  2 34  1  0  0  0  0
  3 35  1  0  0  0  0
  4 36  1  0  0  0  0
  5 37  1  0  0  0  0
  6 38  1  0  0  0  0
  7 39  1  0  0  0  0
  8 40  1  0  0  0  0
  9 41  1  0  0  0  0
 10 42  1  0  0  0  0
 11 43  1  0  0  0  0
 12 44  1  0  0  0  0
 13 45  1  0  0  0  0
 14 46  1  0  0  0  0
 21 47  1  0  0  0  0
 21 48  1  0  0  0  0
 22 49  1  0  0  0  0
 22 50  1  0  0  0  0
 23 51  1  0  0  0  0
 23 52  1  0  0  0  0
 24 53  1  0  0  0  0
 24 54  1  0  0  0  0
 25 55  1  0  0  0  0
 25 56  1  0  0  0  0
 26 57  1  0  0  0  0
 26 58  1  0  0  0  0
 27 59  1  0  0  0  0
 31 60  1  0  0  0  0
M  END
> <clash_score>
0

> <docking_score>
-8.653728485107422

> <overlap_score>
0.9721696376800537

$$$$
BENZO_203_2
  -OEChem-08222022453D

 55 58  0     1  0  0  0  0  0999 V2000
    3.8860    2.1050   19.5250 C   0  0  0  0  0  0  0  0  0  0  0  0
    4.2460    1.7520   20.8250 C   0  0  0  0  0  0  0  0  0  0  0  0
    9.5890   -2.4950   23.2210 C   0  0  0  0  0  0  0  0  0  0  0  0
    8.2550   -1.0010   24.5520 C   0  0  0  0  0  0  0  0  0  0  0  0
    4.6610    1.7170   18.4380 C   0  0  0  0  0  0  0  0  0  0  0  0
    5.3890    1.0010   21.0690 C   0  0  0  0  0  0  0  0  0  0  0  0
    9.1890   -3.5540   24.0140 C   0  0  0  0  0  0  0  0  0  0  0  0
    7.8700   -2.0610   25.3550 C   0  0  0  0  0  0  0  0  0  0  0  0
   12.1546   -0.7527   24.8667 C   0  0  0  0  0  0  0  0  0  0  0  0
   12.9364   -0.6310   22.8152 C   0  0  0  0  0  0  0  0  0  0  0  0
    7.5840   -0.2700   18.5160 C   0  0  0  0  0  0  0  0  0  0  0  0
    9.1280   -1.2090   23.4870 C   0  0  0  0  0  0  0  0  0  0  0  0
   11.8914   -0.2037   23.5974 C   0  0  0  0  0  0  0  0  0  0  0  0
    5.7970    0.9500   18.6730 C   0  0  0  0  0  0  0  0  0  0  0  0
    6.1460    0.6070   19.9750 C   0  0  0  0  0  0  0  0  0  0  0  0
    8.3450   -3.3440   25.0980 C   0  0  0  0  0  0  0  0  0  0  0  0
    7.6605   -4.3767   27.2875 C   0  0  0  0  0  0  0  0  0  0  0  0
    9.0430    0.2380   21.4940 C   0  0  0  0  0  0  0  0  0  0  0  0
    8.4365   -6.7653   27.6013 C   0  0  0  0  0  0  0  0  0  0  0  0
   14.9563   -2.0460   23.2586 C   0  0  0  0  0  0  0  0  0  0  0  0
   10.7220    0.6590   23.1850 C   0  0  0  0  0  0  0  0  0  0  0  0
    7.3112   -5.7658   27.8006 C   0  0  0  0  0  0  0  0  0  0  0  0
    9.5820   -0.1080   22.7000 C   0  0  2  0  0  0  0  0  0  0  0  0
   13.2786   -1.4738   24.8937 N   0  0  0  0  0  0  0  0  0  0  0  0
    6.7100    0.3850   17.8100 N   0  0  0  0  0  0  0  0  0  0  0  0
   13.7309   -1.3809   23.6316 N   0  0  0  0  0  0  0  0  0  0  0  0
    7.2710   -0.1460   19.8310 N   0  0  0  0  0  0  0  0  0  0  0  0
    7.9771   -4.4057   25.9197 N   0  0  0  0  0  0  0  0  0  0  0  0
    8.0950   -0.7700   20.8440 N   0  0  0  0  0  0  0  0  0  0  0  0
    7.6507   -3.3918   28.0185 O   0  0  0  0  0  0  0  0  0  0  0  0
    9.2950    1.3000   20.9480 O   0  0  0  0  0  0  0  0  0  0  0  0
    2.9844    2.6927   19.3613 H   0  0  0  0  0  0  0  0  0  0  0  0
    3.6214    2.0680   21.6561 H   0  0  0  0  0  0  0  0  0  0  0  0
   10.2695   -2.6718   22.3873 H   0  0  0  0  0  0  0  0  0  0  0  0
    7.8712   -0.0014   24.7587 H   0  0  0  0  0  0  0  0  0  0  0  0
    4.3780    2.0103   17.4276 H   0  0  0  0  0  0  0  0  0  0  0  0
    5.6758    0.7336   22.0897 H   0  0  0  0  0  0  0  0  0  0  0  0
    9.5431   -4.5618   23.7801 H   0  0  0  0  0  0  0  0  0  0  0  0
    7.1923   -1.8823   26.1912 H   0  0  0  0  0  0  0  0  0  0  0  0
   11.5753   -0.6595   25.7744 H   0  0  0  0  0  0  0  0  0  0  0  0
   13.1758   -0.4703   21.7727 H   0  0  0  0  0  0  0  0  0  0  0  0
    8.4213   -0.8245   18.1548 H   0  0  0  0  0  0  0  0  0  0  0  0
    8.6961   -6.8591   26.5417 H   0  0  0  0  0  0  0  0  0  0  0  0
    8.1392   -7.7521   27.9692 H   0  0  0  0  0  0  0  0  0  0  0  0
    9.3373   -6.4559   28.1415 H   0  0  0  0  0  0  0  0  0  0  0  0
   15.7825   -1.3505   23.4278 H   0  0  0  0  0  0  0  0  0  0  0  0
   15.0826   -2.9452   23.8680 H   0  0  0  0  0  0  0  0  0  0  0  0
   14.9057   -2.3321   22.2043 H   0  0  0  0  0  0  0  0  0  0  0  0
   10.4198    1.2578   24.0555 H   0  0  0  0  0  0  0  0  0  0  0  0
   11.0503    1.3920   22.4361 H   0  0  0  0  0  0  0  0  0  0  0  0
    7.0726   -5.6922   28.8679 H   0  0  0  0  0  0  0  0  0  0  0  0
    6.4147   -6.1151   27.2755 H   0  0  0  0  0  0  0  0  0  0  0  0
   10.5231   -0.9933   22.0106 H   0  0  0  0  0  0  0  0  0  0  0  0
    7.9296   -5.3297   25.4748 H   0  0  0  0  0  0  0  0  0  0  0  0
    8.1074   -1.6160   21.1028 H   0  0  0  0  0  0  0  0  0  0  0  0
  1  2  1  0  0  0  0
  1  5  2  0  0  0  0
  2  6  2  0  0  0  0
  3  7  2  0  0  0  0
  3 12  1  0  0  0  0
  4  8  1  0  0  0  0
  4 12  2  0  0  0  0
  5 14  1  0  0  0  0
  6 15  1  0  0  0  0
  7 16  1  0  0  0  0
  8 16  2  0  0  0  0
  9 13  1  0  0  0  0
  9 24  2  0  0  0  0
 10 13  2  0  0  0  0
 10 26  1  0  0  0  0
 11 25  2  0  0  0  0
 11 27  1  0  0  0  0
 12 23  1  0  0  0  0
 13 21  1  0  0  0  0
 14 15  2  0  0  0  0
 14 25  1  0  0  0  0
 15 27  1  0  0  0  0
 16 28  1  0  0  0  0
 17 22  1  0  0  0  0
 17 28  1  0  0  0  0
 17 30  2  0  0  0  0
 18 23  1  0  0  0  0
 18 29  1  0  0  0  0
 18 31  2  0  0  0  0
 19 22  1  0  0  0  0
 20 26  1  0  0  0  0
 21 23  1  6  0  0  0
 24 26  1  0  0  0  0
 27 29  1  0  0  0  0
  1 32  1  0  0  0  0
  2 33  1  0  0  0  0
  3 34  1  0  0  0  0
  4 35  1  0  0  0  0
  5 36  1  0  0  0  0
  6 37  1  0  0  0  0
  7 38  1  0  0  0  0
  8 39  1  0  0  0  0
  9 40  1  0  0  0  0
 10 41  1  0  0  0  0
 11 42  1  0  0  0  0
 19 43  1  0  0  0  0
 19 44  1  0  0  0  0
 19 45  1  0  0  0  0
 20 46  1  0  0  0  0
 20 47  1  0  0  0  0
 20 48  1  0  0  0  0
 21 49  1  0  0  0  0
 21 50  1  0  0  0  0
 22 51  1  0  0  0  0
 22 52  1  0  0  0  0
 23 53  1  0  0  0  0
 28 54  1  0  0  0  0
 29 55  1  0  0  0  0
M  END
> <clash_score>
0

> <docking_score>
-6.948616027832031

> <overlap_score>
0.9696537256240845

$$$$
BENZO_205_2
  -OEChem-08222022453D

 60 64  0     1  0  0  0  0  0999 V2000
   14.4929   -0.9443   21.8802 C   0  0  0  0  0  0  0  0  0  0  0  0
   14.4062   -0.2690   23.0976 C   0  0  0  0  0  0  0  0  0  0  0  0
   13.3566   -1.0994   21.0861 C   0  0  0  0  0  0  0  0  0  0  0  0
    3.8860    2.1050   19.5250 C   0  0  0  0  0  0  0  0  0  0  0  0
    4.2460    1.7520   20.8250 C   0  0  0  0  0  0  0  0  0  0  0  0
   13.1832    0.2512   23.5210 C   0  0  0  0  0  0  0  0  0  0  0  0
   12.1336   -0.5792   21.5095 C   0  0  0  0  0  0  0  0  0  0  0  0
    9.5890   -2.4950   23.2210 C   0  0  0  0  0  0  0  0  0  0  0  0
    8.2550   -1.0010   24.5520 C   0  0  0  0  0  0  0  0  0  0  0  0
    4.6610    1.7170   18.4380 C   0  0  0  0  0  0  0  0  0  0  0  0
    5.3890    1.0010   21.0690 C   0  0  0  0  0  0  0  0  0  0  0  0
    9.1890   -3.5540   24.0140 C   0  0  0  0  0  0  0  0  0  0  0  0
    7.8700   -2.0610   25.3550 C   0  0  0  0  0  0  0  0  0  0  0  0
    7.5840   -0.2700   18.5160 C   0  0  0  0  0  0  0  0  0  0  0  0
   12.0469    0.0961   22.7270 C   0  0  0  0  0  0  0  0  0  0  0  0
    9.1280   -1.2090   23.4870 C   0  0  0  0  0  0  0  0  0  0  0  0
    5.7970    0.9500   18.6730 C   0  0  0  0  0  0  0  0  0  0  0  0
    6.1460    0.6070   19.9750 C   0  0  0  0  0  0  0  0  0  0  0  0
    8.3450   -3.3440   25.0980 C   0  0  0  0  0  0  0  0  0  0  0  0
    9.0430    0.2380   21.4940 C   0  0  0  0  0  0  0  0  0  0  0  0
    7.9496   -4.9537   28.7345 C   0  0  0  0  0  0  0  0  0  0  0  0
    6.8919   -4.0607   28.0818 C   0  0  0  0  0  0  0  0  0  0  0  0
    9.2470   -4.9693   27.9230 C   0  0  0  0  0  0  0  0  0  0  0  0
    6.6889   -4.4385   26.6147 C   0  0  0  0  0  0  0  0  0  0  0  0
    8.9871   -5.3207   26.4549 C   0  0  0  0  0  0  0  0  0  0  0  0
   10.7220    0.6590   23.1850 C   0  0  0  0  0  0  0  0  0  0  0  0
    9.5820   -0.1080   22.7000 C   0  0  2  0  0  0  0  0  0  0  0  0
    6.7100    0.3850   17.8100 N   0  0  0  0  0  0  0  0  0  0  0  0
    7.2710   -0.1460   19.8310 N   0  0  0  0  0  0  0  0  0  0  0  0
    7.9769   -4.4027   25.9163 N   0  0  0  0  0  0  0  0  0  0  0  0
    8.0950   -0.7700   20.8440 N   0  0  0  0  0  0  0  0  0  0  0  0
    9.2950    1.3000   20.9480 O   0  0  0  0  0  0  0  0  0  0  0  0
   15.4456   -1.3481   21.5500 H   0  0  0  0  0  0  0  0  0  0  0  0
   15.2911   -0.1472   23.7155 H   0  0  0  0  0  0  0  0  0  0  0  0
   13.4240   -1.6241   20.1377 H   0  0  0  0  0  0  0  0  0  0  0  0
    2.9844    2.6927   19.3613 H   0  0  0  0  0  0  0  0  0  0  0  0
    3.6214    2.0680   21.6561 H   0  0  0  0  0  0  0  0  0  0  0  0
   13.1250    0.7757   24.4711 H   0  0  0  0  0  0  0  0  0  0  0  0
   11.2536   -0.7049   20.8844 H   0  0  0  0  0  0  0  0  0  0  0  0
   10.2684   -2.6719   22.3867 H   0  0  0  0  0  0  0  0  0  0  0  0
    7.8717   -0.0016   24.7596 H   0  0  0  0  0  0  0  0  0  0  0  0
    4.3780    2.0103   17.4276 H   0  0  0  0  0  0  0  0  0  0  0  0
    5.6758    0.7336   22.0897 H   0  0  0  0  0  0  0  0  0  0  0  0
    9.5443   -4.5616   23.7817 H   0  0  0  0  0  0  0  0  0  0  0  0
    7.1921   -1.8821   26.1908 H   0  0  0  0  0  0  0  0  0  0  0  0
    8.4213   -0.8245   18.1548 H   0  0  0  0  0  0  0  0  0  0  0  0
    8.1558   -4.5961   29.7550 H   0  0  0  0  0  0  0  0  0  0  0  0
    7.5611   -5.9778   28.8324 H   0  0  0  0  0  0  0  0  0  0  0  0
    5.9459   -4.1594   28.6209 H   0  0  0  0  0  0  0  0  0  0  0  0
    7.2011   -3.0160   28.1536 H   0  0  0  0  0  0  0  0  0  0  0  0
    9.7290   -3.9880   27.9846 H   0  0  0  0  0  0  0  0  0  0  0  0
    9.9437   -5.6964   28.3562 H   0  0  0  0  0  0  0  0  0  0  0  0
    6.2543   -5.4402   26.5659 H   0  0  0  0  0  0  0  0  0  0  0  0
    5.9909   -3.7397   26.1451 H   0  0  0  0  0  0  0  0  0  0  0  0
    9.9128   -5.2367   25.8843 H   0  0  0  0  0  0  0  0  0  0  0  0
    8.6365   -6.3517   26.3987 H   0  0  0  0  0  0  0  0  0  0  0  0
   10.7288    0.6889   24.2835 H   0  0  0  0  0  0  0  0  0  0  0  0
   10.6393    1.7086   22.8728 H   0  0  0  0  0  0  0  0  0  0  0  0
    8.6955    0.7993   23.3793 H   0  0  0  0  0  0  0  0  0  0  0  0
    8.0815   -1.6117   21.0754 H   0  0  0  0  0  0  0  0  0  0  0  0
  1  2  1  0  0  0  0
  1  3  2  0  0  0  0
  2  6  2  0  0  0  0
  3  7  1  0  0  0  0
  4  5  1  0  0  0  0
  4 10  2  0  0  0  0
  5 11  2  0  0  0  0
  6 15  1  0  0  0  0
  7 15  2  0  0  0  0
  8 12  2  0  0  0  0
  8 16  1  0  0  0  0
  9 13  1  0  0  0  0
  9 16  2  0  0  0  0
 10 17  1  0  0  0  0
 11 18  1  0  0  0  0
 12 19  1  0  0  0  0
 13 19  2  0  0  0  0
 14 28  2  0  0  0  0
 14 29  1  0  0  0  0
 15 26  1  0  0  0  0
 16 27  1  0  0  0  0
 17 18  2  0  0  0  0
 17 28  1  0  0  0  0
 18 29  1  0  0  0  0
 19 30  1  0  0  0  0
 20 27  1  6  0  0  0
 20 31  1  0  0  0  0
 20 32  2  0  0  0  0
 21 22  1  0  0  0  0
 21 23  1  0  0  0  0
 22 24  1  0  0  0  0
 23 25  1  0  0  0  0
 24 30  1  0  0  0  0
 25 30  1  0  0  0  0
 26 27  1  0  0  0  0
 29 31  1  0  0  0  0
  1 33  1  0  0  0  0
  2 34  1  0  0  0  0
  3 35  1  0  0  0  0
  4 36  1  0  0  0  0
  5 37  1  0  0  0  0
  6 38  1  0  0  0  0
  7 39  1  0  0  0  0
  8 40  1  0  0  0  0
  9 41  1  0  0  0  0
 10 42  1  0  0  0  0
 11 43  1  0  0  0  0
 12 44  1  0  0  0  0
 13 45  1  0  0  0  0
 14 46  1  0  0  0  0
 21 47  1  0  0  0  0
 21 48  1  0  0  0  0
 22 49  1  0  0  0  0
 22 50  1  0  0  0  0
 23 51  1  0  0  0  0
 23 52  1  0  0  0  0
 24 53  1  0  0  0  0
 24 54  1  0  0  0  0
 25 55  1  0  0  0  0
 25 56  1  0  0  0  0
 26 57  1  0  0  0  0
 26 58  1  0  0  0  0
 27 59  1  0  0  0  0
 31 60  1  0  0  0  0
M  END
> <clash_score>
0

> <docking_score>
-8.211040496826172

> <overlap_score>
0.9526594877243042

$$$$
BENZO_203_1
  -OEChem-08222022453D

 55 58  0     1  0  0  0  0  0999 V2000
    3.8860    2.1050   19.5250 C   0  0  0  0  0  0  0  0  0  0  0  0
    4.2460    1.7520   20.8250 C   0  0  0  0  0  0  0  0  0  0  0  0
    9.5890   -2.4950   23.2210 C   0  0  0  0  0  0  0  0  0  0  0  0
    8.2550   -1.0010   24.5520 C   0  0  0  0  0  0  0  0  0  0  0  0
    4.6610    1.7170   18.4380 C   0  0  0  0  0  0  0  0  0  0  0  0
    5.3890    1.0010   21.0690 C   0  0  0  0  0  0  0  0  0  0  0  0
    9.1890   -3.5540   24.0140 C   0  0  0  0  0  0  0  0  0  0  0  0
    7.8700   -2.0610   25.3550 C   0  0  0  0  0  0  0  0  0  0  0  0
   13.3377    0.6029   23.0163 C   0  0  0  0  0  0  0  0  0  0  0  0
   12.2774   -0.9929   21.9374 C   0  0  0  0  0  0  0  0  0  0  0  0
    7.5840   -0.2700   18.5160 C   0  0  0  0  0  0  0  0  0  0  0  0
    9.1280   -1.2090   23.4870 C   0  0  0  0  0  0  0  0  0  0  0  0
   12.0519    0.1077   22.7276 C   0  0  0  0  0  0  0  0  0  0  0  0
    5.7970    0.9500   18.6730 C   0  0  0  0  0  0  0  0  0  0  0  0
    6.1460    0.6070   19.9750 C   0  0  0  0  0  0  0  0  0  0  0  0
    8.3450   -3.3440   25.0980 C   0  0  0  0  0  0  0  0  0  0  0  0
    7.6605   -4.3767   27.2875 C   0  0  0  0  0  0  0  0  0  0  0  0
    9.0430    0.2380   21.4940 C   0  0  0  0  0  0  0  0  0  0  0  0
    6.9959   -5.7809   29.2856 C   0  0  0  0  0  0  0  0  0  0  0  0
   14.3524   -2.0905   21.0609 C   0  0  0  0  0  0  0  0  0  0  0  0
   10.7220    0.6590   23.1850 C   0  0  0  0  0  0  0  0  0  0  0  0
    7.3112   -5.7658   27.8006 C   0  0  0  0  0  0  0  0  0  0  0  0
    9.5820   -0.1080   22.7000 C   0  0  1  0  0  0  0  0  0  0  0  0
   14.3080   -0.1235   22.4553 N   0  0  0  0  0  0  0  0  0  0  0  0
    6.7100    0.3850   17.8100 N   0  0  0  0  0  0  0  0  0  0  0  0
   13.6317   -1.0865   21.8063 N   0  0  0  0  0  0  0  0  0  0  0  0
    7.2710   -0.1460   19.8310 N   0  0  0  0  0  0  0  0  0  0  0  0
    7.9771   -4.4057   25.9197 N   0  0  0  0  0  0  0  0  0  0  0  0
    8.0950   -0.7700   20.8440 N   0  0  0  0  0  0  0  0  0  0  0  0
    7.6507   -3.3918   28.0185 O   0  0  0  0  0  0  0  0  0  0  0  0
    9.2950    1.3000   20.9480 O   0  0  0  0  0  0  0  0  0  0  0  0
    2.9844    2.6927   19.3613 H   0  0  0  0  0  0  0  0  0  0  0  0
    3.6214    2.0680   21.6561 H   0  0  0  0  0  0  0  0  0  0  0  0
   10.2695   -2.6718   22.3873 H   0  0  0  0  0  0  0  0  0  0  0  0
    7.8712   -0.0014   24.7587 H   0  0  0  0  0  0  0  0  0  0  0  0
    4.3780    2.0103   17.4276 H   0  0  0  0  0  0  0  0  0  0  0  0
    5.6758    0.7336   22.0897 H   0  0  0  0  0  0  0  0  0  0  0  0
    9.5431   -4.5618   23.7801 H   0  0  0  0  0  0  0  0  0  0  0  0
    7.1923   -1.8823   26.1912 H   0  0  0  0  0  0  0  0  0  0  0  0
   13.6106    1.4622   23.6125 H   0  0  0  0  0  0  0  0  0  0  0  0
   11.6062   -1.7006   21.4699 H   0  0  0  0  0  0  0  0  0  0  0  0
    8.4213   -0.8245   18.1548 H   0  0  0  0  0  0  0  0  0  0  0  0
    7.8454   -5.4152   29.8718 H   0  0  0  0  0  0  0  0  0  0  0  0
    6.7652   -6.7984   29.6159 H   0  0  0  0  0  0  0  0  0  0  0  0
    6.1338   -5.1445   29.5109 H   0  0  0  0  0  0  0  0  0  0  0  0
   14.4802   -1.7247   20.0387 H   0  0  0  0  0  0  0  0  0  0  0  0
   15.3252   -2.2636   21.5295 H   0  0  0  0  0  0  0  0  0  0  0  0
   13.7816   -3.0233   21.0657 H   0  0  0  0  0  0  0  0  0  0  0  0
   10.7195    0.6680   24.2839 H   0  0  0  0  0  0  0  0  0  0  0  0
   10.6395    1.7141   22.8921 H   0  0  0  0  0  0  0  0  0  0  0  0
    6.4454   -6.1359   27.2395 H   0  0  0  0  0  0  0  0  0  0  0  0
    8.1569   -6.4335   27.5996 H   0  0  0  0  0  0  0  0  0  0  0  0
    8.6943    0.7922   23.3819 H   0  0  0  0  0  0  0  0  0  0  0  0
    7.9296   -5.3297   25.4748 H   0  0  0  0  0  0  0  0  0  0  0  0
    8.1074   -1.6160   21.1028 H   0  0  0  0  0  0  0  0  0  0  0  0
  1  2  1  0  0  0  0
  1  5  2  0  0  0  0
  2  6  2  0  0  0  0
  3  7  2  0  0  0  0
  3 12  1  0  0  0  0
  4  8  1  0  0  0  0
  4 12  2  0  0  0  0
  5 14  1  0  0  0  0
  6 15  1  0  0  0  0
  7 16  1  0  0  0  0
  8 16  2  0  0  0  0
  9 13  1  0  0  0  0
  9 24  2  0  0  0  0
 10 13  2  0  0  0  0
 10 26  1  0  0  0  0
 11 25  2  0  0  0  0
 11 27  1  0  0  0  0
 12 23  1  0  0  0  0
 13 21  1  0  0  0  0
 14 15  2  0  0  0  0
 14 25  1  0  0  0  0
 15 27  1  0  0  0  0
 16 28  1  0  0  0  0
 17 22  1  0  0  0  0
 17 28  1  0  0  0  0
 17 30  2  0  0  0  0
 18 23  1  0  0  0  0
 18 29  1  0  0  0  0
 18 31  2  0  0  0  0
 19 22  1  0  0  0  0
 20 26  1  0  0  0  0
 21 23  1  1  0  0  0
 24 26  1  0  0  0  0
 27 29  1  0  0  0  0
  1 32  1  0  0  0  0
  2 33  1  0  0  0  0
  3 34  1  0  0  0  0
  4 35  1  0  0  0  0
  5 36  1  0  0  0  0
  6 37  1  0  0  0  0
  7 38  1  0  0  0  0
  8 39  1  0  0  0  0
  9 40  1  0  0  0  0
 10 41  1  0  0  0  0
 11 42  1  0  0  0  0
 19 43  1  0  0  0  0
 19 44  1  0  0  0  0
 19 45  1  0  0  0  0
 20 46  1  0  0  0  0
 20 47  1  0  0  0  0
 20 48  1  0  0  0  0
 21 49  1  0  0  0  0
 21 50  1  0  0  0  0
 22 51  1  0  0  0  0
 22 52  1  0  0  0  0
 23 53  1  0  0  0  0
 28 54  1  0  0  0  0
 29 55  1  0  0  0  0
M  END
> <clash_score>
0

> <docking_score>
-9.798620223999023

> <overlap_score>
0.9479934573173523

$$$$
BENZO_204_2
  -OEChem-08222022453D

 57 61  0     1  0  0  0  0  0999 V2000
    3.8860    2.1050   19.5250 C   0  0  0  0  0  0  0  0  0  0  0  0
    4.2460    1.7520   20.8250 C   0  0  0  0  0  0  0  0  0  0  0  0
    9.5890   -2.4950   23.2210 C   0  0  0  0  0  0  0  0  0  0  0  0
    8.2550   -1.0010   24.5520 C   0  0  0  0  0  0  0  0  0  0  0  0
    4.6610    1.7170   18.4380 C   0  0  0  0  0  0  0  0  0  0  0  0
    5.3890    1.0010   21.0690 C   0  0  0  0  0  0  0  0  0  0  0  0
    9.1890   -3.5540   24.0140 C   0  0  0  0  0  0  0  0  0  0  0  0
    7.8700   -2.0610   25.3550 C   0  0  0  0  0  0  0  0  0  0  0  0
   13.0870   -0.3087   23.6126 C   0  0  0  0  0  0  0  0  0  0  0  0
   14.1878   -0.7845   22.9348 C   0  0  0  0  0  0  0  0  0  0  0  0
   12.3925   -0.0855   21.4058 C   0  0  0  0  0  0  0  0  0  0  0  0
    7.5840   -0.2700   18.5160 C   0  0  0  0  0  0  0  0  0  0  0  0
    9.1280   -1.2090   23.4870 C   0  0  0  0  0  0  0  0  0  0  0  0
   12.0469    0.0961   22.7270 C   0  0  0  0  0  0  0  0  0  0  0  0
    5.7970    0.9500   18.6730 C   0  0  0  0  0  0  0  0  0  0  0  0
    6.1460    0.6070   19.9750 C   0  0  0  0  0  0  0  0  0  0  0  0
    8.3450   -3.3440   25.0980 C   0  0  0  0  0  0  0  0  0  0  0  0
    9.0430    0.2380   21.4940 C   0  0  0  0  0  0  0  0  0  0  0  0
    7.9496   -4.9537   28.7345 C   0  0  0  0  0  0  0  0  0  0  0  0
    6.8919   -4.0607   28.0818 C   0  0  0  0  0  0  0  0  0  0  0  0
    9.2470   -4.9693   27.9230 C   0  0  0  0  0  0  0  0  0  0  0  0
    6.6889   -4.4385   26.6147 C   0  0  0  0  0  0  0  0  0  0  0  0
    8.9871   -5.3207   26.4549 C   0  0  0  0  0  0  0  0  0  0  0  0
   10.7220    0.6590   23.1850 C   0  0  0  0  0  0  0  0  0  0  0  0
    9.5820   -0.1080   22.7000 C   0  0  2  0  0  0  0  0  0  0  0  0
    6.7100    0.3850   17.8100 N   0  0  0  0  0  0  0  0  0  0  0  0
    7.2710   -0.1460   19.8310 N   0  0  0  0  0  0  0  0  0  0  0  0
    7.9769   -4.4027   25.9163 N   0  0  0  0  0  0  0  0  0  0  0  0
    8.0950   -0.7700   20.8440 N   0  0  0  0  0  0  0  0  0  0  0  0
    9.2950    1.3000   20.9480 O   0  0  0  0  0  0  0  0  0  0  0  0
   13.9651   -0.7419   21.2374 S   0  0  0  0  0  0  0  0  0  0  0  0
    2.9844    2.6927   19.3613 H   0  0  0  0  0  0  0  0  0  0  0  0
    3.6214    2.0680   21.6561 H   0  0  0  0  0  0  0  0  0  0  0  0
   10.2684   -2.6719   22.3867 H   0  0  0  0  0  0  0  0  0  0  0  0
    7.8717   -0.0016   24.7596 H   0  0  0  0  0  0  0  0  0  0  0  0
    4.3780    2.0103   17.4276 H   0  0  0  0  0  0  0  0  0  0  0  0
    5.6758    0.7336   22.0897 H   0  0  0  0  0  0  0  0  0  0  0  0
    9.5443   -4.5616   23.7817 H   0  0  0  0  0  0  0  0  0  0  0  0
    7.1921   -1.8821   26.1908 H   0  0  0  0  0  0  0  0  0  0  0  0
   13.0348   -0.2550   24.6927 H   0  0  0  0  0  0  0  0  0  0  0  0
   15.1124   -1.1544   23.3549 H   0  0  0  0  0  0  0  0  0  0  0  0
   11.8003    0.1355   20.5285 H   0  0  0  0  0  0  0  0  0  0  0  0
    8.4213   -0.8245   18.1548 H   0  0  0  0  0  0  0  0  0  0  0  0
    8.1558   -4.5961   29.7550 H   0  0  0  0  0  0  0  0  0  0  0  0
    7.5611   -5.9778   28.8324 H   0  0  0  0  0  0  0  0  0  0  0  0
    5.9459   -4.1594   28.6209 H   0  0  0  0  0  0  0  0  0  0  0  0
    7.2011   -3.0160   28.1536 H   0  0  0  0  0  0  0  0  0  0  0  0
    9.7290   -3.9880   27.9846 H   0  0  0  0  0  0  0  0  0  0  0  0
    9.9437   -5.6964   28.3562 H   0  0  0  0  0  0  0  0  0  0  0  0
    6.2543   -5.4402   26.5659 H   0  0  0  0  0  0  0  0  0  0  0  0
    5.9909   -3.7397   26.1451 H   0  0  0  0  0  0  0  0  0  0  0  0
    9.9128   -5.2367   25.8843 H   0  0  0  0  0  0  0  0  0  0  0  0
    8.6365   -6.3517   26.3987 H   0  0  0  0  0  0  0  0  0  0  0  0
   10.7288    0.6889   24.2835 H   0  0  0  0  0  0  0  0  0  0  0  0
   10.6393    1.7086   22.8728 H   0  0  0  0  0  0  0  0  0  0  0  0
    8.6955    0.7993   23.3793 H   0  0  0  0  0  0  0  0  0  0  0  0
    8.0815   -1.6117   21.0754 H   0  0  0  0  0  0  0  0  0  0  0  0
  1  2  1  0  0  0  0
  1  5  2  0  0  0  0
  2  6  2  0  0  0  0
  3  7  2  0  0  0  0
  3 13  1  0  0  0  0
  4  8  1  0  0  0  0
  4 13  2  0  0  0  0
  5 15  1  0  0  0  0
  6 16  1  0  0  0  0
  7 17  1  0  0  0  0
  8 17  2  0  0  0  0
  9 10  2  0  0  0  0
  9 14  1  0  0  0  0
 10 31  1  0  0  0  0
 11 14  2  0  0  0  0
 11 31  1  0  0  0  0
 12 26  2  0  0  0  0
 12 27  1  0  0  0  0
 13 25  1  0  0  0  0
 14 24  1  0  0  0  0
 15 16  2  0  0  0  0
 15 26  1  0  0  0  0
 16 27  1  0  0  0  0
 17 28  1  0  0  0  0
 18 25  1  6  0  0  0
 18 29  1  0  0  0  0
 18 30  2  0  0  0  0
 19 20  1  0  0  0  0
 19 21  1  0  0  0  0
 20 22  1  0  0  0  0
 21 23  1  0  0  0  0
 22 28  1  0  0  0  0
 23 28  1  0  0  0  0
 24 25  1  0  0  0  0
 27 29  1  0  0  0  0
  1 32  1  0  0  0  0
  2 33  1  0  0  0  0
  3 34  1  0  0  0  0
  4 35  1  0  0  0  0
  5 36  1  0  0  0  0
  6 37  1  0  0  0  0
  7 38  1  0  0  0  0
  8 39  1  0  0  0  0
  9 40  1  0  0  0  0
 10 41  1  0  0  0  0
 11 42  1  0  0  0  0
 12 43  1  0  0  0  0
 19 44  1  0  0  0  0
 19 45  1  0  0  0  0
 20 46  1  0  0  0  0
 20 47  1  0  0  0  0
 21 48  1  0  0  0  0
 21 49  1  0  0  0  0
 22 50  1  0  0  0  0
 22 51  1  0  0  0  0
 23 52  1  0  0  0  0
 23 53  1  0  0  0  0
 24 54  1  0  0  0  0
 24 55  1  0  0  0  0
 25 56  1  0  0  0  0
 29 57  1  0  0  0  0
M  END
> <clash_score>
0

> <docking_score>
-7.8851776123046875

> <overlap_score>
0.9489722847938538

$$$$
BENZO_209_1
  -OEChem-08222022453D

 48 51  0     1  0  0  0  0  0999 V2000
   14.5078   -0.9101   21.8815 C   0  0  0  0  0  0  0  0  0  0  0  0
   13.9442   -1.3530   23.0780 C   0  0  0  0  0  0  0  0  0  0  0  0
   13.8435    0.0419   21.1080 C   0  0  0  0  0  0  0  0  0  0  0  0
    3.8860    2.1050   19.5250 C   0  0  0  0  0  0  0  0  0  0  0  0
    4.2460    1.7520   20.8250 C   0  0  0  0  0  0  0  0  0  0  0  0
   12.7163   -0.8442   23.5011 C   0  0  0  0  0  0  0  0  0  0  0  0
   12.6156    0.5507   21.5310 C   0  0  0  0  0  0  0  0  0  0  0  0
    9.1890   -3.5540   24.0140 C   0  0  0  0  0  0  0  0  0  0  0  0
    7.8700   -2.0610   25.3550 C   0  0  0  0  0  0  0  0  0  0  0  0
    9.5890   -2.4950   23.2210 C   0  0  0  0  0  0  0  0  0  0  0  0
    8.2550   -1.0010   24.5520 C   0  0  0  0  0  0  0  0  0  0  0  0
    4.6610    1.7170   18.4380 C   0  0  0  0  0  0  0  0  0  0  0  0
    5.3890    1.0010   21.0690 C   0  0  0  0  0  0  0  0  0  0  0  0
    7.5840   -0.2700   18.5160 C   0  0  0  0  0  0  0  0  0  0  0  0
    8.3450   -3.3440   25.0980 C   0  0  0  0  0  0  0  0  0  0  0  0
   12.0519    0.1077   22.7276 C   0  0  0  0  0  0  0  0  0  0  0  0
    9.1280   -1.2090   23.4870 C   0  0  0  0  0  0  0  0  0  0  0  0
    5.7970    0.9500   18.6730 C   0  0  0  0  0  0  0  0  0  0  0  0
    6.1460    0.6070   19.9750 C   0  0  0  0  0  0  0  0  0  0  0  0
    9.0430    0.2380   21.4940 C   0  0  0  0  0  0  0  0  0  0  0  0
    7.9517   -4.4787   25.9770 C   0  0  0  0  0  0  0  0  0  0  0  0
   10.7220    0.6590   23.1850 C   0  0  0  0  0  0  0  0  0  0  0  0
    9.5820   -0.1080   22.7000 C   0  0  1  0  0  0  0  0  0  0  0  0
    6.7100    0.3850   17.8100 N   0  0  0  0  0  0  0  0  0  0  0  0
    7.2710   -0.1460   19.8310 N   0  0  0  0  0  0  0  0  0  0  0  0
    8.0950   -0.7700   20.8440 N   0  0  0  0  0  0  0  0  0  0  0  0
    9.2950    1.3000   20.9480 O   0  0  0  0  0  0  0  0  0  0  0  0
   15.4645   -1.3054   21.5529 H   0  0  0  0  0  0  0  0  0  0  0  0
   14.4618   -2.0934   23.6809 H   0  0  0  0  0  0  0  0  0  0  0  0
   14.2825    0.3878   20.1769 H   0  0  0  0  0  0  0  0  0  0  0  0
    2.9844    2.6927   19.3613 H   0  0  0  0  0  0  0  0  0  0  0  0
    3.6214    2.0680   21.6561 H   0  0  0  0  0  0  0  0  0  0  0  0
   12.2846   -1.1954   24.4346 H   0  0  0  0  0  0  0  0  0  0  0  0
   12.1051    1.2920   20.9218 H   0  0  0  0  0  0  0  0  0  0  0  0
    9.5416   -4.5625   23.7818 H   0  0  0  0  0  0  0  0  0  0  0  0
    7.1926   -1.8847   26.1916 H   0  0  0  0  0  0  0  0  0  0  0  0
   10.2688   -2.6720   22.3870 H   0  0  0  0  0  0  0  0  0  0  0  0
    7.8705   -0.0015   24.7579 H   0  0  0  0  0  0  0  0  0  0  0  0
    4.3780    2.0103   17.4276 H   0  0  0  0  0  0  0  0  0  0  0  0
    5.6758    0.7336   22.0897 H   0  0  0  0  0  0  0  0  0  0  0  0
    8.4213   -0.8245   18.1548 H   0  0  0  0  0  0  0  0  0  0  0  0
    8.6661   -4.5883   26.8021 H   0  0  0  0  0  0  0  0  0  0  0  0
    6.9508   -4.3263   26.4014 H   0  0  0  0  0  0  0  0  0  0  0  0
    7.9188   -5.4228   25.4175 H   0  0  0  0  0  0  0  0  0  0  0  0
   10.7195    0.6680   24.2839 H   0  0  0  0  0  0  0  0  0  0  0  0
   10.6395    1.7141   22.8921 H   0  0  0  0  0  0  0  0  0  0  0  0
    8.6943    0.7922   23.3819 H   0  0  0  0  0  0  0  0  0  0  0  0
    8.1074   -1.6160   21.1028 H   0  0  0  0  0  0  0  0  0  0  0  0
  1  2  1  0  0  0  0
  1  3  2  0  0  0  0
  2  6  2  0  0  0  0
  3  7  1  0  0  0  0
  4  5  1  0  0  0  0
  4 12  2  0  0  0  0
  5 13  2  0  0  0  0
  6 16  1  0  0  0  0
  7 16  2  0  0  0  0
  8 10  2  0  0  0  0
  8 15  1  0  0  0  0
  9 11  1  0  0  0  0
  9 15  2  0  0  0  0
 10 17  1  0  0  0  0
 11 17  2  0  0  0  0
 12 18  1  0  0  0  0
 13 19  1  0  0  0  0
 14 24  2  0  0  0  0
 14 25  1  0  0  0  0
 15 21  1  0  0  0  0
 16 22  1  0  0  0  0
 17 23  1  0  0  0  0
 18 19  2  0  0  0  0
 18 24  1  0  0  0  0
 19 25  1  0  0  0  0
 20 23  1  0  0  0  0
 20 26  1  0  0  0  0
 20 27  2  0  0  0  0
 22 23  1  1  0  0  0
 25 26  1  0  0  0  0
  1 28  1  0  0  0  0
  2 29  1  0  0  0  0
  3 30  1  0  0  0  0
  4 31  1  0  0  0  0
  5 32  1  0  0  0  0
  6 33  1  0  0  0  0
  7 34  1  0  0  0  0
  8 35  1  0  0  0  0
  9 36  1  0  0  0  0
 10 37  1  0  0  0  0
 11 38  1  0  0  0  0
 12 39  1  0  0  0  0
 13 40  1  0  0  0  0
 14 41  1  0  0  0  0
 21 42  1  0  0  0  0
 21 43  1  0  0  0  0
 21 44  1  0  0  0  0
 22 45  1  0  0  0  0
 22 46  1  0  0  0  0
 23 47  1  0  0  0  0
 26 48  1  0  0  0  0
M  END
> <clash_score>
0

> <docking_score>
-6.95249080657959

> <overlap_score>
0.8694383502006531

$$$$
BENZO_209_2
  -OEChem-08222022453D

 48 51  0     1  0  0  0  0  0999 V2000
   14.0513   -1.7974   24.3577 C   0  0  0  0  0  0  0  0  0  0  0  0
   13.0726   -1.4574   25.2916 C   0  0  0  0  0  0  0  0  0  0  0  0
   13.9501   -1.3405   23.0436 C   0  0  0  0  0  0  0  0  0  0  0  0
    3.8860    2.1050   19.5250 C   0  0  0  0  0  0  0  0  0  0  0  0
    4.2460    1.7520   20.8250 C   0  0  0  0  0  0  0  0  0  0  0  0
   11.9927   -0.6606   24.9115 C   0  0  0  0  0  0  0  0  0  0  0  0
   12.8701   -0.5437   22.6635 C   0  0  0  0  0  0  0  0  0  0  0  0
    9.1890   -3.5540   24.0140 C   0  0  0  0  0  0  0  0  0  0  0  0
    7.8700   -2.0610   25.3550 C   0  0  0  0  0  0  0  0  0  0  0  0
    9.5890   -2.4950   23.2210 C   0  0  0  0  0  0  0  0  0  0  0  0
    8.2550   -1.0010   24.5520 C   0  0  0  0  0  0  0  0  0  0  0  0
    4.6610    1.7170   18.4380 C   0  0  0  0  0  0  0  0  0  0  0  0
    5.3890    1.0010   21.0690 C   0  0  0  0  0  0  0  0  0  0  0  0
    7.5840   -0.2700   18.5160 C   0  0  0  0  0  0  0  0  0  0  0  0
    8.3450   -3.3440   25.0980 C   0  0  0  0  0  0  0  0  0  0  0  0
   11.8914   -0.2037   23.5974 C   0  0  0  0  0  0  0  0  0  0  0  0
    9.1280   -1.2090   23.4870 C   0  0  0  0  0  0  0  0  0  0  0  0
    5.7970    0.9500   18.6730 C   0  0  0  0  0  0  0  0  0  0  0  0
    6.1460    0.6070   19.9750 C   0  0  0  0  0  0  0  0  0  0  0  0
    9.0430    0.2380   21.4940 C   0  0  0  0  0  0  0  0  0  0  0  0
    7.9517   -4.4787   25.9770 C   0  0  0  0  0  0  0  0  0  0  0  0
   10.7220    0.6590   23.1850 C   0  0  0  0  0  0  0  0  0  0  0  0
    9.5820   -0.1080   22.7000 C   0  0  2  0  0  0  0  0  0  0  0  0
    6.7100    0.3850   17.8100 N   0  0  0  0  0  0  0  0  0  0  0  0
    7.2710   -0.1460   19.8310 N   0  0  0  0  0  0  0  0  0  0  0  0
    8.0950   -0.7700   20.8440 N   0  0  0  0  0  0  0  0  0  0  0  0
    9.2950    1.3000   20.9480 O   0  0  0  0  0  0  0  0  0  0  0  0
   14.8928   -2.4167   24.6542 H   0  0  0  0  0  0  0  0  0  0  0  0
   13.1518   -1.8121   26.3151 H   0  0  0  0  0  0  0  0  0  0  0  0
   14.7124   -1.6041   22.3165 H   0  0  0  0  0  0  0  0  0  0  0  0
    2.9844    2.6927   19.3613 H   0  0  0  0  0  0  0  0  0  0  0  0
    3.6214    2.0680   21.6561 H   0  0  0  0  0  0  0  0  0  0  0  0
   11.2348   -0.4008   25.6459 H   0  0  0  0  0  0  0  0  0  0  0  0
   12.7995   -0.1925   21.6375 H   0  0  0  0  0  0  0  0  0  0  0  0
    9.5416   -4.5625   23.7818 H   0  0  0  0  0  0  0  0  0  0  0  0
    7.1926   -1.8847   26.1916 H   0  0  0  0  0  0  0  0  0  0  0  0
   10.2688   -2.6720   22.3870 H   0  0  0  0  0  0  0  0  0  0  0  0
    7.8705   -0.0015   24.7579 H   0  0  0  0  0  0  0  0  0  0  0  0
    4.3780    2.0103   17.4276 H   0  0  0  0  0  0  0  0  0  0  0  0
    5.6758    0.7336   22.0897 H   0  0  0  0  0  0  0  0  0  0  0  0
    8.4213   -0.8245   18.1548 H   0  0  0  0  0  0  0  0  0  0  0  0
    8.6661   -4.5883   26.8021 H   0  0  0  0  0  0  0  0  0  0  0  0
    6.9508   -4.3263   26.4014 H   0  0  0  0  0  0  0  0  0  0  0  0
    7.9188   -5.4228   25.4175 H   0  0  0  0  0  0  0  0  0  0  0  0
   10.4198    1.2578   24.0555 H   0  0  0  0  0  0  0  0  0  0  0  0
   11.0503    1.3920   22.4361 H   0  0  0  0  0  0  0  0  0  0  0  0
   10.5231   -0.9933   22.0106 H   0  0  0  0  0  0  0  0  0  0  0  0
    8.1074   -1.6160   21.1028 H   0  0  0  0  0  0  0  0  0  0  0  0
  1  2  1  0  0  0  0
  1  3  2  0  0  0  0
  2  6  2  0  0  0  0
  3  7  1  0  0  0  0
  4  5  1  0  0  0  0
  4 12  2  0  0  0  0
  5 13  2  0  0  0  0
  6 16  1  0  0  0  0
  7 16  2  0  0  0  0
  8 10  2  0  0  0  0
  8 15  1  0  0  0  0
  9 11  1  0  0  0  0
  9 15  2  0  0  0  0
 10 17  1  0  0  0  0
 11 17  2  0  0  0  0
 12 18  1  0  0  0  0
 13 19  1  0  0  0  0
 14 24  2  0  0  0  0
 14 25  1  0  0  0  0
 15 21  1  0  0  0  0
 16 22  1  0  0  0  0
 17 23  1  0  0  0  0
 18 19  2  0  0  0  0
 18 24  1  0  0  0  0
 19 25  1  0  0  0  0
 20 23  1  0  0  0  0
 20 26  1  0  0  0  0
 20 27  2  0  0  0  0
 22 23  1  6  0  0  0
 25 26  1  0  0  0  0
  1 28  1  0  0  0  0
  2 29  1  0  0  0  0
  3 30  1  0  0  0  0
  4 31  1  0  0  0  0
  5 32  1  0  0  0  0
  6 33  1  0  0  0  0
  7 34  1  0  0  0  0
  8 35  1  0  0  0  0
  9 36  1  0  0  0  0
 10 37  1  0  0  0  0
 11 38  1  0  0  0  0
 12 39  1  0  0  0  0
 13 40  1  0  0  0  0
 14 41  1  0  0  0  0
 21 42  1  0  0  0  0
 21 43  1  0  0  0  0
 21 44  1  0  0  0  0
 22 45  1  0  0  0  0
 22 46  1  0  0  0  0
 23 47  1  0  0  0  0
 26 48  1  0  0  0  0
M  END
> <clash_score>
0

> <docking_score>
-7.8643798828125

> <overlap_score>
0.8841537237167358

$$$$
BENZO_208_1
  -OEChem-08222022453D

 45 48  0     1  0  0  0  0  0999 V2000
    3.8860    2.1050   19.5250 C   0  0  0  0  0  0  0  0  0  0  0  0
    4.2460    1.7520   20.8250 C   0  0  0  0  0  0  0  0  0  0  0  0
    9.1890   -3.5540   24.0140 C   0  0  0  0  0  0  0  0  0  0  0  0
    7.8700   -2.0610   25.3550 C   0  0  0  0  0  0  0  0  0  0  0  0
    9.5890   -2.4950   23.2210 C   0  0  0  0  0  0  0  0  0  0  0  0
    8.2550   -1.0010   24.5520 C   0  0  0  0  0  0  0  0  0  0  0  0
    4.6610    1.7170   18.4380 C   0  0  0  0  0  0  0  0  0  0  0  0
    5.3890    1.0010   21.0690 C   0  0  0  0  0  0  0  0  0  0  0  0
   13.0855   -0.3117   23.6141 C   0  0  0  0  0  0  0  0  0  0  0  0
   14.1930   -0.7722   22.9367 C   0  0  0  0  0  0  0  0  0  0  0  0
   12.4091   -0.0480   21.4061 C   0  0  0  0  0  0  0  0  0  0  0  0
    7.5840   -0.2700   18.5160 C   0  0  0  0  0  0  0  0  0  0  0  0
    8.3450   -3.3440   25.0980 C   0  0  0  0  0  0  0  0  0  0  0  0
    9.1280   -1.2090   23.4870 C   0  0  0  0  0  0  0  0  0  0  0  0
   12.0519    0.1077   22.7276 C   0  0  0  0  0  0  0  0  0  0  0  0
    5.7970    0.9500   18.6730 C   0  0  0  0  0  0  0  0  0  0  0  0
    6.1460    0.6070   19.9750 C   0  0  0  0  0  0  0  0  0  0  0  0
    9.0430    0.2380   21.4940 C   0  0  0  0  0  0  0  0  0  0  0  0
    7.9517   -4.4787   25.9770 C   0  0  0  0  0  0  0  0  0  0  0  0
   10.7220    0.6590   23.1850 C   0  0  0  0  0  0  0  0  0  0  0  0
    9.5820   -0.1080   22.7000 C   0  0  1  0  0  0  0  0  0  0  0  0
    6.7100    0.3850   17.8100 N   0  0  0  0  0  0  0  0  0  0  0  0
    7.2710   -0.1460   19.8310 N   0  0  0  0  0  0  0  0  0  0  0  0
    8.0950   -0.7700   20.8440 N   0  0  0  0  0  0  0  0  0  0  0  0
    9.2950    1.3000   20.9480 O   0  0  0  0  0  0  0  0  0  0  0  0
   13.9845   -0.6978   21.2387 S   0  0  0  0  0  0  0  0  0  0  0  0
    2.9844    2.6927   19.3613 H   0  0  0  0  0  0  0  0  0  0  0  0
    3.6214    2.0680   21.6561 H   0  0  0  0  0  0  0  0  0  0  0  0
    9.5416   -4.5625   23.7818 H   0  0  0  0  0  0  0  0  0  0  0  0
    7.1926   -1.8847   26.1916 H   0  0  0  0  0  0  0  0  0  0  0  0
   10.2688   -2.6720   22.3870 H   0  0  0  0  0  0  0  0  0  0  0  0
    7.8705   -0.0015   24.7579 H   0  0  0  0  0  0  0  0  0  0  0  0
    4.3780    2.0103   17.4276 H   0  0  0  0  0  0  0  0  0  0  0  0
    5.6758    0.7336   22.0897 H   0  0  0  0  0  0  0  0  0  0  0  0
   13.0241   -0.2787   24.6946 H   0  0  0  0  0  0  0  0  0  0  0  0
   15.1149   -1.1481   23.3576 H   0  0  0  0  0  0  0  0  0  0  0  0
   11.8238    0.1885   20.5283 H   0  0  0  0  0  0  0  0  0  0  0  0
    8.4213   -0.8245   18.1548 H   0  0  0  0  0  0  0  0  0  0  0  0
    8.6661   -4.5883   26.8021 H   0  0  0  0  0  0  0  0  0  0  0  0
    6.9508   -4.3263   26.4014 H   0  0  0  0  0  0  0  0  0  0  0  0
    7.9188   -5.4228   25.4175 H   0  0  0  0  0  0  0  0  0  0  0  0
   10.7195    0.6680   24.2839 H   0  0  0  0  0  0  0  0  0  0  0  0
   10.6395    1.7141   22.8921 H   0  0  0  0  0  0  0  0  0  0  0  0
    8.6943    0.7922   23.3819 H   0  0  0  0  0  0  0  0  0  0  0  0
    8.1074   -1.6160   21.1028 H   0  0  0  0  0  0  0  0  0  0  0  0
  1  2  1  0  0  0  0
  1  7  2  0  0  0  0
  2  8  2  0  0  0  0
  3  5  2  0  0  0  0
  3 13  1  0  0  0  0
  4  6  1  0  0  0  0
  4 13  2  0  0  0  0
  5 14  1  0  0  0  0
  6 14  2  0  0  0  0
  7 16  1  0  0  0  0
  8 17  1  0  0  0  0
  9 10  2  0  0  0  0
  9 15  1  0  0  0  0
 10 26  1  0  0  0  0
 11 15  2  0  0  0  0
 11 26  1  0  0  0  0
 12 22  2  0  0  0  0
 12 23  1  0  0  0  0
 13 19  1  0  0  0  0
 14 21  1  0  0  0  0
 15 20  1  0  0  0  0
 16 17  2  0  0  0  0
 16 22  1  0  0  0  0
 17 23  1  0  0  0  0
 18 21  1  0  0  0  0
 18 24  1  0  0  0  0
 18 25  2  0  0  0  0
 20 21  1  1  0  0  0
 23 24  1  0  0  0  0
  1 27  1  0  0  0  0
  2 28  1  0  0  0  0
  3 29  1  0  0  0  0
  4 30  1  0  0  0  0
  5 31  1  0  0  0  0
  6 32  1  0  0  0  0
  7 33  1  0  0  0  0
  8 34  1  0  0  0  0
  9 35  1  0  0  0  0
 10 36  1  0  0  0  0
 11 37  1  0  0  0  0
 12 38  1  0  0  0  0
 19 39  1  0  0  0  0
 19 40  1  0  0  0  0
 19 41  1  0  0  0  0
 20 42  1  0  0  0  0
 20 43  1  0  0  0  0
 21 44  1  0  0  0  0
 24 45  1  0  0  0  0
M  END
> <clash_score>
0

> <docking_score>
-7.017458915710449

> <overlap_score>
0.8597096800804138

$$$$
BENZO_208_2
  -OEChem-08222022453D

 45 48  0     1  0  0  0  0  0999 V2000
    3.8860    2.1050   19.5250 C   0  0  0  0  0  0  0  0  0  0  0  0
    4.2460    1.7520   20.8250 C   0  0  0  0  0  0  0  0  0  0  0  0
    9.1890   -3.5540   24.0140 C   0  0  0  0  0  0  0  0  0  0  0  0
    7.8700   -2.0610   25.3550 C   0  0  0  0  0  0  0  0  0  0  0  0
    9.5890   -2.4950   23.2210 C   0  0  0  0  0  0  0  0  0  0  0  0
    8.2550   -1.0010   24.5520 C   0  0  0  0  0  0  0  0  0  0  0  0
    4.6610    1.7170   18.4380 C   0  0  0  0  0  0  0  0  0  0  0  0
    5.3890    1.0010   21.0690 C   0  0  0  0  0  0  0  0  0  0  0  0
   12.5521   -1.1164   22.7252 C   0  0  0  0  0  0  0  0  0  0  0  0
   13.5845   -1.7774   23.3535 C   0  0  0  0  0  0  0  0  0  0  0  0
   12.4440   -0.2022   24.8594 C   0  0  0  0  0  0  0  0  0  0  0  0
    7.5840   -0.2700   18.5160 C   0  0  0  0  0  0  0  0  0  0  0  0
    8.3450   -3.3440   25.0980 C   0  0  0  0  0  0  0  0  0  0  0  0
    9.1280   -1.2090   23.4870 C   0  0  0  0  0  0  0  0  0  0  0  0
   11.8914   -0.2037   23.5974 C   0  0  0  0  0  0  0  0  0  0  0  0
    5.7970    0.9500   18.6730 C   0  0  0  0  0  0  0  0  0  0  0  0
    6.1460    0.6070   19.9750 C   0  0  0  0  0  0  0  0  0  0  0  0
    9.0430    0.2380   21.4940 C   0  0  0  0  0  0  0  0  0  0  0  0
    7.9517   -4.4787   25.9770 C   0  0  0  0  0  0  0  0  0  0  0  0
   10.7220    0.6590   23.1850 C   0  0  0  0  0  0  0  0  0  0  0  0
    9.5820   -0.1080   22.7000 C   0  0  2  0  0  0  0  0  0  0  0  0
    6.7100    0.3850   17.8100 N   0  0  0  0  0  0  0  0  0  0  0  0
    7.2710   -0.1460   19.8310 N   0  0  0  0  0  0  0  0  0  0  0  0
    8.0950   -0.7700   20.8440 N   0  0  0  0  0  0  0  0  0  0  0  0
    9.2950    1.3000   20.9480 O   0  0  0  0  0  0  0  0  0  0  0  0
   13.7539   -1.2974   24.9886 S   0  0  0  0  0  0  0  0  0  0  0  0
    2.9844    2.6927   19.3613 H   0  0  0  0  0  0  0  0  0  0  0  0
    3.6214    2.0680   21.6561 H   0  0  0  0  0  0  0  0  0  0  0  0
    9.5416   -4.5625   23.7818 H   0  0  0  0  0  0  0  0  0  0  0  0
    7.1926   -1.8847   26.1916 H   0  0  0  0  0  0  0  0  0  0  0  0
   10.2688   -2.6720   22.3870 H   0  0  0  0  0  0  0  0  0  0  0  0
    7.8705   -0.0015   24.7579 H   0  0  0  0  0  0  0  0  0  0  0  0
    4.3780    2.0103   17.4276 H   0  0  0  0  0  0  0  0  0  0  0  0
    5.6758    0.7336   22.0897 H   0  0  0  0  0  0  0  0  0  0  0  0
   12.2866   -1.2830   21.6889 H   0  0  0  0  0  0  0  0  0  0  0  0
   14.2469   -2.5196   22.9310 H   0  0  0  0  0  0  0  0  0  0  0  0
   12.1435    0.3871   25.7147 H   0  0  0  0  0  0  0  0  0  0  0  0
    8.4213   -0.8245   18.1548 H   0  0  0  0  0  0  0  0  0  0  0  0
    8.6661   -4.5883   26.8021 H   0  0  0  0  0  0  0  0  0  0  0  0
    6.9508   -4.3263   26.4014 H   0  0  0  0  0  0  0  0  0  0  0  0
    7.9188   -5.4228   25.4175 H   0  0  0  0  0  0  0  0  0  0  0  0
   10.4198    1.2578   24.0555 H   0  0  0  0  0  0  0  0  0  0  0  0
   11.0503    1.3920   22.4361 H   0  0  0  0  0  0  0  0  0  0  0  0
   10.5231   -0.9933   22.0106 H   0  0  0  0  0  0  0  0  0  0  0  0
    8.1074   -1.6160   21.1028 H   0  0  0  0  0  0  0  0  0  0  0  0
  1  2  1  0  0  0  0
  1  7  2  0  0  0  0
  2  8  2  0  0  0  0
  3  5  2  0  0  0  0
  3 13  1  0  0  0  0
  4  6  1  0  0  0  0
  4 13  2  0  0  0  0
  5 14  1  0  0  0  0
  6 14  2  0  0  0  0
  7 16  1  0  0  0  0
  8 17  1  0  0  0  0
  9 10  2  0  0  0  0
  9 15  1  0  0  0  0
 10 26  1  0  0  0  0
 11 15  2  0  0  0  0
 11 26  1  0  0  0  0
 12 22  2  0  0  0  0
 12 23  1  0  0  0  0
 13 19  1  0  0  0  0
 14 21  1  0  0  0  0
 15 20  1  0  0  0  0
 16 17  2  0  0  0  0
 16 22  1  0  0  0  0
 17 23  1  0  0  0  0
 18 21  1  0  0  0  0
 18 24  1  0  0  0  0
 18 25  2  0  0  0  0
 20 21  1  6  0  0  0
 23 24  1  0  0  0  0
  1 27  1  0  0  0  0
  2 28  1  0  0  0  0
  3 29  1  0  0  0  0
  4 30  1  0  0  0  0
  5 31  1  0  0  0  0
  6 32  1  0  0  0  0
  7 33  1  0  0  0  0
  8 34  1  0  0  0  0
  9 35  1  0  0  0  0
 10 36  1  0  0  0  0
 11 37  1  0  0  0  0
 12 38  1  0  0  0  0
 19 39  1  0  0  0  0
 19 40  1  0  0  0  0
 19 41  1  0  0  0  0
 20 42  1  0  0  0  0
 20 43  1  0  0  0  0
 21 44  1  0  0  0  0
 24 45  1  0  0  0  0
M  END
> <clash_score>
0

> <docking_score>
-8.3453369140625

> <overlap_score>
0.8743693828582764

$$$$
BENZO_207_2
  -OEChem-08222022453D

 60 64  0     1  0  0  0  0  0999 V2000
    3.8860    2.1050   19.5250 C   0  0  0  0  0  0  0  0  0  0  0  0
    4.2460    1.7520   20.8250 C   0  0  0  0  0  0  0  0  0  0  0  0
    9.5890   -2.4950   23.2210 C   0  0  0  0  0  0  0  0  0  0  0  0
    8.2550   -1.0010   24.5520 C   0  0  0  0  0  0  0  0  0  0  0  0
    4.6610    1.7170   18.4380 C   0  0  0  0  0  0  0  0  0  0  0  0
    5.3890    1.0010   21.0690 C   0  0  0  0  0  0  0  0  0  0  0  0
    9.1890   -3.5540   24.0140 C   0  0  0  0  0  0  0  0  0  0  0  0
    7.8700   -2.0610   25.3550 C   0  0  0  0  0  0  0  0  0  0  0  0
   12.1481   -0.7687   24.8588 C   0  0  0  0  0  0  0  0  0  0  0  0
   12.9278   -0.6432   22.8067 C   0  0  0  0  0  0  0  0  0  0  0  0
    7.5840   -0.2700   18.5160 C   0  0  0  0  0  0  0  0  0  0  0  0
    9.1280   -1.2090   23.4870 C   0  0  0  0  0  0  0  0  0  0  0  0
   11.8866   -0.2127   23.5922 C   0  0  0  0  0  0  0  0  0  0  0  0
    5.7970    0.9500   18.6730 C   0  0  0  0  0  0  0  0  0  0  0  0
    6.1460    0.6070   19.9750 C   0  0  0  0  0  0  0  0  0  0  0  0
    8.3450   -3.3440   25.0980 C   0  0  0  0  0  0  0  0  0  0  0  0
    9.0430    0.2380   21.4940 C   0  0  0  0  0  0  0  0  0  0  0  0
    7.9496   -4.9537   28.7345 C   0  0  0  0  0  0  0  0  0  0  0  0
    6.8919   -4.0607   28.0818 C   0  0  0  0  0  0  0  0  0  0  0  0
    9.2470   -4.9693   27.9230 C   0  0  0  0  0  0  0  0  0  0  0  0
    6.6889   -4.4385   26.6147 C   0  0  0  0  0  0  0  0  0  0  0  0
    8.9871   -5.3207   26.4549 C   0  0  0  0  0  0  0  0  0  0  0  0
   14.9394   -2.0726   23.2413 C   0  0  0  0  0  0  0  0  0  0  0  0
   10.7220    0.6590   23.1850 C   0  0  0  0  0  0  0  0  0  0  0  0
    9.5820   -0.1080   22.7000 C   0  0  2  0  0  0  0  0  0  0  0  0
   13.2676   -1.4968   24.8812 N   0  0  0  0  0  0  0  0  0  0  0  0
    6.7100    0.3850   17.8100 N   0  0  0  0  0  0  0  0  0  0  0  0
   13.7187   -1.4015   23.6188 N   0  0  0  0  0  0  0  0  0  0  0  0
    7.2710   -0.1460   19.8310 N   0  0  0  0  0  0  0  0  0  0  0  0
    7.9769   -4.4027   25.9163 N   0  0  0  0  0  0  0  0  0  0  0  0
    8.0950   -0.7700   20.8440 N   0  0  0  0  0  0  0  0  0  0  0  0
    9.2950    1.3000   20.9480 O   0  0  0  0  0  0  0  0  0  0  0  0
    2.9844    2.6927   19.3613 H   0  0  0  0  0  0  0  0  0  0  0  0
    3.6214    2.0680   21.6561 H   0  0  0  0  0  0  0  0  0  0  0  0
   10.2684   -2.6719   22.3867 H   0  0  0  0  0  0  0  0  0  0  0  0
    7.8717   -0.0016   24.7596 H   0  0  0  0  0  0  0  0  0  0  0  0
    4.3780    2.0103   17.4276 H   0  0  0  0  0  0  0  0  0  0  0  0
    5.6758    0.7335   22.0897 H   0  0  0  0  0  0  0  0  0  0  0  0
    9.5443   -4.5616   23.7817 H   0  0  0  0  0  0  0  0  0  0  0  0
    7.1921   -1.8821   26.1908 H   0  0  0  0  0  0  0  0  0  0  0  0
   11.5706   -0.6757   25.7677 H   0  0  0  0  0  0  0  0  0  0  0  0
   13.1667   -0.4796   21.7645 H   0  0  0  0  0  0  0  0  0  0  0  0
    8.4213   -0.8245   18.1548 H   0  0  0  0  0  0  0  0  0  0  0  0
    8.1558   -4.5961   29.7550 H   0  0  0  0  0  0  0  0  0  0  0  0
    7.5611   -5.9778   28.8324 H   0  0  0  0  0  0  0  0  0  0  0  0
    5.9459   -4.1594   28.6209 H   0  0  0  0  0  0  0  0  0  0  0  0
    7.2011   -3.0160   28.1536 H   0  0  0  0  0  0  0  0  0  0  0  0
    9.7290   -3.9880   27.9846 H   0  0  0  0  0  0  0  0  0  0  0  0
    9.9437   -5.6964   28.3562 H   0  0  0  0  0  0  0  0  0  0  0  0
    6.2543   -5.4402   26.5659 H   0  0  0  0  0  0  0  0  0  0  0  0
    5.9909   -3.7397   26.1451 H   0  0  0  0  0  0  0  0  0  0  0  0
    9.9128   -5.2367   25.8843 H   0  0  0  0  0  0  0  0  0  0  0  0
    8.6365   -6.3517   26.3987 H   0  0  0  0  0  0  0  0  0  0  0  0
   15.7702   -1.3830   23.4123 H   0  0  0  0  0  0  0  0  0  0  0  0
   15.0610   -2.9751   23.8468 H   0  0  0  0  0  0  0  0  0  0  0  0
   14.8856   -2.3540   22.1859 H   0  0  0  0  0  0  0  0  0  0  0  0
   10.4364    1.2691   24.0532 H   0  0  0  0  0  0  0  0  0  0  0  0
   11.0496    1.3814   22.4256 H   0  0  0  0  0  0  0  0  0  0  0  0
   10.5267   -0.9929   22.0072 H   0  0  0  0  0  0  0  0  0  0  0  0
    8.0815   -1.6117   21.0754 H   0  0  0  0  0  0  0  0  0  0  0  0
  1  2  1  0  0  0  0
  1  5  2  0  0  0  0
  2  6  2  0  0  0  0
  3  7  2  0  0  0  0
  3 12  1  0  0  0  0
  4  8  1  0  0  0  0
  4 12  2  0  0  0  0
  5 14  1  0  0  0  0
  6 15  1  0  0  0  0
  7 16  1  0  0  0  0
  8 16  2  0  0  0  0
  9 13  1  0  0  0  0
  9 26  2  0  0  0  0
 10 13  2  0  0  0  0
 10 28  1  0  0  0  0
 11 27  2  0  0  0  0
 11 29  1  0  0  0  0
 12 25  1  0  0  0  0
 13 24  1  0  0  0  0
 14 15  2  0  0  0  0
 14 27  1  0  0  0  0
 15 29  1  0  0  0  0
 16 30  1  0  0  0  0
 17 25  1  0  0  0  0
 17 31  1  0  0  0  0
 17 32  2  0  0  0  0
 18 19  1  0  0  0  0
 18 20  1  0  0  0  0
 19 21  1  0  0  0  0
 20 22  1  0  0  0  0
 21 30  1  0  0  0  0
 22 30  1  0  0  0  0
 23 28  1  0  0  0  0
 24 25  1  6  0  0  0
 26 28  1  0  0  0  0
 29 31  1  0  0  0  0
  1 33  1  0  0  0  0
  2 34  1  0  0  0  0
  3 35  1  0  0  0  0
  4 36  1  0  0  0  0
  5 37  1  0  0  0  0
  6 38  1  0  0  0  0
  7 39  1  0  0  0  0
  8 40  1  0  0  0  0
  9 41  1  0  0  0  0
 10 42  1  0  0  0  0
 11 43  1  0  0  0  0
 18 44  1  0  0  0  0
 18 45  1  0  0  0  0
 19 46  1  0  0  0  0
 19 47  1  0  0  0  0
 20 48  1  0  0  0  0
 20 49  1  0  0  0  0
 21 50  1  0  0  0  0
 21 51  1  0  0  0  0
 22 52  1  0  0  0  0
 22 53  1  0  0  0  0
 23 54  1  0  0  0  0
 23 55  1  0  0  0  0
 23 56  1  0  0  0  0
 24 57  1  0  0  0  0
 24 58  1  0  0  0  0
 25 59  1  0  0  0  0
 31 60  1  0  0  0  0
M  END
> <clash_score>
0

> <docking_score>
-7.705427169799805

> <overlap_score>
0.9738388061523438

$$$$
BENZO_207_1
  -OEChem-08222022453D

 60 64  0     1  0  0  0  0  0999 V2000
    3.8860    2.1050   19.5250 C   0  0  0  0  0  0  0  0  0  0  0  0
    4.2460    1.7520   20.8250 C   0  0  0  0  0  0  0  0  0  0  0  0
    9.5890   -2.4950   23.2210 C   0  0  0  0  0  0  0  0  0  0  0  0
    8.2550   -1.0010   24.5520 C   0  0  0  0  0  0  0  0  0  0  0  0
    4.6610    1.7170   18.4380 C   0  0  0  0  0  0  0  0  0  0  0  0
    5.3890    1.0010   21.0690 C   0  0  0  0  0  0  0  0  0  0  0  0
    9.1890   -3.5540   24.0140 C   0  0  0  0  0  0  0  0  0  0  0  0
    7.8700   -2.0610   25.3550 C   0  0  0  0  0  0  0  0  0  0  0  0
   13.2863    0.1542   23.3919 C   0  0  0  0  0  0  0  0  0  0  0  0
   12.3112   -0.5906   21.5672 C   0  0  0  0  0  0  0  0  0  0  0  0
    7.5840   -0.2700   18.5160 C   0  0  0  0  0  0  0  0  0  0  0  0
    9.1280   -1.2090   23.4870 C   0  0  0  0  0  0  0  0  0  0  0  0
   12.0469    0.0961   22.7270 C   0  0  0  0  0  0  0  0  0  0  0  0
    5.7970    0.9500   18.6730 C   0  0  0  0  0  0  0  0  0  0  0  0
    6.1460    0.6070   19.9750 C   0  0  0  0  0  0  0  0  0  0  0  0
    8.3450   -3.3440   25.0980 C   0  0  0  0  0  0  0  0  0  0  0  0
    9.0430    0.2380   21.4940 C   0  0  0  0  0  0  0  0  0  0  0  0
    7.9496   -4.9537   28.7345 C   0  0  0  0  0  0  0  0  0  0  0  0
    6.8919   -4.0607   28.0818 C   0  0  0  0  0  0  0  0  0  0  0  0
    9.2470   -4.9693   27.9230 C   0  0  0  0  0  0  0  0  0  0  0  0
    6.6889   -4.4385   26.6147 C   0  0  0  0  0  0  0  0  0  0  0  0
    8.9871   -5.3207   26.4549 C   0  0  0  0  0  0  0  0  0  0  0  0
   14.3866   -1.6105   20.6020 C   0  0  0  0  0  0  0  0  0  0  0  0
   10.7220    0.6590   23.1850 C   0  0  0  0  0  0  0  0  0  0  0  0
    9.5820   -0.1080   22.7000 C   0  0  1  0  0  0  0  0  0  0  0  0
   14.2653   -0.4478   22.7113 N   0  0  0  0  0  0  0  0  0  0  0  0
    6.7100    0.3850   17.8100 N   0  0  0  0  0  0  0  0  0  0  0  0
   13.6411   -0.8907   21.6066 N   0  0  0  0  0  0  0  0  0  0  0  0
    7.2710   -0.1460   19.8310 N   0  0  0  0  0  0  0  0  0  0  0  0
    7.9769   -4.4027   25.9163 N   0  0  0  0  0  0  0  0  0  0  0  0
    8.0950   -0.7700   20.8440 N   0  0  0  0  0  0  0  0  0  0  0  0
    9.2950    1.3000   20.9480 O   0  0  0  0  0  0  0  0  0  0  0  0
    2.9844    2.6927   19.3613 H   0  0  0  0  0  0  0  0  0  0  0  0
    3.6214    2.0680   21.6561 H   0  0  0  0  0  0  0  0  0  0  0  0
   10.2684   -2.6719   22.3867 H   0  0  0  0  0  0  0  0  0  0  0  0
    7.8717   -0.0016   24.7596 H   0  0  0  0  0  0  0  0  0  0  0  0
    4.3780    2.0103   17.4276 H   0  0  0  0  0  0  0  0  0  0  0  0
    5.6758    0.7336   22.0897 H   0  0  0  0  0  0  0  0  0  0  0  0
    9.5443   -4.5616   23.7817 H   0  0  0  0  0  0  0  0  0  0  0  0
    7.1921   -1.8821   26.1908 H   0  0  0  0  0  0  0  0  0  0  0  0
   13.5193    0.6087   24.3444 H   0  0  0  0  0  0  0  0  0  0  0  0
   11.6817   -0.8851   20.7385 H   0  0  0  0  0  0  0  0  0  0  0  0
    8.4213   -0.8245   18.1548 H   0  0  0  0  0  0  0  0  0  0  0  0
    8.1558   -4.5961   29.7550 H   0  0  0  0  0  0  0  0  0  0  0  0
    7.5611   -5.9778   28.8324 H   0  0  0  0  0  0  0  0  0  0  0  0
    5.9459   -4.1594   28.6209 H   0  0  0  0  0  0  0  0  0  0  0  0
    7.2011   -3.0160   28.1536 H   0  0  0  0  0  0  0  0  0  0  0  0
    9.7290   -3.9880   27.9846 H   0  0  0  0  0  0  0  0  0  0  0  0
    9.9437   -5.6964   28.3562 H   0  0  0  0  0  0  0  0  0  0  0  0
    6.2543   -5.4402   26.5659 H   0  0  0  0  0  0  0  0  0  0  0  0
    5.9909   -3.7397   26.1451 H   0  0  0  0  0  0  0  0  0  0  0  0
    9.9128   -5.2367   25.8843 H   0  0  0  0  0  0  0  0  0  0  0  0
    8.6365   -6.3517   26.3987 H   0  0  0  0  0  0  0  0  0  0  0  0
   14.7772   -0.8827   19.8859 H   0  0  0  0  0  0  0  0  0  0  0  0
   15.2060   -2.1563   21.0779 H   0  0  0  0  0  0  0  0  0  0  0  0
   13.7245   -2.3229   20.1020 H   0  0  0  0  0  0  0  0  0  0  0  0
   10.7288    0.6889   24.2835 H   0  0  0  0  0  0  0  0  0  0  0  0
   10.6393    1.7086   22.8728 H   0  0  0  0  0  0  0  0  0  0  0  0
    8.6955    0.7993   23.3793 H   0  0  0  0  0  0  0  0  0  0  0  0
    8.0815   -1.6117   21.0754 H   0  0  0  0  0  0  0  0  0  0  0  0
  1  2  1  0  0  0  0
  1  5  2  0  0  0  0
  2  6  2  0  0  0  0
  3  7  2  0  0  0  0
  3 12  1  0  0  0  0
  4  8  1  0  0  0  0
  4 12  2  0  0  0  0
  5 14  1  0  0  0  0
  6 15  1  0  0  0  0
  7 16  1  0  0  0  0
  8 16  2  0  0  0  0
  9 13  1  0  0  0  0
  9 26  2  0  0  0  0
 10 13  2  0  0  0  0
 10 28  1  0  0  0  0
 11 27  2  0  0  0  0
 11 29  1  0  0  0  0
 12 25  1  0  0  0  0
 13 24  1  0  0  0  0
 14 15  2  0  0  0  0
 14 27  1  0  0  0  0
 15 29  1  0  0  0  0
 16 30  1  0  0  0  0
 17 25  1  0  0  0  0
 17 31  1  0  0  0  0
 17 32  2  0  0  0  0
 18 19  1  0  0  0  0
 18 20  1  0  0  0  0
 19 21  1  0  0  0  0
 20 22  1  0  0  0  0
 21 30  1  0  0  0  0
 22 30  1  0  0  0  0
 23 28  1  0  0  0  0
 24 25  1  1  0  0  0
 26 28  1  0  0  0  0
 29 31  1  0  0  0  0
  1 33  1  0  0  0  0
  2 34  1  0  0  0  0
  3 35  1  0  0  0  0
  4 36  1  0  0  0  0
  5 37  1  0  0  0  0
  6 38  1  0  0  0  0
  7 39  1  0  0  0  0
  8 40  1  0  0  0  0
  9 41  1  0  0  0  0
 10 42  1  0  0  0  0
 11 43  1  0  0  0  0
 18 44  1  0  0  0  0
 18 45  1  0  0  0  0
 19 46  1  0  0  0  0
 19 47  1  0  0  0  0
 20 48  1  0  0  0  0
 20 49  1  0  0  0  0
 21 50  1  0  0  0  0
 21 51  1  0  0  0  0
 22 52  1  0  0  0  0
 22 53  1  0  0  0  0
 23 54  1  0  0  0  0
 23 55  1  0  0  0  0
 23 56  1  0  0  0  0
 24 57  1  0  0  0  0
 24 58  1  0  0  0  0
 25 59  1  0  0  0  0
 31 60  1  0  0  0  0
M  END
> <clash_score>
0

> <docking_score>
-9.255474090576172

> <overlap_score>
0.9524790048599243

$$$$
BENZO_206_1
  -OEChem-08222022453D

 60 64  0     1  0  0  0  0  0999 V2000
    3.8860    2.1050   19.5250 C   0  0  0  0  0  0  0  0  0  0  0  0
    4.2460    1.7520   20.8250 C   0  0  0  0  0  0  0  0  0  0  0  0
   13.0596   -1.4816   25.2806 C   0  0  0  0  0  0  0  0  0  0  0  0
   11.9851   -0.6757   24.9042 C   0  0  0  0  0  0  0  0  0  0  0  0
    9.5890   -2.4950   23.2210 C   0  0  0  0  0  0  0  0  0  0  0  0
    8.2550   -1.0010   24.5520 C   0  0  0  0  0  0  0  0  0  0  0  0
    4.6610    1.7170   18.4380 C   0  0  0  0  0  0  0  0  0  0  0  0
    5.3890    1.0010   21.0690 C   0  0  0  0  0  0  0  0  0  0  0  0
    9.1890   -3.5540   24.0140 C   0  0  0  0  0  0  0  0  0  0  0  0
    7.8700   -2.0610   25.3550 C   0  0  0  0  0  0  0  0  0  0  0  0
   14.0356   -1.8245   24.3449 C   0  0  0  0  0  0  0  0  0  0  0  0
   12.8626   -0.5556   22.6564 C   0  0  0  0  0  0  0  0  0  0  0  0
    7.5840   -0.2700   18.5160 C   0  0  0  0  0  0  0  0  0  0  0  0
    9.1280   -1.2090   23.4870 C   0  0  0  0  0  0  0  0  0  0  0  0
   11.8866   -0.2127   23.5922 C   0  0  0  0  0  0  0  0  0  0  0  0
    5.7970    0.9500   18.6730 C   0  0  0  0  0  0  0  0  0  0  0  0
    6.1460    0.6070   19.9750 C   0  0  0  0  0  0  0  0  0  0  0  0
    8.3450   -3.3440   25.0980 C   0  0  0  0  0  0  0  0  0  0  0  0
   13.9370   -1.3615   23.0328 C   0  0  0  0  0  0  0  0  0  0  0  0
    9.0430    0.2380   21.4940 C   0  0  0  0  0  0  0  0  0  0  0  0
    7.9496   -4.9537   28.7345 C   0  0  0  0  0  0  0  0  0  0  0  0
    6.8919   -4.0607   28.0818 C   0  0  0  0  0  0  0  0  0  0  0  0
    9.2470   -4.9693   27.9230 C   0  0  0  0  0  0  0  0  0  0  0  0
    6.6889   -4.4385   26.6147 C   0  0  0  0  0  0  0  0  0  0  0  0
    8.9871   -5.3207   26.4549 C   0  0  0  0  0  0  0  0  0  0  0  0
   10.7220    0.6590   23.1850 C   0  0  0  0  0  0  0  0  0  0  0  0
    9.5820   -0.1080   22.7000 C   0  0  1  0  0  0  0  0  0  0  0  0
    6.7100    0.3850   17.8100 N   0  0  0  0  0  0  0  0  0  0  0  0
    7.2710   -0.1460   19.8310 N   0  0  0  0  0  0  0  0  0  0  0  0
    7.9769   -4.4027   25.9163 N   0  0  0  0  0  0  0  0  0  0  0  0
    8.0950   -0.7700   20.8440 N   0  0  0  0  0  0  0  0  0  0  0  0
    9.2950    1.3000   20.9480 O   0  0  0  0  0  0  0  0  0  0  0  0
   15.1409   -1.7858   21.8785 Cl  0  0  0  0  0  0  0  0  0  0  0  0
    2.9844    2.6927   19.3613 H   0  0  0  0  0  0  0  0  0  0  0  0
    3.6214    2.0680   21.6561 H   0  0  0  0  0  0  0  0  0  0  0  0
   13.1359   -1.8421   26.3024 H   0  0  0  0  0  0  0  0  0  0  0  0
   11.2292   -0.4136   25.6399 H   0  0  0  0  0  0  0  0  0  0  0  0
   10.2684   -2.6719   22.3867 H   0  0  0  0  0  0  0  0  0  0  0  0
    7.8717   -0.0016   24.7596 H   0  0  0  0  0  0  0  0  0  0  0  0
    4.3780    2.0103   17.4276 H   0  0  0  0  0  0  0  0  0  0  0  0
    5.6758    0.7335   22.0897 H   0  0  0  0  0  0  0  0  0  0  0  0
    9.5443   -4.5616   23.7817 H   0  0  0  0  0  0  0  0  0  0  0  0
    7.1921   -1.8821   26.1908 H   0  0  0  0  0  0  0  0  0  0  0  0
   14.8673   -2.4536   24.6523 H   0  0  0  0  0  0  0  0  0  0  0  0
   12.7815   -0.1917   21.6347 H   0  0  0  0  0  0  0  0  0  0  0  0
    8.4213   -0.8245   18.1548 H   0  0  0  0  0  0  0  0  0  0  0  0
    8.1558   -4.5961   29.7550 H   0  0  0  0  0  0  0  0  0  0  0  0
    7.5611   -5.9778   28.8324 H   0  0  0  0  0  0  0  0  0  0  0  0
    5.9459   -4.1594   28.6209 H   0  0  0  0  0  0  0  0  0  0  0  0
    7.2011   -3.0160   28.1536 H   0  0  0  0  0  0  0  0  0  0  0  0
    9.7290   -3.9880   27.9846 H   0  0  0  0  0  0  0  0  0  0  0  0
    9.9437   -5.6964   28.3562 H   0  0  0  0  0  0  0  0  0  0  0  0
    6.2543   -5.4402   26.5659 H   0  0  0  0  0  0  0  0  0  0  0  0
    5.9909   -3.7397   26.1451 H   0  0  0  0  0  0  0  0  0  0  0  0
    9.9128   -5.2367   25.8843 H   0  0  0  0  0  0  0  0  0  0  0  0
    8.6365   -6.3517   26.3987 H   0  0  0  0  0  0  0  0  0  0  0  0
   10.4364    1.2691   24.0532 H   0  0  0  0  0  0  0  0  0  0  0  0
   11.0496    1.3814   22.4256 H   0  0  0  0  0  0  0  0  0  0  0  0
   10.5267   -0.9929   22.0072 H   0  0  0  0  0  0  0  0  0  0  0  0
    8.0815   -1.6117   21.0754 H   0  0  0  0  0  0  0  0  0  0  0  0
  1  2  1  0  0  0  0
  1  7  2  0  0  0  0
  2  8  2  0  0  0  0
  3  4  2  0  0  0  0
  3 11  1  0  0  0  0
  4 15  1  0  0  0  0
  5  9  2  0  0  0  0
  5 14  1  0  0  0  0
  6 10  1  0  0  0  0
  6 14  2  0  0  0  0
  7 16  1  0  0  0  0
  8 17  1  0  0  0  0
  9 18  1  0  0  0  0
 10 18  2  0  0  0  0
 11 19  2  0  0  0  0
 12 15  2  0  0  0  0
 12 19  1  0  0  0  0
 13 28  2  0  0  0  0
 13 29  1  0  0  0  0
 14 27  1  0  0  0  0
 15 26  1  0  0  0  0
 16 17  2  0  0  0  0
 16 28  1  0  0  0  0
 17 29  1  0  0  0  0
 18 30  1  0  0  0  0
 19 33  1  0  0  0  0
 20 27  1  1  0  0  0
 20 31  1  0  0  0  0
 20 32  2  0  0  0  0
 21 22  1  0  0  0  0
 21 23  1  0  0  0  0
 22 24  1  0  0  0  0
 23 25  1  0  0  0  0
 24 30  1  0  0  0  0
 25 30  1  0  0  0  0
 26 27  1  0  0  0  0
 29 31  1  0  0  0  0
  1 34  1  0  0  0  0
  2 35  1  0  0  0  0
  3 36  1  0  0  0  0
  4 37  1  0  0  0  0
  5 38  1  0  0  0  0
  6 39  1  0  0  0  0
  7 40  1  0  0  0  0
  8 41  1  0  0  0  0
  9 42  1  0  0  0  0
 10 43  1  0  0  0  0
 11 44  1  0  0  0  0
 12 45  1  0  0  0  0
 13 46  1  0  0  0  0
 21 47  1  0  0  0  0
 21 48  1  0  0  0  0
 22 49  1  0  0  0  0
 22 50  1  0  0  0  0
 23 51  1  0  0  0  0
 23 52  1  0  0  0  0
 24 53  1  0  0  0  0
 24 54  1  0  0  0  0
 25 55  1  0  0  0  0
 25 56  1  0  0  0  0
 26 57  1  0  0  0  0
 26 58  1  0  0  0  0
 27 59  1  0  0  0  0
 31 60  1  0  0  0  0
M  END
> <clash_score>
0

> <docking_score>
-7.770833969116211

> <overlap_score>
0.977918267250061

$$$$
BENZO_206_2
  -OEChem-08222022453D

 60 64  0     1  0  0  0  0  0999 V2000
    3.8860    2.1050   19.5250 C   0  0  0  0  0  0  0  0  0  0  0  0
    4.2460    1.7520   20.8250 C   0  0  0  0  0  0  0  0  0  0  0  0
   13.3570   -1.0972   21.0849 C   0  0  0  0  0  0  0  0  0  0  0  0
   12.1338   -0.5782   21.5090 C   0  0  0  0  0  0  0  0  0  0  0  0
    9.5890   -2.4950   23.2210 C   0  0  0  0  0  0  0  0  0  0  0  0
    8.2550   -1.0010   24.5520 C   0  0  0  0  0  0  0  0  0  0  0  0
    4.6610    1.7170   18.4380 C   0  0  0  0  0  0  0  0  0  0  0  0
    5.3890    1.0010   21.0690 C   0  0  0  0  0  0  0  0  0  0  0  0
    9.1890   -3.5540   24.0140 C   0  0  0  0  0  0  0  0  0  0  0  0
    7.8700   -2.0610   25.3550 C   0  0  0  0  0  0  0  0  0  0  0  0
   14.4934   -0.9420   21.8788 C   0  0  0  0  0  0  0  0  0  0  0  0
   13.1832    0.2514   23.5209 C   0  0  0  0  0  0  0  0  0  0  0  0
    7.5840   -0.2700   18.5160 C   0  0  0  0  0  0  0  0  0  0  0  0
    9.1280   -1.2090   23.4870 C   0  0  0  0  0  0  0  0  0  0  0  0
   12.0469    0.0961   22.7270 C   0  0  0  0  0  0  0  0  0  0  0  0
    5.7970    0.9500   18.6730 C   0  0  0  0  0  0  0  0  0  0  0  0
    6.1460    0.6070   19.9750 C   0  0  0  0  0  0  0  0  0  0  0  0
    8.3450   -3.3440   25.0980 C   0  0  0  0  0  0  0  0  0  0  0  0
   14.4065   -0.2677   23.0968 C   0  0  0  0  0  0  0  0  0  0  0  0
    9.0430    0.2380   21.4940 C   0  0  0  0  0  0  0  0  0  0  0  0
    7.9496   -4.9537   28.7345 C   0  0  0  0  0  0  0  0  0  0  0  0
    6.8919   -4.0607   28.0818 C   0  0  0  0  0  0  0  0  0  0  0  0
    9.2470   -4.9693   27.9230 C   0  0  0  0  0  0  0  0  0  0  0  0
    6.6889   -4.4385   26.6147 C   0  0  0  0  0  0  0  0  0  0  0  0
    8.9871   -5.3207   26.4549 C   0  0  0  0  0  0  0  0  0  0  0  0
   10.7220    0.6590   23.1850 C   0  0  0  0  0  0  0  0  0  0  0  0
    9.5820   -0.1080   22.7000 C   0  0  2  0  0  0  0  0  0  0  0  0
    6.7100    0.3850   17.8100 N   0  0  0  0  0  0  0  0  0  0  0  0
    7.2710   -0.1460   19.8310 N   0  0  0  0  0  0  0  0  0  0  0  0
    7.9769   -4.4027   25.9163 N   0  0  0  0  0  0  0  0  0  0  0  0
    8.0950   -0.7700   20.8440 N   0  0  0  0  0  0  0  0  0  0  0  0
    9.2950    1.3000   20.9480 O   0  0  0  0  0  0  0  0  0  0  0  0
   15.8091   -0.0755   24.0753 Cl  0  0  0  0  0  0  0  0  0  0  0  0
    2.9844    2.6927   19.3613 H   0  0  0  0  0  0  0  0  0  0  0  0
    3.6214    2.0680   21.6561 H   0  0  0  0  0  0  0  0  0  0  0  0
   13.4243   -1.6221   20.1364 H   0  0  0  0  0  0  0  0  0  0  0  0
   11.2535   -0.7038   20.8839 H   0  0  0  0  0  0  0  0  0  0  0  0
   10.2684   -2.6719   22.3867 H   0  0  0  0  0  0  0  0  0  0  0  0
    7.8717   -0.0016   24.7596 H   0  0  0  0  0  0  0  0  0  0  0  0
    4.3780    2.0103   17.4276 H   0  0  0  0  0  0  0  0  0  0  0  0
    5.6758    0.7336   22.0897 H   0  0  0  0  0  0  0  0  0  0  0  0
    9.5443   -4.5616   23.7817 H   0  0  0  0  0  0  0  0  0  0  0  0
    7.1921   -1.8821   26.1908 H   0  0  0  0  0  0  0  0  0  0  0  0
   15.4403   -1.3515   21.5355 H   0  0  0  0  0  0  0  0  0  0  0  0
   13.1102    0.7775   24.4699 H   0  0  0  0  0  0  0  0  0  0  0  0
    8.4213   -0.8245   18.1548 H   0  0  0  0  0  0  0  0  0  0  0  0
    8.1558   -4.5961   29.7550 H   0  0  0  0  0  0  0  0  0  0  0  0
    7.5611   -5.9778   28.8324 H   0  0  0  0  0  0  0  0  0  0  0  0
    5.9459   -4.1594   28.6209 H   0  0  0  0  0  0  0  0  0  0  0  0
    7.2011   -3.0160   28.1536 H   0  0  0  0  0  0  0  0  0  0  0  0
    9.7290   -3.9880   27.9846 H   0  0  0  0  0  0  0  0  0  0  0  0
    9.9437   -5.6964   28.3562 H   0  0  0  0  0  0  0  0  0  0  0  0
    6.2543   -5.4402   26.5659 H   0  0  0  0  0  0  0  0  0  0  0  0
    5.9909   -3.7397   26.1451 H   0  0  0  0  0  0  0  0  0  0  0  0
    9.9128   -5.2367   25.8843 H   0  0  0  0  0  0  0  0  0  0  0  0
    8.6365   -6.3517   26.3987 H   0  0  0  0  0  0  0  0  0  0  0  0
   10.7288    0.6889   24.2835 H   0  0  0  0  0  0  0  0  0  0  0  0
   10.6393    1.7086   22.8728 H   0  0  0  0  0  0  0  0  0  0  0  0
    8.6955    0.7993   23.3793 H   0  0  0  0  0  0  0  0  0  0  0  0
    8.0815   -1.6117   21.0754 H   0  0  0  0  0  0  0  0  0  0  0  0
  1  2  1  0  0  0  0
  1  7  2  0  0  0  0
  2  8  2  0  0  0  0
  3  4  2  0  0  0  0
  3 11  1  0  0  0  0
  4 15  1  0  0  0  0
  5  9  2  0  0  0  0
  5 14  1  0  0  0  0
  6 10  1  0  0  0  0
  6 14  2  0  0  0  0
  7 16  1  0  0  0  0
  8 17  1  0  0  0  0
  9 18  1  0  0  0  0
 10 18  2  0  0  0  0
 11 19  2  0  0  0  0
 12 15  2  0  0  0  0
 12 19  1  0  0  0  0
 13 28  2  0  0  0  0
 13 29  1  0  0  0  0
 14 27  1  0  0  0  0
 15 26  1  0  0  0  0
 16 17  2  0  0  0  0
 16 28  1  0  0  0  0
 17 29  1  0  0  0  0
 18 30  1  0  0  0  0
 19 33  1  0  0  0  0
 20 27  1  6  0  0  0
 20 31  1  0  0  0  0
 20 32  2  0  0  0  0
 21 22  1  0  0  0  0
 21 23  1  0  0  0  0
 22 24  1  0  0  0  0
 23 25  1  0  0  0  0
 24 30  1  0  0  0  0
 25 30  1  0  0  0  0
 26 27  1  0  0  0  0
 29 31  1  0  0  0  0
  1 34  1  0  0  0  0
  2 35  1  0  0  0  0
  3 36  1  0  0  0  0
  4 37  1  0  0  0  0
  5 38  1  0  0  0  0
  6 39  1  0  0  0  0
  7 40  1  0  0  0  0
  8 41  1  0  0  0  0
  9 42  1  0  0  0  0
 10 43  1  0  0  0  0
 11 44  1  0  0  0  0
 12 45  1  0  0  0  0
 13 46  1  0  0  0  0
 21 47  1  0  0  0  0
 21 48  1  0  0  0  0
 22 49  1  0  0  0  0
 22 50  1  0  0  0  0
 23 51  1  0  0  0  0
 23 52  1  0  0  0  0
 24 53  1  0  0  0  0
 24 54  1  0  0  0  0
 25 55  1  0  0  0  0
 25 56  1  0  0  0  0
 26 57  1  0  0  0  0
 26 58  1  0  0  0  0
 27 59  1  0  0  0  0
 31 60  1  0  0  0  0
M  END
> <clash_score>
1.4596612754093976

> <docking_score>
-7.374567985534668

> <overlap_score>
0.9542142152786255

$$$$
BENZO_211_1
  -OEChem-08222022453D

 48 51  0     1  0  0  0  0  0999 V2000
    3.8860    2.1050   19.5250 C   0  0  0  0  0  0  0  0  0  0  0  0
    4.2460    1.7520   20.8250 C   0  0  0  0  0  0  0  0  0  0  0  0
    9.1890   -3.5540   24.0140 C   0  0  0  0  0  0  0  0  0  0  0  0
    7.8700   -2.0610   25.3550 C   0  0  0  0  0  0  0  0  0  0  0  0
    9.5890   -2.4950   23.2210 C   0  0  0  0  0  0  0  0  0  0  0  0
    8.2550   -1.0010   24.5520 C   0  0  0  0  0  0  0  0  0  0  0  0
    4.6610    1.7170   18.4380 C   0  0  0  0  0  0  0  0  0  0  0  0
    5.3890    1.0010   21.0690 C   0  0  0  0  0  0  0  0  0  0  0  0
   13.2450    0.8161   22.4899 C   0  0  0  0  0  0  0  0  0  0  0  0
   12.3686   -1.2002   22.4525 C   0  0  0  0  0  0  0  0  0  0  0  0
    7.5840   -0.2700   18.5160 C   0  0  0  0  0  0  0  0  0  0  0  0
    8.3450   -3.3440   25.0980 C   0  0  0  0  0  0  0  0  0  0  0  0
    9.1280   -1.2090   23.4870 C   0  0  0  0  0  0  0  0  0  0  0  0
   12.0519    0.1077   22.7276 C   0  0  0  0  0  0  0  0  0  0  0  0
    5.7970    0.9500   18.6730 C   0  0  0  0  0  0  0  0  0  0  0  0
    6.1460    0.6070   19.9750 C   0  0  0  0  0  0  0  0  0  0  0  0
    9.0430    0.2380   21.4940 C   0  0  0  0  0  0  0  0  0  0  0  0
    7.9517   -4.4787   25.9770 C   0  0  0  0  0  0  0  0  0  0  0  0
   14.4659   -2.3443   21.6969 C   0  0  0  0  0  0  0  0  0  0  0  0
   10.7220    0.6590   23.1850 C   0  0  0  0  0  0  0  0  0  0  0  0
    9.5820   -0.1080   22.7000 C   0  0  1  0  0  0  0  0  0  0  0  0
   14.2451    0.0239   22.0945 N   0  0  0  0  0  0  0  0  0  0  0  0
    6.7100    0.3850   17.8100 N   0  0  0  0  0  0  0  0  0  0  0  0
   13.6811   -1.1959   22.0817 N   0  0  0  0  0  0  0  0  0  0  0  0
    7.2710   -0.1460   19.8310 N   0  0  0  0  0  0  0  0  0  0  0  0
    8.0950   -0.7700   20.8440 N   0  0  0  0  0  0  0  0  0  0  0  0
    9.2950    1.3000   20.9480 O   0  0  0  0  0  0  0  0  0  0  0  0
    2.9844    2.6927   19.3613 H   0  0  0  0  0  0  0  0  0  0  0  0
    3.6214    2.0680   21.6561 H   0  0  0  0  0  0  0  0  0  0  0  0
    9.5416   -4.5625   23.7818 H   0  0  0  0  0  0  0  0  0  0  0  0
    7.1926   -1.8847   26.1916 H   0  0  0  0  0  0  0  0  0  0  0  0
   10.2688   -2.6720   22.3870 H   0  0  0  0  0  0  0  0  0  0  0  0
    7.8705   -0.0015   24.7579 H   0  0  0  0  0  0  0  0  0  0  0  0
    4.3780    2.0103   17.4276 H   0  0  0  0  0  0  0  0  0  0  0  0
    5.6758    0.7336   22.0897 H   0  0  0  0  0  0  0  0  0  0  0  0
   13.4301    1.8764   22.5886 H   0  0  0  0  0  0  0  0  0  0  0  0
   11.7867   -2.1111   22.4895 H   0  0  0  0  0  0  0  0  0  0  0  0
    8.4213   -0.8245   18.1548 H   0  0  0  0  0  0  0  0  0  0  0  0
    8.6661   -4.5883   26.8021 H   0  0  0  0  0  0  0  0  0  0  0  0
    6.9508   -4.3263   26.4014 H   0  0  0  0  0  0  0  0  0  0  0  0
    7.9188   -5.4228   25.4175 H   0  0  0  0  0  0  0  0  0  0  0  0
   14.3687   -2.4723   20.6156 H   0  0  0  0  0  0  0  0  0  0  0  0
   15.5118   -2.1787   21.9698 H   0  0  0  0  0  0  0  0  0  0  0  0
   14.0944   -3.2284   22.2225 H   0  0  0  0  0  0  0  0  0  0  0  0
   10.7195    0.6680   24.2839 H   0  0  0  0  0  0  0  0  0  0  0  0
   10.6395    1.7141   22.8921 H   0  0  0  0  0  0  0  0  0  0  0  0
    8.6943    0.7922   23.3819 H   0  0  0  0  0  0  0  0  0  0  0  0
    8.1074   -1.6160   21.1028 H   0  0  0  0  0  0  0  0  0  0  0  0
  1  2  1  0  0  0  0
  1  7  2  0  0  0  0
  2  8  2  0  0  0  0
  3  5  2  0  0  0  0
  3 12  1  0  0  0  0
  4  6  1  0  0  0  0
  4 12  2  0  0  0  0
  5 13  1  0  0  0  0
  6 13  2  0  0  0  0
  7 15  1  0  0  0  0
  8 16  1  0  0  0  0
  9 14  1  0  0  0  0
  9 22  2  0  0  0  0
 10 14  2  0  0  0  0
 10 24  1  0  0  0  0
 11 23  2  0  0  0  0
 11 25  1  0  0  0  0
 12 18  1  0  0  0  0
 13 21  1  0  0  0  0
 14 20  1  0  0  0  0
 15 16  2  0  0  0  0
 15 23  1  0  0  0  0
 16 25  1  0  0  0  0
 17 21  1  0  0  0  0
 17 26  1  0  0  0  0
 17 27  2  0  0  0  0
 19 24  1  0  0  0  0
 20 21  1  1  0  0  0
 22 24  1  0  0  0  0
 25 26  1  0  0  0  0
  1 28  1  0  0  0  0
  2 29  1  0  0  0  0
  3 30  1  0  0  0  0
  4 31  1  0  0  0  0
  5 32  1  0  0  0  0
  6 33  1  0  0  0  0
  7 34  1  0  0  0  0
  8 35  1  0  0  0  0
  9 36  1  0  0  0  0
 10 37  1  0  0  0  0
 11 38  1  0  0  0  0
 18 39  1  0  0  0  0
 18 40  1  0  0  0  0
 18 41  1  0  0  0  0
 19 42  1  0  0  0  0
 19 43  1  0  0  0  0
 19 44  1  0  0  0  0
 20 45  1  0  0  0  0
 20 46  1  0  0  0  0
 21 47  1  0  0  0  0
 26 48  1  0  0  0  0
M  END
> <clash_score>
0

> <docking_score>
-7.1471991539001465

> <overlap_score>
0.8638780117034912

$$$$
BENZO_210_1
  -OEChem-08222022453D

 48 51  0     1  0  0  0  0  0999 V2000
    3.8860    2.1050   19.5250 C   0  0  0  0  0  0  0  0  0  0  0  0
    4.2460    1.7520   20.8250 C   0  0  0  0  0  0  0  0  0  0  0  0
   13.8446    0.0438   21.1092 C   0  0  0  0  0  0  0  0  0  0  0  0
   12.6160    0.5516   21.5316 C   0  0  0  0  0  0  0  0  0  0  0  0
    9.1890   -3.5540   24.0140 C   0  0  0  0  0  0  0  0  0  0  0  0
    7.8700   -2.0610   25.3550 C   0  0  0  0  0  0  0  0  0  0  0  0
    9.5890   -2.4950   23.2210 C   0  0  0  0  0  0  0  0  0  0  0  0
    8.2550   -1.0010   24.5520 C   0  0  0  0  0  0  0  0  0  0  0  0
    4.6610    1.7170   18.4380 C   0  0  0  0  0  0  0  0  0  0  0  0
    5.3890    1.0010   21.0690 C   0  0  0  0  0  0  0  0  0  0  0  0
   14.5090   -0.9080   21.8827 C   0  0  0  0  0  0  0  0  0  0  0  0
   12.7164   -0.8440   23.5012 C   0  0  0  0  0  0  0  0  0  0  0  0
    7.5840   -0.2700   18.5160 C   0  0  0  0  0  0  0  0  0  0  0  0
    8.3450   -3.3440   25.0980 C   0  0  0  0  0  0  0  0  0  0  0  0
    9.1280   -1.2090   23.4870 C   0  0  0  0  0  0  0  0  0  0  0  0
   12.0519    0.1077   22.7276 C   0  0  0  0  0  0  0  0  0  0  0  0
    5.7970    0.9500   18.6730 C   0  0  0  0  0  0  0  0  0  0  0  0
    6.1460    0.6070   19.9750 C   0  0  0  0  0  0  0  0  0  0  0  0
   13.9449   -1.3519   23.0787 C   0  0  0  0  0  0  0  0  0  0  0  0
    9.0430    0.2380   21.4940 C   0  0  0  0  0  0  0  0  0  0  0  0
    7.9517   -4.4787   25.9770 C   0  0  0  0  0  0  0  0  0  0  0  0
   10.7220    0.6590   23.1850 C   0  0  0  0  0  0  0  0  0  0  0  0
    9.5820   -0.1080   22.7000 C   0  0  1  0  0  0  0  0  0  0  0  0
    6.7100    0.3850   17.8100 N   0  0  0  0  0  0  0  0  0  0  0  0
    7.2710   -0.1460   19.8310 N   0  0  0  0  0  0  0  0  0  0  0  0
    8.0950   -0.7700   20.8440 N   0  0  0  0  0  0  0  0  0  0  0  0
    9.2950    1.3000   20.9480 O   0  0  0  0  0  0  0  0  0  0  0  0
   14.7657   -2.5253   24.0333 Cl  0  0  0  0  0  0  0  0  0  0  0  0
    2.9844    2.6927   19.3613 H   0  0  0  0  0  0  0  0  0  0  0  0
    3.6214    2.0680   21.6561 H   0  0  0  0  0  0  0  0  0  0  0  0
   14.2835    0.3898   20.1778 H   0  0  0  0  0  0  0  0  0  0  0  0
   12.1054    1.2930   20.9225 H   0  0  0  0  0  0  0  0  0  0  0  0
    9.5416   -4.5625   23.7818 H   0  0  0  0  0  0  0  0  0  0  0  0
    7.1926   -1.8847   26.1916 H   0  0  0  0  0  0  0  0  0  0  0  0
   10.2688   -2.6720   22.3870 H   0  0  0  0  0  0  0  0  0  0  0  0
    7.8705   -0.0015   24.7579 H   0  0  0  0  0  0  0  0  0  0  0  0
    4.3780    2.0103   17.4276 H   0  0  0  0  0  0  0  0  0  0  0  0
    5.6758    0.7336   22.0897 H   0  0  0  0  0  0  0  0  0  0  0  0
   15.4660   -1.2948   21.5412 H   0  0  0  0  0  0  0  0  0  0  0  0
   12.2722   -1.1873   24.4326 H   0  0  0  0  0  0  0  0  0  0  0  0
    8.4213   -0.8245   18.1548 H   0  0  0  0  0  0  0  0  0  0  0  0
    8.6661   -4.5883   26.8021 H   0  0  0  0  0  0  0  0  0  0  0  0
    6.9508   -4.3263   26.4014 H   0  0  0  0  0  0  0  0  0  0  0  0
    7.9188   -5.4228   25.4175 H   0  0  0  0  0  0  0  0  0  0  0  0
   10.7195    0.6680   24.2839 H   0  0  0  0  0  0  0  0  0  0  0  0
   10.6395    1.7141   22.8921 H   0  0  0  0  0  0  0  0  0  0  0  0
    8.6943    0.7922   23.3819 H   0  0  0  0  0  0  0  0  0  0  0  0
    8.1074   -1.6160   21.1028 H   0  0  0  0  0  0  0  0  0  0  0  0
  1  2  1  0  0  0  0
  1  9  2  0  0  0  0
  2 10  2  0  0  0  0
  3  4  2  0  0  0  0
  3 11  1  0  0  0  0
  4 16  1  0  0  0  0
  5  7  2  0  0  0  0
  5 14  1  0  0  0  0
  6  8  1  0  0  0  0
  6 14  2  0  0  0  0
  7 15  1  0  0  0  0
  8 15  2  0  0  0  0
  9 17  1  0  0  0  0
 10 18  1  0  0  0  0
 11 19  2  0  0  0  0
 12 16  2  0  0  0  0
 12 19  1  0  0  0  0
 13 24  2  0  0  0  0
 13 25  1  0  0  0  0
 14 21  1  0  0  0  0
 15 23  1  0  0  0  0
 16 22  1  0  0  0  0
 17 18  2  0  0  0  0
 17 24  1  0  0  0  0
 18 25  1  0  0  0  0
 19 28  1  0  0  0  0
 20 23  1  0  0  0  0
 20 26  1  0  0  0  0
 20 27  2  0  0  0  0
 22 23  1  1  0  0  0
 25 26  1  0  0  0  0
  1 29  1  0  0  0  0
  2 30  1  0  0  0  0
  3 31  1  0  0  0  0
  4 32  1  0  0  0  0
  5 33  1  0  0  0  0
  6 34  1  0  0  0  0
  7 35  1  0  0  0  0
  8 36  1  0  0  0  0
  9 37  1  0  0  0  0
 10 38  1  0  0  0  0
 11 39  1  0  0  0  0
 12 40  1  0  0  0  0
 13 41  1  0  0  0  0
 21 42  1  0  0  0  0
 21 43  1  0  0  0  0
 21 44  1  0  0  0  0
 22 45  1  0  0  0  0
 22 46  1  0  0  0  0
 23 47  1  0  0  0  0
 26 48  1  0  0  0  0
M  END
> <clash_score>
0

> <docking_score>
-6.373603820800781

> <overlap_score>
0.8775200247764587

$$$$
BENZO_211_2
  -OEChem-08222022453D

 48 51  0     1  0  0  0  0  0999 V2000
    3.8860    2.1050   19.5250 C   0  0  0  0  0  0  0  0  0  0  0  0
    4.2460    1.7520   20.8250 C   0  0  0  0  0  0  0  0  0  0  0  0
    9.1890   -3.5540   24.0140 C   0  0  0  0  0  0  0  0  0  0  0  0
    7.8700   -2.0610   25.3550 C   0  0  0  0  0  0  0  0  0  0  0  0
    9.5890   -2.4950   23.2210 C   0  0  0  0  0  0  0  0  0  0  0  0
    8.2550   -1.0010   24.5520 C   0  0  0  0  0  0  0  0  0  0  0  0
    4.6610    1.7170   18.4380 C   0  0  0  0  0  0  0  0  0  0  0  0
    5.3890    1.0010   21.0690 C   0  0  0  0  0  0  0  0  0  0  0  0
   12.1546   -0.7527   24.8667 C   0  0  0  0  0  0  0  0  0  0  0  0
   12.9364   -0.6310   22.8152 C   0  0  0  0  0  0  0  0  0  0  0  0
    7.5840   -0.2700   18.5160 C   0  0  0  0  0  0  0  0  0  0  0  0
    8.3450   -3.3440   25.0980 C   0  0  0  0  0  0  0  0  0  0  0  0
    9.1280   -1.2090   23.4870 C   0  0  0  0  0  0  0  0  0  0  0  0
   11.8914   -0.2037   23.5974 C   0  0  0  0  0  0  0  0  0  0  0  0
    5.7970    0.9500   18.6730 C   0  0  0  0  0  0  0  0  0  0  0  0
    6.1460    0.6070   19.9750 C   0  0  0  0  0  0  0  0  0  0  0  0
    9.0430    0.2380   21.4940 C   0  0  0  0  0  0  0  0  0  0  0  0
    7.9517   -4.4787   25.9770 C   0  0  0  0  0  0  0  0  0  0  0  0
   14.9563   -2.0460   23.2586 C   0  0  0  0  0  0  0  0  0  0  0  0
   10.7220    0.6590   23.1850 C   0  0  0  0  0  0  0  0  0  0  0  0
    9.5820   -0.1080   22.7000 C   0  0  2  0  0  0  0  0  0  0  0  0
   13.2786   -1.4738   24.8937 N   0  0  0  0  0  0  0  0  0  0  0  0
    6.7100    0.3850   17.8100 N   0  0  0  0  0  0  0  0  0  0  0  0
   13.7309   -1.3809   23.6316 N   0  0  0  0  0  0  0  0  0  0  0  0
    7.2710   -0.1460   19.8310 N   0  0  0  0  0  0  0  0  0  0  0  0
    8.0950   -0.7700   20.8440 N   0  0  0  0  0  0  0  0  0  0  0  0
    9.2950    1.3000   20.9480 O   0  0  0  0  0  0  0  0  0  0  0  0
    2.9844    2.6927   19.3613 H   0  0  0  0  0  0  0  0  0  0  0  0
    3.6214    2.0680   21.6561 H   0  0  0  0  0  0  0  0  0  0  0  0
    9.5416   -4.5625   23.7818 H   0  0  0  0  0  0  0  0  0  0  0  0
    7.1926   -1.8847   26.1916 H   0  0  0  0  0  0  0  0  0  0  0  0
   10.2688   -2.6720   22.3870 H   0  0  0  0  0  0  0  0  0  0  0  0
    7.8705   -0.0015   24.7579 H   0  0  0  0  0  0  0  0  0  0  0  0
    4.3780    2.0103   17.4276 H   0  0  0  0  0  0  0  0  0  0  0  0
    5.6758    0.7336   22.0897 H   0  0  0  0  0  0  0  0  0  0  0  0
   11.5753   -0.6595   25.7744 H   0  0  0  0  0  0  0  0  0  0  0  0
   13.1758   -0.4703   21.7727 H   0  0  0  0  0  0  0  0  0  0  0  0
    8.4213   -0.8245   18.1548 H   0  0  0  0  0  0  0  0  0  0  0  0
    8.6661   -4.5883   26.8021 H   0  0  0  0  0  0  0  0  0  0  0  0
    6.9508   -4.3263   26.4014 H   0  0  0  0  0  0  0  0  0  0  0  0
    7.9188   -5.4228   25.4175 H   0  0  0  0  0  0  0  0  0  0  0  0
   15.7825   -1.3505   23.4278 H   0  0  0  0  0  0  0  0  0  0  0  0
   15.0826   -2.9452   23.8680 H   0  0  0  0  0  0  0  0  0  0  0  0
   14.9057   -2.3321   22.2043 H   0  0  0  0  0  0  0  0  0  0  0  0
   10.4198    1.2578   24.0555 H   0  0  0  0  0  0  0  0  0  0  0  0
   11.0503    1.3920   22.4361 H   0  0  0  0  0  0  0  0  0  0  0  0
   10.5231   -0.9933   22.0106 H   0  0  0  0  0  0  0  0  0  0  0  0
    8.1074   -1.6160   21.1028 H   0  0  0  0  0  0  0  0  0  0  0  0
  1  2  1  0  0  0  0
  1  7  2  0  0  0  0
  2  8  2  0  0  0  0
  3  5  2  0  0  0  0
  3 12  1  0  0  0  0
  4  6  1  0  0  0  0
  4 12  2  0  0  0  0
  5 13  1  0  0  0  0
  6 13  2  0  0  0  0
  7 15  1  0  0  0  0
  8 16  1  0  0  0  0
  9 14  1  0  0  0  0
  9 22  2  0  0  0  0
 10 14  2  0  0  0  0
 10 24  1  0  0  0  0
 11 23  2  0  0  0  0
 11 25  1  0  0  0  0
 12 18  1  0  0  0  0
 13 21  1  0  0  0  0
 14 20  1  0  0  0  0
 15 16  2  0  0  0  0
 15 23  1  0  0  0  0
 16 25  1  0  0  0  0
 17 21  1  0  0  0  0
 17 26  1  0  0  0  0
 17 27  2  0  0  0  0
 19 24  1  0  0  0  0
 20 21  1  6  0  0  0
 22 24  1  0  0  0  0
 25 26  1  0  0  0  0
  1 28  1  0  0  0  0
  2 29  1  0  0  0  0
  3 30  1  0  0  0  0
  4 31  1  0  0  0  0
  5 32  1  0  0  0  0
  6 33  1  0  0  0  0
  7 34  1  0  0  0  0
  8 35  1  0  0  0  0
  9 36  1  0  0  0  0
 10 37  1  0  0  0  0
 11 38  1  0  0  0  0
 18 39  1  0  0  0  0
 18 40  1  0  0  0  0
 18 41  1  0  0  0  0
 19 42  1  0  0  0  0
 19 43  1  0  0  0  0
 19 44  1  0  0  0  0
 20 45  1  0  0  0  0
 20 46  1  0  0  0  0
 21 47  1  0  0  0  0
 26 48  1  0  0  0  0
M  END
> <clash_score>
0

> <docking_score>
-6.917355537414551

> <overlap_score>
0.8859124183654785

$$$$
BENZO_210_2
  -OEChem-08222022453D

 48 51  0     1  0  0  0  0  0999 V2000
    3.8860    2.1050   19.5250 C   0  0  0  0  0  0  0  0  0  0  0  0
    4.2460    1.7520   20.8250 C   0  0  0  0  0  0  0  0  0  0  0  0
   13.0699   -1.4582   25.2928 C   0  0  0  0  0  0  0  0  0  0  0  0
   11.9910   -0.6606   24.9116 C   0  0  0  0  0  0  0  0  0  0  0  0
    9.1890   -3.5540   24.0140 C   0  0  0  0  0  0  0  0  0  0  0  0
    7.8700   -2.0610   25.3550 C   0  0  0  0  0  0  0  0  0  0  0  0
    9.5890   -2.4950   23.2210 C   0  0  0  0  0  0  0  0  0  0  0  0
    8.2550   -1.0010   24.5520 C   0  0  0  0  0  0  0  0  0  0  0  0
    4.6610    1.7170   18.4380 C   0  0  0  0  0  0  0  0  0  0  0  0
    5.3890    1.0010   21.0690 C   0  0  0  0  0  0  0  0  0  0  0  0
   14.0494   -1.7989   24.3598 C   0  0  0  0  0  0  0  0  0  0  0  0
   12.8708   -0.5445   22.6644 C   0  0  0  0  0  0  0  0  0  0  0  0
    7.5840   -0.2700   18.5160 C   0  0  0  0  0  0  0  0  0  0  0  0
    8.3450   -3.3440   25.0980 C   0  0  0  0  0  0  0  0  0  0  0  0
    9.1280   -1.2090   23.4870 C   0  0  0  0  0  0  0  0  0  0  0  0
   11.8914   -0.2037   23.5974 C   0  0  0  0  0  0  0  0  0  0  0  0
    5.7970    0.9500   18.6730 C   0  0  0  0  0  0  0  0  0  0  0  0
    6.1460    0.6070   19.9750 C   0  0  0  0  0  0  0  0  0  0  0  0
   13.9498   -1.3420   23.0457 C   0  0  0  0  0  0  0  0  0  0  0  0
    9.0430    0.2380   21.4940 C   0  0  0  0  0  0  0  0  0  0  0  0
    7.9517   -4.4787   25.9770 C   0  0  0  0  0  0  0  0  0  0  0  0
   10.7220    0.6590   23.1850 C   0  0  0  0  0  0  0  0  0  0  0  0
    9.5820   -0.1080   22.7000 C   0  0  2  0  0  0  0  0  0  0  0  0
    6.7100    0.3850   17.8100 N   0  0  0  0  0  0  0  0  0  0  0  0
    7.2710   -0.1460   19.8310 N   0  0  0  0  0  0  0  0  0  0  0  0
    8.0950   -0.7700   20.8440 N   0  0  0  0  0  0  0  0  0  0  0  0
    9.2950    1.3000   20.9480 O   0  0  0  0  0  0  0  0  0  0  0  0
   15.1579   -1.7637   21.8948 Cl  0  0  0  0  0  0  0  0  0  0  0  0
    2.9844    2.6927   19.3613 H   0  0  0  0  0  0  0  0  0  0  0  0
    3.6214    2.0680   21.6561 H   0  0  0  0  0  0  0  0  0  0  0  0
   13.1470   -1.8139   26.3162 H   0  0  0  0  0  0  0  0  0  0  0  0
   11.2324   -0.4001   25.6451 H   0  0  0  0  0  0  0  0  0  0  0  0
    9.5416   -4.5625   23.7818 H   0  0  0  0  0  0  0  0  0  0  0  0
    7.1926   -1.8847   26.1916 H   0  0  0  0  0  0  0  0  0  0  0  0
   10.2688   -2.6720   22.3870 H   0  0  0  0  0  0  0  0  0  0  0  0
    7.8705   -0.0015   24.7579 H   0  0  0  0  0  0  0  0  0  0  0  0
    4.3780    2.0103   17.4276 H   0  0  0  0  0  0  0  0  0  0  0  0
    5.6758    0.7336   22.0897 H   0  0  0  0  0  0  0  0  0  0  0  0
   14.8846   -2.4215   24.6710 H   0  0  0  0  0  0  0  0  0  0  0  0
   12.7889   -0.1853   21.6412 H   0  0  0  0  0  0  0  0  0  0  0  0
    8.4213   -0.8245   18.1548 H   0  0  0  0  0  0  0  0  0  0  0  0
    8.6661   -4.5883   26.8021 H   0  0  0  0  0  0  0  0  0  0  0  0
    6.9508   -4.3263   26.4014 H   0  0  0  0  0  0  0  0  0  0  0  0
    7.9188   -5.4228   25.4175 H   0  0  0  0  0  0  0  0  0  0  0  0
   10.4198    1.2578   24.0555 H   0  0  0  0  0  0  0  0  0  0  0  0
   11.0503    1.3920   22.4361 H   0  0  0  0  0  0  0  0  0  0  0  0
   10.5231   -0.9933   22.0106 H   0  0  0  0  0  0  0  0  0  0  0  0
    8.1074   -1.6160   21.1028 H   0  0  0  0  0  0  0  0  0  0  0  0
  1  2  1  0  0  0  0
  1  9  2  0  0  0  0
  2 10  2  0  0  0  0
  3  4  2  0  0  0  0
  3 11  1  0  0  0  0
  4 16  1  0  0  0  0
  5  7  2  0  0  0  0
  5 14  1  0  0  0  0
  6  8  1  0  0  0  0
  6 14  2  0  0  0  0
  7 15  1  0  0  0  0
  8 15  2  0  0  0  0
  9 17  1  0  0  0  0
 10 18  1  0  0  0  0
 11 19  2  0  0  0  0
 12 16  2  0  0  0  0
 12 19  1  0  0  0  0
 13 24  2  0  0  0  0
 13 25  1  0  0  0  0
 14 21  1  0  0  0  0
 15 23  1  0  0  0  0
 16 22  1  0  0  0  0
 17 18  2  0  0  0  0
 17 24  1  0  0  0  0
 18 25  1  0  0  0  0
 19 28  1  0  0  0  0
 20 23  1  0  0  0  0
 20 26  1  0  0  0  0
 20 27  2  0  0  0  0
 22 23  1  6  0  0  0
 25 26  1  0  0  0  0
  1 29  1  0  0  0  0
  2 30  1  0  0  0  0
  3 31  1  0  0  0  0
  4 32  1  0  0  0  0
  5 33  1  0  0  0  0
  6 34  1  0  0  0  0
  7 35  1  0  0  0  0
  8 36  1  0  0  0  0
  9 37  1  0  0  0  0
 10 38  1  0  0  0  0
 11 39  1  0  0  0  0
 12 40  1  0  0  0  0
 13 41  1  0  0  0  0
 21 42  1  0  0  0  0
 21 43  1  0  0  0  0
 21 44  1  0  0  0  0
 22 45  1  0  0  0  0
 22 46  1  0  0  0  0
 23 47  1  0  0  0  0
 26 48  1  0  0  0  0
M  END
> <clash_score>
0

> <docking_score>
-6.990297317504883

> <overlap_score>
0.8900246620178223

$$$$
BENZO_213_1
  -OEChem-08222022453D

 49 52  0     1  0  0  0  0  0999 V2000
   14.5074   -0.9113   21.8819 C   0  0  0  0  0  0  0  0  0  0  0  0
   14.4132   -0.2412   23.1016 C   0  0  0  0  0  0  0  0  0  0  0  0
   13.3738   -1.0719   21.0850 C   0  0  0  0  0  0  0  0  0  0  0  0
    3.8860    2.1050   19.5250 C   0  0  0  0  0  0  0  0  0  0  0  0
    4.2460    1.7520   20.8250 C   0  0  0  0  0  0  0  0  0  0  0  0
   13.1855    0.2683   23.5244 C   0  0  0  0  0  0  0  0  0  0  0  0
   12.1461   -0.5625   21.5079 C   0  0  0  0  0  0  0  0  0  0  0  0
    9.5890   -2.4950   23.2210 C   0  0  0  0  0  0  0  0  0  0  0  0
    8.2550   -1.0010   24.5520 C   0  0  0  0  0  0  0  0  0  0  0  0
    4.6610    1.7170   18.4380 C   0  0  0  0  0  0  0  0  0  0  0  0
    5.3890    1.0010   21.0690 C   0  0  0  0  0  0  0  0  0  0  0  0
    9.1890   -3.5540   24.0140 C   0  0  0  0  0  0  0  0  0  0  0  0
    7.8700   -2.0610   25.3550 C   0  0  0  0  0  0  0  0  0  0  0  0
    7.5840   -0.2700   18.5160 C   0  0  0  0  0  0  0  0  0  0  0  0
   12.0519    0.1077   22.7276 C   0  0  0  0  0  0  0  0  0  0  0  0
    9.1280   -1.2090   23.4870 C   0  0  0  0  0  0  0  0  0  0  0  0
    5.7970    0.9500   18.6730 C   0  0  0  0  0  0  0  0  0  0  0  0
    6.1460    0.6070   19.9750 C   0  0  0  0  0  0  0  0  0  0  0  0
    8.3450   -3.3440   25.0980 C   0  0  0  0  0  0  0  0  0  0  0  0
    9.0430    0.2380   21.4940 C   0  0  0  0  0  0  0  0  0  0  0  0
    7.1165   -4.0862   26.9914 C   0  0  0  0  0  0  0  0  0  0  0  0
   10.7220    0.6590   23.1850 C   0  0  0  0  0  0  0  0  0  0  0  0
    9.5820   -0.1080   22.7000 C   0  0  1  0  0  0  0  0  0  0  0  0
    6.7100    0.3850   17.8100 N   0  0  0  0  0  0  0  0  0  0  0  0
    7.2710   -0.1460   19.8310 N   0  0  0  0  0  0  0  0  0  0  0  0
    8.0950   -0.7700   20.8440 N   0  0  0  0  0  0  0  0  0  0  0  0
    9.2950    1.3000   20.9480 O   0  0  0  0  0  0  0  0  0  0  0  0
    7.9856   -4.3803   25.8987 O   0  0  0  0  0  0  0  0  0  0  0  0
   15.4637   -1.3068   21.5522 H   0  0  0  0  0  0  0  0  0  0  0  0
   15.2959   -0.1151   23.7217 H   0  0  0  0  0  0  0  0  0  0  0  0
   13.4470   -1.5927   20.1349 H   0  0  0  0  0  0  0  0  0  0  0  0
    2.9844    2.6927   19.3613 H   0  0  0  0  0  0  0  0  0  0  0  0
    3.6214    2.0680   21.6561 H   0  0  0  0  0  0  0  0  0  0  0  0
   13.1215    0.7889   24.4763 H   0  0  0  0  0  0  0  0  0  0  0  0
   11.2683   -0.6924   20.8805 H   0  0  0  0  0  0  0  0  0  0  0  0
   10.2677   -2.6721   22.3861 H   0  0  0  0  0  0  0  0  0  0  0  0
    7.8705   -0.0015   24.7586 H   0  0  0  0  0  0  0  0  0  0  0  0
    4.3780    2.0103   17.4276 H   0  0  0  0  0  0  0  0  0  0  0  0
    5.6758    0.7336   22.0897 H   0  0  0  0  0  0  0  0  0  0  0  0
    9.5403   -4.5634   23.7844 H   0  0  0  0  0  0  0  0  0  0  0  0
    7.1918   -1.8874   26.1909 H   0  0  0  0  0  0  0  0  0  0  0  0
    8.4213   -0.8245   18.1548 H   0  0  0  0  0  0  0  0  0  0  0  0
    6.9092   -5.0023   27.5498 H   0  0  0  0  0  0  0  0  0  0  0  0
    6.1847   -3.6591   26.6123 H   0  0  0  0  0  0  0  0  0  0  0  0
    7.6049   -3.3636   27.6495 H   0  0  0  0  0  0  0  0  0  0  0  0
   10.7195    0.6680   24.2839 H   0  0  0  0  0  0  0  0  0  0  0  0
   10.6395    1.7141   22.8921 H   0  0  0  0  0  0  0  0  0  0  0  0
    8.6943    0.7922   23.3819 H   0  0  0  0  0  0  0  0  0  0  0  0
    8.1074   -1.6160   21.1028 H   0  0  0  0  0  0  0  0  0  0  0  0
  1  2  1  0  0  0  0
  1  3  2  0  0  0  0
  2  6  2  0  0  0  0
  3  7  1  0  0  0  0
  4  5  1  0  0  0  0
  4 10  2  0  0  0  0
  5 11  2  0  0  0  0
  6 15  1  0  0  0  0
  7 15  2  0  0  0  0
  8 12  2  0  0  0  0
  8 16  1  0  0  0  0
  9 13  1  0  0  0  0
  9 16  2  0  0  0  0
 10 17  1  0  0  0  0
 11 18  1  0  0  0  0
 12 19  1  0  0  0  0
 13 19  2  0  0  0  0
 14 24  2  0  0  0  0
 14 25  1  0  0  0  0
 15 22  1  0  0  0  0
 16 23  1  0  0  0  0
 17 18  2  0  0  0  0
 17 24  1  0  0  0  0
 18 25  1  0  0  0  0
 19 28  1  0  0  0  0
 20 23  1  0  0  0  0
 20 26  1  0  0  0  0
 20 27  2  0  0  0  0
 21 28  1  0  0  0  0
 22 23  1  1  0  0  0
 25 26  1  0  0  0  0
  1 29  1  0  0  0  0
  2 30  1  0  0  0  0
  3 31  1  0  0  0  0
  4 32  1  0  0  0  0
  5 33  1  0  0  0  0
  6 34  1  0  0  0  0
  7 35  1  0  0  0  0
  8 36  1  0  0  0  0
  9 37  1  0  0  0  0
 10 38  1  0  0  0  0
 11 39  1  0  0  0  0
 12 40  1  0  0  0  0
 13 41  1  0  0  0  0
 14 42  1  0  0  0  0
 21 43  1  0  0  0  0
 21 44  1  0  0  0  0
 21 45  1  0  0  0  0
 22 46  1  0  0  0  0
 22 47  1  0  0  0  0
 23 48  1  0  0  0  0
 26 49  1  0  0  0  0
M  END
> <clash_score>
0

> <docking_score>
-6.862894535064697

> <overlap_score>
0.8829439878463745

$$$$
BENZO_213_2
  -OEChem-08222022453D

 49 52  0     1  0  0  0  0  0999 V2000
   14.0513   -1.7974   24.3577 C   0  0  0  0  0  0  0  0  0  0  0  0
   13.0726   -1.4574   25.2916 C   0  0  0  0  0  0  0  0  0  0  0  0
   13.9501   -1.3405   23.0436 C   0  0  0  0  0  0  0  0  0  0  0  0
    3.8860    2.1050   19.5250 C   0  0  0  0  0  0  0  0  0  0  0  0
    4.2460    1.7520   20.8250 C   0  0  0  0  0  0  0  0  0  0  0  0
   11.9927   -0.6606   24.9115 C   0  0  0  0  0  0  0  0  0  0  0  0
   12.8701   -0.5437   22.6635 C   0  0  0  0  0  0  0  0  0  0  0  0
    9.5890   -2.4950   23.2210 C   0  0  0  0  0  0  0  0  0  0  0  0
    8.2550   -1.0010   24.5520 C   0  0  0  0  0  0  0  0  0  0  0  0
    4.6610    1.7170   18.4380 C   0  0  0  0  0  0  0  0  0  0  0  0
    5.3890    1.0010   21.0690 C   0  0  0  0  0  0  0  0  0  0  0  0
    9.1890   -3.5540   24.0140 C   0  0  0  0  0  0  0  0  0  0  0  0
    7.8700   -2.0610   25.3550 C   0  0  0  0  0  0  0  0  0  0  0  0
    7.5840   -0.2700   18.5160 C   0  0  0  0  0  0  0  0  0  0  0  0
   11.8914   -0.2037   23.5974 C   0  0  0  0  0  0  0  0  0  0  0  0
    9.1280   -1.2090   23.4870 C   0  0  0  0  0  0  0  0  0  0  0  0
    5.7970    0.9500   18.6730 C   0  0  0  0  0  0  0  0  0  0  0  0
    6.1460    0.6070   19.9750 C   0  0  0  0  0  0  0  0  0  0  0  0
    8.3450   -3.3440   25.0980 C   0  0  0  0  0  0  0  0  0  0  0  0
    9.0430    0.2380   21.4940 C   0  0  0  0  0  0  0  0  0  0  0  0
    8.5106   -5.6662   25.5724 C   0  0  0  0  0  0  0  0  0  0  0  0
   10.7220    0.6590   23.1850 C   0  0  0  0  0  0  0  0  0  0  0  0
    9.5820   -0.1080   22.7000 C   0  0  2  0  0  0  0  0  0  0  0  0
    6.7100    0.3850   17.8100 N   0  0  0  0  0  0  0  0  0  0  0  0
    7.2710   -0.1460   19.8310 N   0  0  0  0  0  0  0  0  0  0  0  0
    8.0950   -0.7700   20.8440 N   0  0  0  0  0  0  0  0  0  0  0  0
    9.2950    1.3000   20.9480 O   0  0  0  0  0  0  0  0  0  0  0  0
    7.9856   -4.3803   25.8987 O   0  0  0  0  0  0  0  0  0  0  0  0
   14.8928   -2.4167   24.6542 H   0  0  0  0  0  0  0  0  0  0  0  0
   13.1518   -1.8121   26.3151 H   0  0  0  0  0  0  0  0  0  0  0  0
   14.7124   -1.6041   22.3165 H   0  0  0  0  0  0  0  0  0  0  0  0
    2.9844    2.6927   19.3613 H   0  0  0  0  0  0  0  0  0  0  0  0
    3.6214    2.0680   21.6561 H   0  0  0  0  0  0  0  0  0  0  0  0
   11.2348   -0.4008   25.6459 H   0  0  0  0  0  0  0  0  0  0  0  0
   12.7995   -0.1925   21.6375 H   0  0  0  0  0  0  0  0  0  0  0  0
   10.2677   -2.6721   22.3861 H   0  0  0  0  0  0  0  0  0  0  0  0
    7.8705   -0.0015   24.7586 H   0  0  0  0  0  0  0  0  0  0  0  0
    4.3780    2.0103   17.4276 H   0  0  0  0  0  0  0  0  0  0  0  0
    5.6758    0.7336   22.0897 H   0  0  0  0  0  0  0  0  0  0  0  0
    9.5403   -4.5634   23.7844 H   0  0  0  0  0  0  0  0  0  0  0  0
    7.1918   -1.8874   26.1909 H   0  0  0  0  0  0  0  0  0  0  0  0
    8.4213   -0.8245   18.1548 H   0  0  0  0  0  0  0  0  0  0  0  0
    8.1445   -6.4032   26.2913 H   0  0  0  0  0  0  0  0  0  0  0  0
    9.6027   -5.6311   25.5944 H   0  0  0  0  0  0  0  0  0  0  0  0
    8.1771   -5.9422   24.5692 H   0  0  0  0  0  0  0  0  0  0  0  0
   10.4198    1.2578   24.0555 H   0  0  0  0  0  0  0  0  0  0  0  0
   11.0503    1.3920   22.4361 H   0  0  0  0  0  0  0  0  0  0  0  0
   10.5231   -0.9933   22.0106 H   0  0  0  0  0  0  0  0  0  0  0  0
    8.1074   -1.6160   21.1028 H   0  0  0  0  0  0  0  0  0  0  0  0
  1  2  1  0  0  0  0
  1  3  2  0  0  0  0
  2  6  2  0  0  0  0
  3  7  1  0  0  0  0
  4  5  1  0  0  0  0
  4 10  2  0  0  0  0
  5 11  2  0  0  0  0
  6 15  1  0  0  0  0
  7 15  2  0  0  0  0
  8 12  2  0  0  0  0
  8 16  1  0  0  0  0
  9 13  1  0  0  0  0
  9 16  2  0  0  0  0
 10 17  1  0  0  0  0
 11 18  1  0  0  0  0
 12 19  1  0  0  0  0
 13 19  2  0  0  0  0
 14 24  2  0  0  0  0
 14 25  1  0  0  0  0
 15 22  1  0  0  0  0
 16 23  1  0  0  0  0
 17 18  2  0  0  0  0
 17 24  1  0  0  0  0
 18 25  1  0  0  0  0
 19 28  1  0  0  0  0
 20 23  1  0  0  0  0
 20 26  1  0  0  0  0
 20 27  2  0  0  0  0
 21 28  1  0  0  0  0
 22 23  1  6  0  0  0
 25 26  1  0  0  0  0
  1 29  1  0  0  0  0
  2 30  1  0  0  0  0
  3 31  1  0  0  0  0
  4 32  1  0  0  0  0
  5 33  1  0  0  0  0
  6 34  1  0  0  0  0
  7 35  1  0  0  0  0
  8 36  1  0  0  0  0
  9 37  1  0  0  0  0
 10 38  1  0  0  0  0
 11 39  1  0  0  0  0
 12 40  1  0  0  0  0
 13 41  1  0  0  0  0
 14 42  1  0  0  0  0
 21 43  1  0  0  0  0
 21 44  1  0  0  0  0
 21 45  1  0  0  0  0
 22 46  1  0  0  0  0
 22 47  1  0  0  0  0
 23 48  1  0  0  0  0
 26 49  1  0  0  0  0
M  END
> <clash_score>
0

> <docking_score>
-7.983957290649414

> <overlap_score>
0.8974171876907349

$$$$
BENZO_212_1
  -OEChem-08222022453D

 46 49  0     1  0  0  0  0  0999 V2000
    3.8860    2.1050   19.5250 C   0  0  0  0  0  0  0  0  0  0  0  0
    4.2460    1.7520   20.8250 C   0  0  0  0  0  0  0  0  0  0  0  0
    9.5890   -2.4950   23.2210 C   0  0  0  0  0  0  0  0  0  0  0  0
    8.2550   -1.0010   24.5520 C   0  0  0  0  0  0  0  0  0  0  0  0
    4.6610    1.7170   18.4380 C   0  0  0  0  0  0  0  0  0  0  0  0
    5.3890    1.0010   21.0690 C   0  0  0  0  0  0  0  0  0  0  0  0
    9.1890   -3.5540   24.0140 C   0  0  0  0  0  0  0  0  0  0  0  0
    7.8700   -2.0610   25.3550 C   0  0  0  0  0  0  0  0  0  0  0  0
   13.0855   -0.3117   23.6141 C   0  0  0  0  0  0  0  0  0  0  0  0
   14.1930   -0.7722   22.9367 C   0  0  0  0  0  0  0  0  0  0  0  0
   12.4091   -0.0480   21.4061 C   0  0  0  0  0  0  0  0  0  0  0  0
    7.5840   -0.2700   18.5160 C   0  0  0  0  0  0  0  0  0  0  0  0
    9.1280   -1.2090   23.4870 C   0  0  0  0  0  0  0  0  0  0  0  0
   12.0519    0.1077   22.7276 C   0  0  0  0  0  0  0  0  0  0  0  0
    5.7970    0.9500   18.6730 C   0  0  0  0  0  0  0  0  0  0  0  0
    6.1460    0.6070   19.9750 C   0  0  0  0  0  0  0  0  0  0  0  0
    8.3450   -3.3440   25.0980 C   0  0  0  0  0  0  0  0  0  0  0  0
    9.0430    0.2380   21.4940 C   0  0  0  0  0  0  0  0  0  0  0  0
    7.1165   -4.0862   26.9914 C   0  0  0  0  0  0  0  0  0  0  0  0
   10.7220    0.6590   23.1850 C   0  0  0  0  0  0  0  0  0  0  0  0
    9.5820   -0.1080   22.7000 C   0  0  1  0  0  0  0  0  0  0  0  0
    6.7100    0.3850   17.8100 N   0  0  0  0  0  0  0  0  0  0  0  0
    7.2710   -0.1460   19.8310 N   0  0  0  0  0  0  0  0  0  0  0  0
    8.0950   -0.7700   20.8440 N   0  0  0  0  0  0  0  0  0  0  0  0
    9.2950    1.3000   20.9480 O   0  0  0  0  0  0  0  0  0  0  0  0
    7.9856   -4.3803   25.8987 O   0  0  0  0  0  0  0  0  0  0  0  0
   13.9845   -0.6978   21.2387 S   0  0  0  0  0  0  0  0  0  0  0  0
    2.9844    2.6927   19.3613 H   0  0  0  0  0  0  0  0  0  0  0  0
    3.6214    2.0680   21.6561 H   0  0  0  0  0  0  0  0  0  0  0  0
   10.2677   -2.6721   22.3861 H   0  0  0  0  0  0  0  0  0  0  0  0
    7.8705   -0.0015   24.7586 H   0  0  0  0  0  0  0  0  0  0  0  0
    4.3780    2.0103   17.4276 H   0  0  0  0  0  0  0  0  0  0  0  0
    5.6758    0.7336   22.0897 H   0  0  0  0  0  0  0  0  0  0  0  0
    9.5403   -4.5634   23.7844 H   0  0  0  0  0  0  0  0  0  0  0  0
    7.1918   -1.8874   26.1909 H   0  0  0  0  0  0  0  0  0  0  0  0
   13.0241   -0.2787   24.6946 H   0  0  0  0  0  0  0  0  0  0  0  0
   15.1149   -1.1481   23.3576 H   0  0  0  0  0  0  0  0  0  0  0  0
   11.8238    0.1885   20.5283 H   0  0  0  0  0  0  0  0  0  0  0  0
    8.4213   -0.8245   18.1548 H   0  0  0  0  0  0  0  0  0  0  0  0
    6.9092   -5.0023   27.5498 H   0  0  0  0  0  0  0  0  0  0  0  0
    6.1847   -3.6591   26.6123 H   0  0  0  0  0  0  0  0  0  0  0  0
    7.6049   -3.3636   27.6495 H   0  0  0  0  0  0  0  0  0  0  0  0
   10.7195    0.6680   24.2839 H   0  0  0  0  0  0  0  0  0  0  0  0
   10.6395    1.7141   22.8921 H   0  0  0  0  0  0  0  0  0  0  0  0
    8.6943    0.7922   23.3819 H   0  0  0  0  0  0  0  0  0  0  0  0
    8.1074   -1.6160   21.1028 H   0  0  0  0  0  0  0  0  0  0  0  0
  1  2  1  0  0  0  0
  1  5  2  0  0  0  0
  2  6  2  0  0  0  0
  3  7  2  0  0  0  0
  3 13  1  0  0  0  0
  4  8  1  0  0  0  0
  4 13  2  0  0  0  0
  5 15  1  0  0  0  0
  6 16  1  0  0  0  0
  7 17  1  0  0  0  0
  8 17  2  0  0  0  0
  9 10  2  0  0  0  0
  9 14  1  0  0  0  0
 10 27  1  0  0  0  0
 11 14  2  0  0  0  0
 11 27  1  0  0  0  0
 12 22  2  0  0  0  0
 12 23  1  0  0  0  0
 13 21  1  0  0  0  0
 14 20  1  0  0  0  0
 15 16  2  0  0  0  0
 15 22  1  0  0  0  0
 16 23  1  0  0  0  0
 17 26  1  0  0  0  0
 18 21  1  0  0  0  0
 18 24  1  0  0  0  0
 18 25  2  0  0  0  0
 19 26  1  0  0  0  0
 20 21  1  1  0  0  0
 23 24  1  0  0  0  0
  1 28  1  0  0  0  0
  2 29  1  0  0  0  0
  3 30  1  0  0  0  0
  4 31  1  0  0  0  0
  5 32  1  0  0  0  0
  6 33  1  0  0  0  0
  7 34  1  0  0  0  0
  8 35  1  0  0  0  0
  9 36  1  0  0  0  0
 10 37  1  0  0  0  0
 11 38  1  0  0  0  0
 12 39  1  0  0  0  0
 19 40  1  0  0  0  0
 19 41  1  0  0  0  0
 19 42  1  0  0  0  0
 20 43  1  0  0  0  0
 20 44  1  0  0  0  0
 21 45  1  0  0  0  0
 24 46  1  0  0  0  0
M  END
> <clash_score>
0

> <docking_score>
-6.556221961975098

> <overlap_score>
0.8794108033180237

$$$$
BENZO_212_2
  -OEChem-08222022453D

 46 49  0     1  0  0  0  0  0999 V2000
    3.8860    2.1050   19.5250 C   0  0  0  0  0  0  0  0  0  0  0  0
    4.2460    1.7520   20.8250 C   0  0  0  0  0  0  0  0  0  0  0  0
    9.5890   -2.4950   23.2210 C   0  0  0  0  0  0  0  0  0  0  0  0
    8.2550   -1.0010   24.5520 C   0  0  0  0  0  0  0  0  0  0  0  0
    4.6610    1.7170   18.4380 C   0  0  0  0  0  0  0  0  0  0  0  0
    5.3890    1.0010   21.0690 C   0  0  0  0  0  0  0  0  0  0  0  0
    9.1890   -3.5540   24.0140 C   0  0  0  0  0  0  0  0  0  0  0  0
    7.8700   -2.0610   25.3550 C   0  0  0  0  0  0  0  0  0  0  0  0
   12.5521   -1.1164   22.7252 C   0  0  0  0  0  0  0  0  0  0  0  0
   13.5845   -1.7774   23.3535 C   0  0  0  0  0  0  0  0  0  0  0  0
   12.4440   -0.2022   24.8594 C   0  0  0  0  0  0  0  0  0  0  0  0
    7.5840   -0.2700   18.5160 C   0  0  0  0  0  0  0  0  0  0  0  0
    9.1280   -1.2090   23.4870 C   0  0  0  0  0  0  0  0  0  0  0  0
   11.8914   -0.2037   23.5974 C   0  0  0  0  0  0  0  0  0  0  0  0
    5.7970    0.9500   18.6730 C   0  0  0  0  0  0  0  0  0  0  0  0
    6.1460    0.6070   19.9750 C   0  0  0  0  0  0  0  0  0  0  0  0
    8.3450   -3.3440   25.0980 C   0  0  0  0  0  0  0  0  0  0  0  0
    9.0430    0.2380   21.4940 C   0  0  0  0  0  0  0  0  0  0  0  0
    7.1165   -4.0862   26.9914 C   0  0  0  0  0  0  0  0  0  0  0  0
   10.7220    0.6590   23.1850 C   0  0  0  0  0  0  0  0  0  0  0  0
    9.5820   -0.1080   22.7000 C   0  0  2  0  0  0  0  0  0  0  0  0
    6.7100    0.3850   17.8100 N   0  0  0  0  0  0  0  0  0  0  0  0
    7.2710   -0.1460   19.8310 N   0  0  0  0  0  0  0  0  0  0  0  0
    8.0950   -0.7700   20.8440 N   0  0  0  0  0  0  0  0  0  0  0  0
    9.2950    1.3000   20.9480 O   0  0  0  0  0  0  0  0  0  0  0  0
    7.9856   -4.3803   25.8987 O   0  0  0  0  0  0  0  0  0  0  0  0
   13.7539   -1.2974   24.9886 S   0  0  0  0  0  0  0  0  0  0  0  0
    2.9844    2.6927   19.3613 H   0  0  0  0  0  0  0  0  0  0  0  0
    3.6214    2.0680   21.6561 H   0  0  0  0  0  0  0  0  0  0  0  0
   10.2677   -2.6721   22.3861 H   0  0  0  0  0  0  0  0  0  0  0  0
    7.8705   -0.0015   24.7586 H   0  0  0  0  0  0  0  0  0  0  0  0
    4.3780    2.0103   17.4276 H   0  0  0  0  0  0  0  0  0  0  0  0
    5.6758    0.7336   22.0897 H   0  0  0  0  0  0  0  0  0  0  0  0
    9.5403   -4.5634   23.7844 H   0  0  0  0  0  0  0  0  0  0  0  0
    7.1918   -1.8874   26.1909 H   0  0  0  0  0  0  0  0  0  0  0  0
   12.2866   -1.2830   21.6889 H   0  0  0  0  0  0  0  0  0  0  0  0
   14.2469   -2.5196   22.9310 H   0  0  0  0  0  0  0  0  0  0  0  0
   12.1435    0.3871   25.7147 H   0  0  0  0  0  0  0  0  0  0  0  0
    8.4213   -0.8245   18.1548 H   0  0  0  0  0  0  0  0  0  0  0  0
    6.9092   -5.0023   27.5498 H   0  0  0  0  0  0  0  0  0  0  0  0
    6.1847   -3.6591   26.6123 H   0  0  0  0  0  0  0  0  0  0  0  0
    7.6049   -3.3636   27.6495 H   0  0  0  0  0  0  0  0  0  0  0  0
   10.4198    1.2578   24.0555 H   0  0  0  0  0  0  0  0  0  0  0  0
   11.0503    1.3920   22.4361 H   0  0  0  0  0  0  0  0  0  0  0  0
   10.5231   -0.9933   22.0106 H   0  0  0  0  0  0  0  0  0  0  0  0
    8.1074   -1.6160   21.1028 H   0  0  0  0  0  0  0  0  0  0  0  0
  1  2  1  0  0  0  0
  1  5  2  0  0  0  0
  2  6  2  0  0  0  0
  3  7  2  0  0  0  0
  3 13  1  0  0  0  0
  4  8  1  0  0  0  0
  4 13  2  0  0  0  0
  5 15  1  0  0  0  0
  6 16  1  0  0  0  0
  7 17  1  0  0  0  0
  8 17  2  0  0  0  0
  9 10  2  0  0  0  0
  9 14  1  0  0  0  0
 10 27  1  0  0  0  0
 11 14  2  0  0  0  0
 11 27  1  0  0  0  0
 12 22  2  0  0  0  0
 12 23  1  0  0  0  0
 13 21  1  0  0  0  0
 14 20  1  0  0  0  0
 15 16  2  0  0  0  0
 15 22  1  0  0  0  0
 16 23  1  0  0  0  0
 17 26  1  0  0  0  0
 18 21  1  0  0  0  0
 18 24  1  0  0  0  0
 18 25  2  0  0  0  0
 19 26  1  0  0  0  0
 20 21  1  6  0  0  0
 23 24  1  0  0  0  0
  1 28  1  0  0  0  0
  2 29  1  0  0  0  0
  3 30  1  0  0  0  0
  4 31  1  0  0  0  0
  5 32  1  0  0  0  0
  6 33  1  0  0  0  0
  7 34  1  0  0  0  0
  8 35  1  0  0  0  0
  9 36  1  0  0  0  0
 10 37  1  0  0  0  0
 11 38  1  0  0  0  0
 12 39  1  0  0  0  0
 19 40  1  0  0  0  0
 19 41  1  0  0  0  0
 19 42  1  0  0  0  0
 20 43  1  0  0  0  0
 20 44  1  0  0  0  0
 21 45  1  0  0  0  0
 24 46  1  0  0  0  0
M  END
> <clash_score>
0

> <docking_score>
-7.884100914001465

> <overlap_score>
0.8940445184707642

$$$$
BENZO_215_1
  -OEChem-08222022453D

 49 52  0     1  0  0  0  0  0999 V2000
    3.8860    2.1050   19.5250 C   0  0  0  0  0  0  0  0  0  0  0  0
    4.2460    1.7520   20.8250 C   0  0  0  0  0  0  0  0  0  0  0  0
    9.5890   -2.4950   23.2210 C   0  0  0  0  0  0  0  0  0  0  0  0
    8.2550   -1.0010   24.5520 C   0  0  0  0  0  0  0  0  0  0  0  0
    4.6610    1.7170   18.4380 C   0  0  0  0  0  0  0  0  0  0  0  0
    5.3890    1.0010   21.0690 C   0  0  0  0  0  0  0  0  0  0  0  0
    9.1890   -3.5540   24.0140 C   0  0  0  0  0  0  0  0  0  0  0  0
    7.8700   -2.0610   25.3550 C   0  0  0  0  0  0  0  0  0  0  0  0
   13.2450    0.8161   22.4899 C   0  0  0  0  0  0  0  0  0  0  0  0
   12.3686   -1.2002   22.4525 C   0  0  0  0  0  0  0  0  0  0  0  0
    7.5840   -0.2700   18.5160 C   0  0  0  0  0  0  0  0  0  0  0  0
    9.1280   -1.2090   23.4870 C   0  0  0  0  0  0  0  0  0  0  0  0
   12.0519    0.1077   22.7276 C   0  0  0  0  0  0  0  0  0  0  0  0
    5.7970    0.9500   18.6730 C   0  0  0  0  0  0  0  0  0  0  0  0
    6.1460    0.6070   19.9750 C   0  0  0  0  0  0  0  0  0  0  0  0
    8.3450   -3.3440   25.0980 C   0  0  0  0  0  0  0  0  0  0  0  0
    9.0430    0.2380   21.4940 C   0  0  0  0  0  0  0  0  0  0  0  0
   14.4659   -2.3443   21.6969 C   0  0  0  0  0  0  0  0  0  0  0  0
    7.1165   -4.0862   26.9914 C   0  0  0  0  0  0  0  0  0  0  0  0
   10.7220    0.6590   23.1850 C   0  0  0  0  0  0  0  0  0  0  0  0
    9.5820   -0.1080   22.7000 C   0  0  1  0  0  0  0  0  0  0  0  0
   14.2451    0.0239   22.0945 N   0  0  0  0  0  0  0  0  0  0  0  0
    6.7100    0.3850   17.8100 N   0  0  0  0  0  0  0  0  0  0  0  0
   13.6811   -1.1959   22.0817 N   0  0  0  0  0  0  0  0  0  0  0  0
    7.2710   -0.1460   19.8310 N   0  0  0  0  0  0  0  0  0  0  0  0
    8.0950   -0.7700   20.8440 N   0  0  0  0  0  0  0  0  0  0  0  0
    9.2950    1.3000   20.9480 O   0  0  0  0  0  0  0  0  0  0  0  0
    7.9856   -4.3803   25.8987 O   0  0  0  0  0  0  0  0  0  0  0  0
    2.9844    2.6927   19.3613 H   0  0  0  0  0  0  0  0  0  0  0  0
    3.6214    2.0680   21.6561 H   0  0  0  0  0  0  0  0  0  0  0  0
   10.2677   -2.6721   22.3861 H   0  0  0  0  0  0  0  0  0  0  0  0
    7.8705   -0.0015   24.7586 H   0  0  0  0  0  0  0  0  0  0  0  0
    4.3780    2.0103   17.4276 H   0  0  0  0  0  0  0  0  0  0  0  0
    5.6758    0.7336   22.0897 H   0  0  0  0  0  0  0  0  0  0  0  0
    9.5403   -4.5634   23.7844 H   0  0  0  0  0  0  0  0  0  0  0  0
    7.1918   -1.8874   26.1909 H   0  0  0  0  0  0  0  0  0  0  0  0
   13.4301    1.8764   22.5886 H   0  0  0  0  0  0  0  0  0  0  0  0
   11.7867   -2.1111   22.4895 H   0  0  0  0  0  0  0  0  0  0  0  0
    8.4213   -0.8245   18.1548 H   0  0  0  0  0  0  0  0  0  0  0  0
   14.3687   -2.4723   20.6156 H   0  0  0  0  0  0  0  0  0  0  0  0
   15.5118   -2.1787   21.9698 H   0  0  0  0  0  0  0  0  0  0  0  0
   14.0944   -3.2284   22.2225 H   0  0  0  0  0  0  0  0  0  0  0  0
    6.9092   -5.0023   27.5498 H   0  0  0  0  0  0  0  0  0  0  0  0
    6.1847   -3.6591   26.6123 H   0  0  0  0  0  0  0  0  0  0  0  0
    7.6049   -3.3636   27.6495 H   0  0  0  0  0  0  0  0  0  0  0  0
   10.7195    0.6680   24.2839 H   0  0  0  0  0  0  0  0  0  0  0  0
   10.6395    1.7141   22.8921 H   0  0  0  0  0  0  0  0  0  0  0  0
    8.6943    0.7922   23.3819 H   0  0  0  0  0  0  0  0  0  0  0  0
    8.1074   -1.6160   21.1028 H   0  0  0  0  0  0  0  0  0  0  0  0
  1  2  1  0  0  0  0
  1  5  2  0  0  0  0
  2  6  2  0  0  0  0
  3  7  2  0  0  0  0
  3 12  1  0  0  0  0
  4  8  1  0  0  0  0
  4 12  2  0  0  0  0
  5 14  1  0  0  0  0
  6 15  1  0  0  0  0
  7 16  1  0  0  0  0
  8 16  2  0  0  0  0
  9 13  1  0  0  0  0
  9 22  2  0  0  0  0
 10 13  2  0  0  0  0
 10 24  1  0  0  0  0
 11 23  2  0  0  0  0
 11 25  1  0  0  0  0
 12 21  1  0  0  0  0
 13 20  1  0  0  0  0
 14 15  2  0  0  0  0
 14 23  1  0  0  0  0
 15 25  1  0  0  0  0
 16 28  1  0  0  0  0
 17 21  1  0  0  0  0
 17 26  1  0  0  0  0
 17 27  2  0  0  0  0
 18 24  1  0  0  0  0
 19 28  1  0  0  0  0
 20 21  1  1  0  0  0
 22 24  1  0  0  0  0
 25 26  1  0  0  0  0
  1 29  1  0  0  0  0
  2 30  1  0  0  0  0
  3 31  1  0  0  0  0
  4 32  1  0  0  0  0
  5 33  1  0  0  0  0
  6 34  1  0  0  0  0
  7 35  1  0  0  0  0
  8 36  1  0  0  0  0
  9 37  1  0  0  0  0
 10 38  1  0  0  0  0
 11 39  1  0  0  0  0
 18 40  1  0  0  0  0
 18 41  1  0  0  0  0
 18 42  1  0  0  0  0
 19 43  1  0  0  0  0
 19 44  1  0  0  0  0
 19 45  1  0  0  0  0
 20 46  1  0  0  0  0
 20 47  1  0  0  0  0
 21 48  1  0  0  0  0
 26 49  1  0  0  0  0
M  END
> <clash_score>
0

> <docking_score>
-6.685962200164795

> <overlap_score>
0.8835223913192749

$$$$
BENZO_215_2
  -OEChem-08222022453D

 49 52  0     1  0  0  0  0  0999 V2000
    3.8860    2.1050   19.5250 C   0  0  0  0  0  0  0  0  0  0  0  0
    4.2460    1.7520   20.8250 C   0  0  0  0  0  0  0  0  0  0  0  0
    9.5890   -2.4950   23.2210 C   0  0  0  0  0  0  0  0  0  0  0  0
    8.2550   -1.0010   24.5520 C   0  0  0  0  0  0  0  0  0  0  0  0
    4.6610    1.7170   18.4380 C   0  0  0  0  0  0  0  0  0  0  0  0
    5.3890    1.0010   21.0690 C   0  0  0  0  0  0  0  0  0  0  0  0
    9.1890   -3.5540   24.0140 C   0  0  0  0  0  0  0  0  0  0  0  0
    7.8700   -2.0610   25.3550 C   0  0  0  0  0  0  0  0  0  0  0  0
   12.1546   -0.7527   24.8667 C   0  0  0  0  0  0  0  0  0  0  0  0
   12.9364   -0.6310   22.8152 C   0  0  0  0  0  0  0  0  0  0  0  0
    7.5840   -0.2700   18.5160 C   0  0  0  0  0  0  0  0  0  0  0  0
    9.1280   -1.2090   23.4870 C   0  0  0  0  0  0  0  0  0  0  0  0
   11.8914   -0.2037   23.5974 C   0  0  0  0  0  0  0  0  0  0  0  0
    5.7970    0.9500   18.6730 C   0  0  0  0  0  0  0  0  0  0  0  0
    6.1460    0.6070   19.9750 C   0  0  0  0  0  0  0  0  0  0  0  0
    8.3450   -3.3440   25.0980 C   0  0  0  0  0  0  0  0  0  0  0  0
    9.0430    0.2380   21.4940 C   0  0  0  0  0  0  0  0  0  0  0  0
   14.9563   -2.0460   23.2586 C   0  0  0  0  0  0  0  0  0  0  0  0
    8.5106   -5.6662   25.5724 C   0  0  0  0  0  0  0  0  0  0  0  0
   10.7220    0.6590   23.1850 C   0  0  0  0  0  0  0  0  0  0  0  0
    9.5820   -0.1080   22.7000 C   0  0  2  0  0  0  0  0  0  0  0  0
   13.2786   -1.4738   24.8937 N   0  0  0  0  0  0  0  0  0  0  0  0
    6.7100    0.3850   17.8100 N   0  0  0  0  0  0  0  0  0  0  0  0
   13.7309   -1.3809   23.6316 N   0  0  0  0  0  0  0  0  0  0  0  0
    7.2710   -0.1460   19.8310 N   0  0  0  0  0  0  0  0  0  0  0  0
    8.0950   -0.7700   20.8440 N   0  0  0  0  0  0  0  0  0  0  0  0
    9.2950    1.3000   20.9480 O   0  0  0  0  0  0  0  0  0  0  0  0
    7.9856   -4.3803   25.8987 O   0  0  0  0  0  0  0  0  0  0  0  0
    2.9844    2.6927   19.3613 H   0  0  0  0  0  0  0  0  0  0  0  0
    3.6214    2.0680   21.6561 H   0  0  0  0  0  0  0  0  0  0  0  0
   10.2677   -2.6721   22.3861 H   0  0  0  0  0  0  0  0  0  0  0  0
    7.8705   -0.0015   24.7586 H   0  0  0  0  0  0  0  0  0  0  0  0
    4.3780    2.0103   17.4276 H   0  0  0  0  0  0  0  0  0  0  0  0
    5.6758    0.7336   22.0897 H   0  0  0  0  0  0  0  0  0  0  0  0
    9.5403   -4.5634   23.7844 H   0  0  0  0  0  0  0  0  0  0  0  0
    7.1918   -1.8874   26.1909 H   0  0  0  0  0  0  0  0  0  0  0  0
   11.5753   -0.6595   25.7744 H   0  0  0  0  0  0  0  0  0  0  0  0
   13.1758   -0.4703   21.7727 H   0  0  0  0  0  0  0  0  0  0  0  0
    8.4213   -0.8245   18.1548 H   0  0  0  0  0  0  0  0  0  0  0  0
   15.7825   -1.3505   23.4278 H   0  0  0  0  0  0  0  0  0  0  0  0
   15.0826   -2.9452   23.8680 H   0  0  0  0  0  0  0  0  0  0  0  0
   14.9057   -2.3321   22.2043 H   0  0  0  0  0  0  0  0  0  0  0  0
    8.1445   -6.4032   26.2913 H   0  0  0  0  0  0  0  0  0  0  0  0
    9.6027   -5.6311   25.5944 H   0  0  0  0  0  0  0  0  0  0  0  0
    8.1771   -5.9422   24.5692 H   0  0  0  0  0  0  0  0  0  0  0  0
   10.4198    1.2578   24.0555 H   0  0  0  0  0  0  0  0  0  0  0  0
   11.0503    1.3920   22.4361 H   0  0  0  0  0  0  0  0  0  0  0  0
   10.5231   -0.9933   22.0106 H   0  0  0  0  0  0  0  0  0  0  0  0
    8.1074   -1.6160   21.1028 H   0  0  0  0  0  0  0  0  0  0  0  0
  1  2  1  0  0  0  0
  1  5  2  0  0  0  0
  2  6  2  0  0  0  0
  3  7  2  0  0  0  0
  3 12  1  0  0  0  0
  4  8  1  0  0  0  0
  4 12  2  0  0  0  0
  5 14  1  0  0  0  0
  6 15  1  0  0  0  0
  7 16  1  0  0  0  0
  8 16  2  0  0  0  0
  9 13  1  0  0  0  0
  9 22  2  0  0  0  0
 10 13  2  0  0  0  0
 10 24  1  0  0  0  0
 11 23  2  0  0  0  0
 11 25  1  0  0  0  0
 12 21  1  0  0  0  0
 13 20  1  0  0  0  0
 14 15  2  0  0  0  0
 14 23  1  0  0  0  0
 15 25  1  0  0  0  0
 16 28  1  0  0  0  0
 17 21  1  0  0  0  0
 17 26  1  0  0  0  0
 17 27  2  0  0  0  0
 18 24  1  0  0  0  0
 19 28  1  0  0  0  0
 20 21  1  6  0  0  0
 22 24  1  0  0  0  0
 25 26  1  0  0  0  0
  1 29  1  0  0  0  0
  2 30  1  0  0  0  0
  3 31  1  0  0  0  0
  4 32  1  0  0  0  0
  5 33  1  0  0  0  0
  6 34  1  0  0  0  0
  7 35  1  0  0  0  0
  8 36  1  0  0  0  0
  9 37  1  0  0  0  0
 10 38  1  0  0  0  0
 11 39  1  0  0  0  0
 18 40  1  0  0  0  0
 18 41  1  0  0  0  0
 18 42  1  0  0  0  0
 19 43  1  0  0  0  0
 19 44  1  0  0  0  0
 19 45  1  0  0  0  0
 20 46  1  0  0  0  0
 20 47  1  0  0  0  0
 21 48  1  0  0  0  0
 26 49  1  0  0  0  0
M  END
> <clash_score>
0

> <docking_score>
-7.036931037902832

> <overlap_score>
0.899168848991394

$$$$
BENZO_214_1
  -OEChem-08222022453D

 49 52  0     1  0  0  0  0  0999 V2000
    3.8860    2.1050   19.5250 C   0  0  0  0  0  0  0  0  0  0  0  0
    4.2460    1.7520   20.8250 C   0  0  0  0  0  0  0  0  0  0  0  0
   13.8446    0.0438   21.1092 C   0  0  0  0  0  0  0  0  0  0  0  0
   12.6160    0.5516   21.5316 C   0  0  0  0  0  0  0  0  0  0  0  0
    9.5890   -2.4950   23.2210 C   0  0  0  0  0  0  0  0  0  0  0  0
    8.2550   -1.0010   24.5520 C   0  0  0  0  0  0  0  0  0  0  0  0
    4.6610    1.7170   18.4380 C   0  0  0  0  0  0  0  0  0  0  0  0
    5.3890    1.0010   21.0690 C   0  0  0  0  0  0  0  0  0  0  0  0
    9.1890   -3.5540   24.0140 C   0  0  0  0  0  0  0  0  0  0  0  0
    7.8700   -2.0610   25.3550 C   0  0  0  0  0  0  0  0  0  0  0  0
   14.5090   -0.9080   21.8827 C   0  0  0  0  0  0  0  0  0  0  0  0
   12.7164   -0.8440   23.5012 C   0  0  0  0  0  0  0  0  0  0  0  0
    7.5840   -0.2700   18.5160 C   0  0  0  0  0  0  0  0  0  0  0  0
    9.1280   -1.2090   23.4870 C   0  0  0  0  0  0  0  0  0  0  0  0
   12.0519    0.1077   22.7276 C   0  0  0  0  0  0  0  0  0  0  0  0
    5.7970    0.9500   18.6730 C   0  0  0  0  0  0  0  0  0  0  0  0
    6.1460    0.6070   19.9750 C   0  0  0  0  0  0  0  0  0  0  0  0
    8.3450   -3.3440   25.0980 C   0  0  0  0  0  0  0  0  0  0  0  0
   13.9449   -1.3519   23.0787 C   0  0  0  0  0  0  0  0  0  0  0  0
    9.0430    0.2380   21.4940 C   0  0  0  0  0  0  0  0  0  0  0  0
    8.5106   -5.6662   25.5724 C   0  0  0  0  0  0  0  0  0  0  0  0
   10.7220    0.6590   23.1850 C   0  0  0  0  0  0  0  0  0  0  0  0
    9.5820   -0.1080   22.7000 C   0  0  1  0  0  0  0  0  0  0  0  0
    6.7100    0.3850   17.8100 N   0  0  0  0  0  0  0  0  0  0  0  0
    7.2710   -0.1460   19.8310 N   0  0  0  0  0  0  0  0  0  0  0  0
    8.0950   -0.7700   20.8440 N   0  0  0  0  0  0  0  0  0  0  0  0
    9.2950    1.3000   20.9480 O   0  0  0  0  0  0  0  0  0  0  0  0
    7.9856   -4.3803   25.8987 O   0  0  0  0  0  0  0  0  0  0  0  0
   14.7657   -2.5253   24.0333 Cl  0  0  0  0  0  0  0  0  0  0  0  0
    2.9844    2.6927   19.3613 H   0  0  0  0  0  0  0  0  0  0  0  0
    3.6214    2.0680   21.6561 H   0  0  0  0  0  0  0  0  0  0  0  0
   14.2835    0.3898   20.1778 H   0  0  0  0  0  0  0  0  0  0  0  0
   12.1054    1.2930   20.9225 H   0  0  0  0  0  0  0  0  0  0  0  0
   10.2677   -2.6721   22.3861 H   0  0  0  0  0  0  0  0  0  0  0  0
    7.8705   -0.0015   24.7586 H   0  0  0  0  0  0  0  0  0  0  0  0
    4.3780    2.0103   17.4276 H   0  0  0  0  0  0  0  0  0  0  0  0
    5.6758    0.7336   22.0897 H   0  0  0  0  0  0  0  0  0  0  0  0
    9.5403   -4.5634   23.7844 H   0  0  0  0  0  0  0  0  0  0  0  0
    7.1918   -1.8874   26.1909 H   0  0  0  0  0  0  0  0  0  0  0  0
   15.4660   -1.2948   21.5412 H   0  0  0  0  0  0  0  0  0  0  0  0
   12.2722   -1.1873   24.4326 H   0  0  0  0  0  0  0  0  0  0  0  0
    8.4213   -0.8245   18.1548 H   0  0  0  0  0  0  0  0  0  0  0  0
    8.1445   -6.4032   26.2913 H   0  0  0  0  0  0  0  0  0  0  0  0
    9.6027   -5.6311   25.5944 H   0  0  0  0  0  0  0  0  0  0  0  0
    8.1771   -5.9422   24.5692 H   0  0  0  0  0  0  0  0  0  0  0  0
   10.7195    0.6680   24.2839 H   0  0  0  0  0  0  0  0  0  0  0  0
   10.6395    1.7141   22.8921 H   0  0  0  0  0  0  0  0  0  0  0  0
    8.6943    0.7922   23.3819 H   0  0  0  0  0  0  0  0  0  0  0  0
    8.1074   -1.6160   21.1028 H   0  0  0  0  0  0  0  0  0  0  0  0
  1  2  1  0  0  0  0
  1  7  2  0  0  0  0
  2  8  2  0  0  0  0
  3  4  2  0  0  0  0
  3 11  1  0  0  0  0
  4 15  1  0  0  0  0
  5  9  2  0  0  0  0
  5 14  1  0  0  0  0
  6 10  1  0  0  0  0
  6 14  2  0  0  0  0
  7 16  1  0  0  0  0
  8 17  1  0  0  0  0
  9 18  1  0  0  0  0
 10 18  2  0  0  0  0
 11 19  2  0  0  0  0
 12 15  2  0  0  0  0
 12 19  1  0  0  0  0
 13 24  2  0  0  0  0
 13 25  1  0  0  0  0
 14 23  1  0  0  0  0
 15 22  1  0  0  0  0
 16 17  2  0  0  0  0
 16 24  1  0  0  0  0
 17 25  1  0  0  0  0
 18 28  1  0  0  0  0
 19 29  1  0  0  0  0
 20 23  1  0  0  0  0
 20 26  1  0  0  0  0
 20 27  2  0  0  0  0
 21 28  1  0  0  0  0
 22 23  1  1  0  0  0
 25 26  1  0  0  0  0
  1 30  1  0  0  0  0
  2 31  1  0  0  0  0
  3 32  1  0  0  0  0
  4 33  1  0  0  0  0
  5 34  1  0  0  0  0
  6 35  1  0  0  0  0
  7 36  1  0  0  0  0
  8 37  1  0  0  0  0
  9 38  1  0  0  0  0
 10 39  1  0  0  0  0
 11 40  1  0  0  0  0
 12 41  1  0  0  0  0
 13 42  1  0  0  0  0
 21 43  1  0  0  0  0
 21 44  1  0  0  0  0
 21 45  1  0  0  0  0
 22 46  1  0  0  0  0
 22 47  1  0  0  0  0
 23 48  1  0  0  0  0
 26 49  1  0  0  0  0
M  END
> <clash_score>
0

> <docking_score>
-6.493180274963379

> <overlap_score>
0.890778124332428

$$$$
BENZO_214_2
  -OEChem-08222022453D

 49 52  0     1  0  0  0  0  0999 V2000
    3.8860    2.1050   19.5250 C   0  0  0  0  0  0  0  0  0  0  0  0
    4.2460    1.7520   20.8250 C   0  0  0  0  0  0  0  0  0  0  0  0
   13.0699   -1.4582   25.2928 C   0  0  0  0  0  0  0  0  0  0  0  0
   11.9910   -0.6606   24.9116 C   0  0  0  0  0  0  0  0  0  0  0  0
    9.5890   -2.4950   23.2210 C   0  0  0  0  0  0  0  0  0  0  0  0
    8.2550   -1.0010   24.5520 C   0  0  0  0  0  0  0  0  0  0  0  0
    4.6610    1.7170   18.4380 C   0  0  0  0  0  0  0  0  0  0  0  0
    5.3890    1.0010   21.0690 C   0  0  0  0  0  0  0  0  0  0  0  0
    9.1890   -3.5540   24.0140 C   0  0  0  0  0  0  0  0  0  0  0  0
    7.8700   -2.0610   25.3550 C   0  0  0  0  0  0  0  0  0  0  0  0
   14.0494   -1.7989   24.3598 C   0  0  0  0  0  0  0  0  0  0  0  0
   12.8708   -0.5445   22.6644 C   0  0  0  0  0  0  0  0  0  0  0  0
    7.5840   -0.2700   18.5160 C   0  0  0  0  0  0  0  0  0  0  0  0
    9.1280   -1.2090   23.4870 C   0  0  0  0  0  0  0  0  0  0  0  0
   11.8914   -0.2037   23.5974 C   0  0  0  0  0  0  0  0  0  0  0  0
    5.7970    0.9500   18.6730 C   0  0  0  0  0  0  0  0  0  0  0  0
    6.1460    0.6070   19.9750 C   0  0  0  0  0  0  0  0  0  0  0  0
    8.3450   -3.3440   25.0980 C   0  0  0  0  0  0  0  0  0  0  0  0
   13.9498   -1.3420   23.0457 C   0  0  0  0  0  0  0  0  0  0  0  0
    9.0430    0.2380   21.4940 C   0  0  0  0  0  0  0  0  0  0  0  0
    8.5106   -5.6662   25.5724 C   0  0  0  0  0  0  0  0  0  0  0  0
   10.7220    0.6590   23.1850 C   0  0  0  0  0  0  0  0  0  0  0  0
    9.5820   -0.1080   22.7000 C   0  0  2  0  0  0  0  0  0  0  0  0
    6.7100    0.3850   17.8100 N   0  0  0  0  0  0  0  0  0  0  0  0
    7.2710   -0.1460   19.8310 N   0  0  0  0  0  0  0  0  0  0  0  0
    8.0950   -0.7700   20.8440 N   0  0  0  0  0  0  0  0  0  0  0  0
    9.2950    1.3000   20.9480 O   0  0  0  0  0  0  0  0  0  0  0  0
    7.9856   -4.3803   25.8987 O   0  0  0  0  0  0  0  0  0  0  0  0
   15.1579   -1.7637   21.8948 Cl  0  0  0  0  0  0  0  0  0  0  0  0
    2.9844    2.6927   19.3613 H   0  0  0  0  0  0  0  0  0  0  0  0
    3.6214    2.0680   21.6561 H   0  0  0  0  0  0  0  0  0  0  0  0
   13.1470   -1.8139   26.3162 H   0  0  0  0  0  0  0  0  0  0  0  0
   11.2324   -0.4001   25.6451 H   0  0  0  0  0  0  0  0  0  0  0  0
   10.2677   -2.6721   22.3861 H   0  0  0  0  0  0  0  0  0  0  0  0
    7.8705   -0.0015   24.7586 H   0  0  0  0  0  0  0  0  0  0  0  0
    4.3780    2.0103   17.4276 H   0  0  0  0  0  0  0  0  0  0  0  0
    5.6758    0.7336   22.0897 H   0  0  0  0  0  0  0  0  0  0  0  0
    9.5403   -4.5634   23.7844 H   0  0  0  0  0  0  0  0  0  0  0  0
    7.1918   -1.8874   26.1909 H   0  0  0  0  0  0  0  0  0  0  0  0
   14.8846   -2.4215   24.6710 H   0  0  0  0  0  0  0  0  0  0  0  0
   12.7889   -0.1853   21.6412 H   0  0  0  0  0  0  0  0  0  0  0  0
    8.4213   -0.8245   18.1548 H   0  0  0  0  0  0  0  0  0  0  0  0
    8.1445   -6.4032   26.2913 H   0  0  0  0  0  0  0  0  0  0  0  0
    9.6027   -5.6311   25.5944 H   0  0  0  0  0  0  0  0  0  0  0  0
    8.1771   -5.9422   24.5692 H   0  0  0  0  0  0  0  0  0  0  0  0
   10.4198    1.2578   24.0555 H   0  0  0  0  0  0  0  0  0  0  0  0
   11.0503    1.3920   22.4361 H   0  0  0  0  0  0  0  0  0  0  0  0
   10.5231   -0.9933   22.0106 H   0  0  0  0  0  0  0  0  0  0  0  0
    8.1074   -1.6160   21.1028 H   0  0  0  0  0  0  0  0  0  0  0  0
  1  2  1  0  0  0  0
  1  7  2  0  0  0  0
  2  8  2  0  0  0  0
  3  4  2  0  0  0  0
  3 11  1  0  0  0  0
  4 15  1  0  0  0  0
  5  9  2  0  0  0  0
  5 14  1  0  0  0  0
  6 10  1  0  0  0  0
  6 14  2  0  0  0  0
  7 16  1  0  0  0  0
  8 17  1  0  0  0  0
  9 18  1  0  0  0  0
 10 18  2  0  0  0  0
 11 19  2  0  0  0  0
 12 15  2  0  0  0  0
 12 19  1  0  0  0  0
 13 24  2  0  0  0  0
 13 25  1  0  0  0  0
 14 23  1  0  0  0  0
 15 22  1  0  0  0  0
 16 17  2  0  0  0  0
 16 24  1  0  0  0  0
 17 25  1  0  0  0  0
 18 28  1  0  0  0  0
 19 29  1  0  0  0  0
 20 23  1  0  0  0  0
 20 26  1  0  0  0  0
 20 27  2  0  0  0  0
 21 28  1  0  0  0  0
 22 23  1  6  0  0  0
 25 26  1  0  0  0  0
  1 30  1  0  0  0  0
  2 31  1  0  0  0  0
  3 32  1  0  0  0  0
  4 33  1  0  0  0  0
  5 34  1  0  0  0  0
  6 35  1  0  0  0  0
  7 36  1  0  0  0  0
  8 37  1  0  0  0  0
  9 38  1  0  0  0  0
 10 39  1  0  0  0  0
 11 40  1  0  0  0  0
 12 41  1  0  0  0  0
 13 42  1  0  0  0  0
 21 43  1  0  0  0  0
 21 44  1  0  0  0  0
 21 45  1  0  0  0  0
 22 46  1  0  0  0  0
 22 47  1  0  0  0  0
 23 48  1  0  0  0  0
 26 49  1  0  0  0  0
M  END
> <clash_score>
0

> <docking_score>
-7.109874725341797

> <overlap_score>
0.9032607674598694

$$$$
BENZO_217_1
  -OEChem-08222022453D

 59 63  0     1  0  0  0  0  0999 V2000
   14.0375   -1.8229   24.3428 C   0  0  0  0  0  0  0  0  0  0  0  0
   13.0623   -1.4808   25.2795 C   0  0  0  0  0  0  0  0  0  0  0  0
   13.9374   -1.3599   23.0308 C   0  0  0  0  0  0  0  0  0  0  0  0
    3.8860    2.1050   19.5250 C   0  0  0  0  0  0  0  0  0  0  0  0
    4.2460    1.7520   20.8250 C   0  0  0  0  0  0  0  0  0  0  0  0
   11.9868   -0.6757   24.9042 C   0  0  0  0  0  0  0  0  0  0  0  0
   12.8619   -0.5549   22.6555 C   0  0  0  0  0  0  0  0  0  0  0  0
    9.5890   -2.4950   23.2210 C   0  0  0  0  0  0  0  0  0  0  0  0
    8.2550   -1.0010   24.5520 C   0  0  0  0  0  0  0  0  0  0  0  0
    4.6610    1.7170   18.4380 C   0  0  0  0  0  0  0  0  0  0  0  0
    5.3890    1.0010   21.0690 C   0  0  0  0  0  0  0  0  0  0  0  0
    9.1890   -3.5540   24.0140 C   0  0  0  0  0  0  0  0  0  0  0  0
    7.8700   -2.0610   25.3550 C   0  0  0  0  0  0  0  0  0  0  0  0
    7.5840   -0.2700   18.5160 C   0  0  0  0  0  0  0  0  0  0  0  0
   11.8866   -0.2127   23.5922 C   0  0  0  0  0  0  0  0  0  0  0  0
    9.1280   -1.2090   23.4870 C   0  0  0  0  0  0  0  0  0  0  0  0
    5.7970    0.9500   18.6730 C   0  0  0  0  0  0  0  0  0  0  0  0
    6.1460    0.6070   19.9750 C   0  0  0  0  0  0  0  0  0  0  0  0
    8.3450   -3.3440   25.0980 C   0  0  0  0  0  0  0  0  0  0  0  0
    6.6194   -4.8191   26.1158 C   0  0  0  0  0  0  0  0  0  0  0  0
    9.0430    0.2380   21.4940 C   0  0  0  0  0  0  0  0  0  0  0  0
    6.4366   -5.9938   27.0605 C   0  0  0  0  0  0  0  0  0  0  0  0
    7.2458   -5.7947   28.3299 C   0  0  0  0  0  0  0  0  0  0  0  0
    8.7184   -5.5215   28.0404 C   0  0  0  0  0  0  0  0  0  0  0  0
    9.0024   -5.2744   26.5596 C   0  0  0  0  0  0  0  0  0  0  0  0
   10.7220    0.6590   23.1850 C   0  0  0  0  0  0  0  0  0  0  0  0
    9.5820   -0.1080   22.7000 C   0  0  1  0  0  0  0  0  0  0  0  0
    6.7100    0.3850   17.8100 N   0  0  0  0  0  0  0  0  0  0  0  0
    7.2710   -0.1460   19.8310 N   0  0  0  0  0  0  0  0  0  0  0  0
    7.9658   -4.4384   25.9449 N   0  0  0  0  0  0  0  0  0  0  0  0
    8.0950   -0.7700   20.8440 N   0  0  0  0  0  0  0  0  0  0  0  0
    5.6415   -4.3469   25.5373 O   0  0  0  0  0  0  0  0  0  0  0  0
    9.2950    1.3000   20.9480 O   0  0  0  0  0  0  0  0  0  0  0  0
   14.8756   -2.4487   24.6355 H   0  0  0  0  0  0  0  0  0  0  0  0
   13.1407   -1.8403   26.3013 H   0  0  0  0  0  0  0  0  0  0  0  0
   14.6970   -1.6252   22.3015 H   0  0  0  0  0  0  0  0  0  0  0  0
    2.9844    2.6927   19.3613 H   0  0  0  0  0  0  0  0  0  0  0  0
    3.6214    2.0680   21.6561 H   0  0  0  0  0  0  0  0  0  0  0  0
   11.2315   -0.4143   25.6407 H   0  0  0  0  0  0  0  0  0  0  0  0
   12.7920   -0.1989   21.6310 H   0  0  0  0  0  0  0  0  0  0  0  0
   10.2695   -2.6718   22.3873 H   0  0  0  0  0  0  0  0  0  0  0  0
    7.8712   -0.0014   24.7587 H   0  0  0  0  0  0  0  0  0  0  0  0
    4.3780    2.0103   17.4276 H   0  0  0  0  0  0  0  0  0  0  0  0
    5.6758    0.7336   22.0897 H   0  0  0  0  0  0  0  0  0  0  0  0
    9.5431   -4.5618   23.7801 H   0  0  0  0  0  0  0  0  0  0  0  0
    7.1923   -1.8823   26.1912 H   0  0  0  0  0  0  0  0  0  0  0  0
    8.4213   -0.8245   18.1548 H   0  0  0  0  0  0  0  0  0  0  0  0
    5.3901   -6.0734   27.3117 H   0  0  0  0  0  0  0  0  0  0  0  0
    6.7606   -6.8843   26.5429 H   0  0  0  0  0  0  0  0  0  0  0  0
    6.8221   -4.9563   28.9212 H   0  0  0  0  0  0  0  0  0  0  0  0
    7.1526   -6.6910   28.9757 H   0  0  0  0  0  0  0  0  0  0  0  0
    9.0539   -4.6418   28.6288 H   0  0  0  0  0  0  0  0  0  0  0  0
    9.3393   -6.3684   28.4053 H   0  0  0  0  0  0  0  0  0  0  0  0
    9.9475   -4.7506   26.4523 H   0  0  0  0  0  0  0  0  0  0  0  0
    9.0509   -6.2236   26.0372 H   0  0  0  0  0  0  0  0  0  0  0  0
   10.4364    1.2691   24.0532 H   0  0  0  0  0  0  0  0  0  0  0  0
   11.0496    1.3814   22.4256 H   0  0  0  0  0  0  0  0  0  0  0  0
   10.5267   -0.9929   22.0072 H   0  0  0  0  0  0  0  0  0  0  0  0
    8.0815   -1.6117   21.0754 H   0  0  0  0  0  0  0  0  0  0  0  0
  1  2  1  0  0  0  0
  1  3  2  0  0  0  0
  2  6  2  0  0  0  0
  3  7  1  0  0  0  0
  4  5  1  0  0  0  0
  4 10  2  0  0  0  0
  5 11  2  0  0  0  0
  6 15  1  0  0  0  0
  7 15  2  0  0  0  0
  8 12  2  0  0  0  0
  8 16  1  0  0  0  0
  9 13  1  0  0  0  0
  9 16  2  0  0  0  0
 10 17  1  0  0  0  0
 11 18  1  0  0  0  0
 12 19  1  0  0  0  0
 13 19  2  0  0  0  0
 14 28  2  0  0  0  0
 14 29  1  0  0  0  0
 15 26  1  0  0  0  0
 16 27  1  0  0  0  0
 17 18  2  0  0  0  0
 17 28  1  0  0  0  0
 18 29  1  0  0  0  0
 19 30  1  0  0  0  0
 20 22  1  0  0  0  0
 20 30  1  0  0  0  0
 20 32  2  0  0  0  0
 21 27  1  1  0  0  0
 21 31  1  0  0  0  0
 21 33  2  0  0  0  0
 22 23  1  0  0  0  0
 23 24  1  0  0  0  0
 24 25  1  0  0  0  0
 25 30  1  0  0  0  0
 26 27  1  0  0  0  0
 29 31  1  0  0  0  0
  1 34  1  0  0  0  0
  2 35  1  0  0  0  0
  3 36  1  0  0  0  0
  4 37  1  0  0  0  0
  5 38  1  0  0  0  0
  6 39  1  0  0  0  0
  7 40  1  0  0  0  0
  8 41  1  0  0  0  0
  9 42  1  0  0  0  0
 10 43  1  0  0  0  0
 11 44  1  0  0  0  0
 12 45  1  0  0  0  0
 13 46  1  0  0  0  0
 14 47  1  0  0  0  0
 22 48  1  0  0  0  0
 22 49  1  0  0  0  0
 23 50  1  0  0  0  0
 23 51  1  0  0  0  0
 24 52  1  0  0  0  0
 24 53  1  0  0  0  0
 25 54  1  0  0  0  0
 25 55  1  0  0  0  0
 26 56  1  0  0  0  0
 26 57  1  0  0  0  0
 27 58  1  0  0  0  0
 31 59  1  0  0  0  0
M  END
> <clash_score>
0

> <docking_score>
-8.774889945983887

> <overlap_score>
0.9774194955825806

$$$$
BENZO_217_2
  -OEChem-08222022453D

 59 63  0     1  0  0  0  0  0999 V2000
   14.4933   -0.9430   21.8797 C   0  0  0  0  0  0  0  0  0  0  0  0
   13.9289   -1.3774   23.0790 C   0  0  0  0  0  0  0  0  0  0  0  0
   13.8346    0.0111   21.1041 C   0  0  0  0  0  0  0  0  0  0  0  0
    3.8860    2.1050   19.5250 C   0  0  0  0  0  0  0  0  0  0  0  0
    4.2460    1.7520   20.8250 C   0  0  0  0  0  0  0  0  0  0  0  0
   12.7057   -0.8579   23.5026 C   0  0  0  0  0  0  0  0  0  0  0  0
   12.6114    0.5306   21.5277 C   0  0  0  0  0  0  0  0  0  0  0  0
    9.5890   -2.4950   23.2210 C   0  0  0  0  0  0  0  0  0  0  0  0
    8.2550   -1.0010   24.5520 C   0  0  0  0  0  0  0  0  0  0  0  0
    4.6610    1.7170   18.4380 C   0  0  0  0  0  0  0  0  0  0  0  0
    5.3890    1.0010   21.0690 C   0  0  0  0  0  0  0  0  0  0  0  0
    9.1890   -3.5540   24.0140 C   0  0  0  0  0  0  0  0  0  0  0  0
    7.8700   -2.0610   25.3550 C   0  0  0  0  0  0  0  0  0  0  0  0
    7.5840   -0.2700   18.5160 C   0  0  0  0  0  0  0  0  0  0  0  0
   12.0469    0.0961   22.7269 C   0  0  0  0  0  0  0  0  0  0  0  0
    9.1280   -1.2090   23.4870 C   0  0  0  0  0  0  0  0  0  0  0  0
    5.7970    0.9500   18.6730 C   0  0  0  0  0  0  0  0  0  0  0  0
    6.1460    0.6070   19.9750 C   0  0  0  0  0  0  0  0  0  0  0  0
    8.3450   -3.3440   25.0980 C   0  0  0  0  0  0  0  0  0  0  0  0
    7.6777   -4.2365   27.3114 C   0  0  0  0  0  0  0  0  0  0  0  0
    9.0430    0.2380   21.4940 C   0  0  0  0  0  0  0  0  0  0  0  0
    7.0008   -5.3819   28.0445 C   0  0  0  0  0  0  0  0  0  0  0  0
    7.4106   -6.7604   27.5741 C   0  0  0  0  0  0  0  0  0  0  0  0
    7.2148   -6.8411   26.0763 C   0  0  0  0  0  0  0  0  0  0  0  0
    8.0979   -5.8053   25.4011 C   0  0  0  0  0  0  0  0  0  0  0  0
   10.7220    0.6590   23.1850 C   0  0  0  0  0  0  0  0  0  0  0  0
    9.5820   -0.1080   22.7000 C   0  0  2  0  0  0  0  0  0  0  0  0
    6.7100    0.3850   17.8100 N   0  0  0  0  0  0  0  0  0  0  0  0
    7.2710   -0.1460   19.8310 N   0  0  0  0  0  0  0  0  0  0  0  0
    7.9635   -4.4451   25.9501 N   0  0  0  0  0  0  0  0  0  0  0  0
    8.0950   -0.7700   20.8440 N   0  0  0  0  0  0  0  0  0  0  0  0
    7.8778   -3.1892   27.9327 O   0  0  0  0  0  0  0  0  0  0  0  0
    9.2950    1.3000   20.9480 O   0  0  0  0  0  0  0  0  0  0  0  0
   15.4465   -1.3466   21.5507 H   0  0  0  0  0  0  0  0  0  0  0  0
   14.4422   -2.1194   23.6836 H   0  0  0  0  0  0  0  0  0  0  0  0
   14.2743    0.3503   20.1708 H   0  0  0  0  0  0  0  0  0  0  0  0
    2.9844    2.6927   19.3613 H   0  0  0  0  0  0  0  0  0  0  0  0
    3.6214    2.0680   21.6561 H   0  0  0  0  0  0  0  0  0  0  0  0
   12.2733   -1.2024   24.4383 H   0  0  0  0  0  0  0  0  0  0  0  0
   12.1053    1.2734   20.9168 H   0  0  0  0  0  0  0  0  0  0  0  0
   10.2695   -2.6718   22.3873 H   0  0  0  0  0  0  0  0  0  0  0  0
    7.8712   -0.0014   24.7587 H   0  0  0  0  0  0  0  0  0  0  0  0
    4.3780    2.0103   17.4276 H   0  0  0  0  0  0  0  0  0  0  0  0
    5.6758    0.7336   22.0897 H   0  0  0  0  0  0  0  0  0  0  0  0
    9.5431   -4.5618   23.7801 H   0  0  0  0  0  0  0  0  0  0  0  0
    7.1923   -1.8823   26.1912 H   0  0  0  0  0  0  0  0  0  0  0  0
    8.4213   -0.8245   18.1548 H   0  0  0  0  0  0  0  0  0  0  0  0
    7.2290   -5.2845   29.1121 H   0  0  0  0  0  0  0  0  0  0  0  0
    5.9188   -5.2480   27.9251 H   0  0  0  0  0  0  0  0  0  0  0  0
    8.4598   -6.9525   27.8289 H   0  0  0  0  0  0  0  0  0  0  0  0
    6.8062   -7.5226   28.0776 H   0  0  0  0  0  0  0  0  0  0  0  0
    7.4789   -7.8416   25.7161 H   0  0  0  0  0  0  0  0  0  0  0  0
    6.1634   -6.6702   25.8155 H   0  0  0  0  0  0  0  0  0  0  0  0
    9.1520   -6.0895   25.5127 H   0  0  0  0  0  0  0  0  0  0  0  0
    7.8696   -5.7728   24.3290 H   0  0  0  0  0  0  0  0  0  0  0  0
   10.7288    0.6889   24.2835 H   0  0  0  0  0  0  0  0  0  0  0  0
   10.6393    1.7086   22.8728 H   0  0  0  0  0  0  0  0  0  0  0  0
    8.6955    0.7993   23.3793 H   0  0  0  0  0  0  0  0  0  0  0  0
    8.0815   -1.6117   21.0754 H   0  0  0  0  0  0  0  0  0  0  0  0
  1  2  1  0  0  0  0
  1  3  2  0  0  0  0
  2  6  2  0  0  0  0
  3  7  1  0  0  0  0
  4  5  1  0  0  0  0
  4 10  2  0  0  0  0
  5 11  2  0  0  0  0
  6 15  1  0  0  0  0
  7 15  2  0  0  0  0
  8 12  2  0  0  0  0
  8 16  1  0  0  0  0
  9 13  1  0  0  0  0
  9 16  2  0  0  0  0
 10 17  1  0  0  0  0
 11 18  1  0  0  0  0
 12 19  1  0  0  0  0
 13 19  2  0  0  0  0
 14 28  2  0  0  0  0
 14 29  1  0  0  0  0
 15 26  1  0  0  0  0
 16 27  1  0  0  0  0
 17 18  2  0  0  0  0
 17 28  1  0  0  0  0
 18 29  1  0  0  0  0
 19 30  1  0  0  0  0
 20 22  1  0  0  0  0
 20 30  1  0  0  0  0
 20 32  2  0  0  0  0
 21 27  1  6  0  0  0
 21 31  1  0  0  0  0
 21 33  2  0  0  0  0
 22 23  1  0  0  0  0
 23 24  1  0  0  0  0
 24 25  1  0  0  0  0
 25 30  1  0  0  0  0
 26 27  1  0  0  0  0
 29 31  1  0  0  0  0
  1 34  1  0  0  0  0
  2 35  1  0  0  0  0
  3 36  1  0  0  0  0
  4 37  1  0  0  0  0
  5 38  1  0  0  0  0
  6 39  1  0  0  0  0
  7 40  1  0  0  0  0
  8 41  1  0  0  0  0
  9 42  1  0  0  0  0
 10 43  1  0  0  0  0
 11 44  1  0  0  0  0
 12 45  1  0  0  0  0
 13 46  1  0  0  0  0
 14 47  1  0  0  0  0
 22 48  1  0  0  0  0
 22 49  1  0  0  0  0
 23 50  1  0  0  0  0
 23 51  1  0  0  0  0
 24 52  1  0  0  0  0
 24 53  1  0  0  0  0
 25 54  1  0  0  0  0
 25 55  1  0  0  0  0
 26 56  1  0  0  0  0
 26 57  1  0  0  0  0
 27 58  1  0  0  0  0
 31 59  1  0  0  0  0
M  END
> <clash_score>
0

> <docking_score>
-7.087335586547852

> <overlap_score>
0.9654824733734131

$$$$
BENZO_216_1
  -OEChem-08222022453D

 56 60  0     1  0  0  0  0  0999 V2000
    3.8860    2.1050   19.5250 C   0  0  0  0  0  0  0  0  0  0  0  0
    4.2460    1.7520   20.8250 C   0  0  0  0  0  0  0  0  0  0  0  0
    9.5890   -2.4950   23.2210 C   0  0  0  0  0  0  0  0  0  0  0  0
    8.2550   -1.0010   24.5520 C   0  0  0  0  0  0  0  0  0  0  0  0
    4.6610    1.7170   18.4380 C   0  0  0  0  0  0  0  0  0  0  0  0
    5.3890    1.0010   21.0690 C   0  0  0  0  0  0  0  0  0  0  0  0
    9.1890   -3.5540   24.0140 C   0  0  0  0  0  0  0  0  0  0  0  0
    7.8700   -2.0610   25.3550 C   0  0  0  0  0  0  0  0  0  0  0  0
   12.3117   -1.3518   23.5619 C   0  0  0  0  0  0  0  0  0  0  0  0
   13.1250   -1.9079   24.5245 C   0  0  0  0  0  0  0  0  0  0  0  0
   12.0199    0.1405   25.3197 C   0  0  0  0  0  0  0  0  0  0  0  0
    7.5840   -0.2700   18.5160 C   0  0  0  0  0  0  0  0  0  0  0  0
    9.1280   -1.2090   23.4870 C   0  0  0  0  0  0  0  0  0  0  0  0
   11.6715   -0.1651   24.0223 C   0  0  0  0  0  0  0  0  0  0  0  0
    5.7970    0.9500   18.6730 C   0  0  0  0  0  0  0  0  0  0  0  0
    6.1460    0.6070   19.9750 C   0  0  0  0  0  0  0  0  0  0  0  0
    8.3450   -3.3440   25.0980 C   0  0  0  0  0  0  0  0  0  0  0  0
    6.7262   -4.4697   26.6151 C   0  0  0  0  0  0  0  0  0  0  0  0
    9.0430    0.2380   21.4940 C   0  0  0  0  0  0  0  0  0  0  0  0
    6.5282   -5.7113   27.4665 C   0  0  0  0  0  0  0  0  0  0  0  0
    7.7583   -5.9846   28.3140 C   0  0  0  0  0  0  0  0  0  0  0  0
    9.0310   -6.0659   27.4769 C   0  0  0  0  0  0  0  0  0  0  0  0
    8.8255   -5.6238   26.0289 C   0  0  0  0  0  0  0  0  0  0  0  0
   10.7220    0.6590   23.1850 C   0  0  0  0  0  0  0  0  0  0  0  0
    9.5820   -0.1080   22.7000 C   0  0  1  0  0  0  0  0  0  0  0  0
    6.7100    0.3850   17.8100 N   0  0  0  0  0  0  0  0  0  0  0  0
    7.2710   -0.1460   19.8310 N   0  0  0  0  0  0  0  0  0  0  0  0
    7.9658   -4.4384   25.9449 N   0  0  0  0  0  0  0  0  0  0  0  0
    8.0950   -0.7700   20.8440 N   0  0  0  0  0  0  0  0  0  0  0  0
    5.8136   -3.6504   26.5144 O   0  0  0  0  0  0  0  0  0  0  0  0
    9.2950    1.3000   20.9480 O   0  0  0  0  0  0  0  0  0  0  0  0
   13.1147   -1.0006   25.9768 S   0  0  0  0  0  0  0  0  0  0  0  0
    2.9844    2.6927   19.3613 H   0  0  0  0  0  0  0  0  0  0  0  0
    3.6214    2.0680   21.6561 H   0  0  0  0  0  0  0  0  0  0  0  0
   10.2695   -2.6718   22.3873 H   0  0  0  0  0  0  0  0  0  0  0  0
    7.8712   -0.0014   24.7587 H   0  0  0  0  0  0  0  0  0  0  0  0
    4.3780    2.0103   17.4276 H   0  0  0  0  0  0  0  0  0  0  0  0
    5.6758    0.7336   22.0897 H   0  0  0  0  0  0  0  0  0  0  0  0
    9.5431   -4.5618   23.7801 H   0  0  0  0  0  0  0  0  0  0  0  0
    7.1923   -1.8823   26.1912 H   0  0  0  0  0  0  0  0  0  0  0  0
   12.1845   -1.7797   22.5754 H   0  0  0  0  0  0  0  0  0  0  0  0
   13.7243   -2.8039   24.4449 H   0  0  0  0  0  0  0  0  0  0  0  0
   11.6854    0.9774   25.9170 H   0  0  0  0  0  0  0  0  0  0  0  0
    8.4213   -0.8245   18.1548 H   0  0  0  0  0  0  0  0  0  0  0  0
    5.6771   -5.5542   28.1111 H   0  0  0  0  0  0  0  0  0  0  0  0
    6.3384   -6.5392   26.7998 H   0  0  0  0  0  0  0  0  0  0  0  0
    7.8707   -5.1934   29.0843 H   0  0  0  0  0  0  0  0  0  0  0  0
    7.6207   -6.9300   28.8764 H   0  0  0  0  0  0  0  0  0  0  0  0
    9.8202   -5.4387   27.9422 H   0  0  0  0  0  0  0  0  0  0  0  0
    9.4333   -7.1021   27.4993 H   0  0  0  0  0  0  0  0  0  0  0  0
    9.7828   -5.3621   25.5884 H   0  0  0  0  0  0  0  0  0  0  0  0
    8.3738   -6.4323   25.4644 H   0  0  0  0  0  0  0  0  0  0  0  0
   10.3850    1.5094   23.7939 H   0  0  0  0  0  0  0  0  0  0  0  0
   11.2669    1.1095   22.3448 H   0  0  0  0  0  0  0  0  0  0  0  0
   10.5267   -0.9929   22.0072 H   0  0  0  0  0  0  0  0  0  0  0  0
    8.0815   -1.6117   21.0754 H   0  0  0  0  0  0  0  0  0  0  0  0
  1  2  1  0  0  0  0
  1  5  2  0  0  0  0
  2  6  2  0  0  0  0
  3  7  2  0  0  0  0
  3 13  1  0  0  0  0
  4  8  1  0  0  0  0
  4 13  2  0  0  0  0
  5 15  1  0  0  0  0
  6 16  1  0  0  0  0
  7 17  1  0  0  0  0
  8 17  2  0  0  0  0
  9 10  2  0  0  0  0
  9 14  1  0  0  0  0
 10 32  1  0  0  0  0
 11 14  2  0  0  0  0
 11 32  1  0  0  0  0
 12 26  2  0  0  0  0
 12 27  1  0  0  0  0
 13 25  1  0  0  0  0
 14 24  1  0  0  0  0
 15 16  2  0  0  0  0
 15 26  1  0  0  0  0
 16 27  1  0  0  0  0
 17 28  1  0  0  0  0
 18 20  1  0  0  0  0
 18 28  1  0  0  0  0
 18 30  2  0  0  0  0
 19 25  1  1  0  0  0
 19 29  1  0  0  0  0
 19 31  2  0  0  0  0
 20 21  1  0  0  0  0
 21 22  1  0  0  0  0
 22 23  1  0  0  0  0
 23 28  1  0  0  0  0
 24 25  1  0  0  0  0
 27 29  1  0  0  0  0
  1 33  1  0  0  0  0
  2 34  1  0  0  0  0
  3 35  1  0  0  0  0
  4 36  1  0  0  0  0
  5 37  1  0  0  0  0
  6 38  1  0  0  0  0
  7 39  1  0  0  0  0
  8 40  1  0  0  0  0
  9 41  1  0  0  0  0
 10 42  1  0  0  0  0
 11 43  1  0  0  0  0
 12 44  1  0  0  0  0
 20 45  1  0  0  0  0
 20 46  1  0  0  0  0
 21 47  1  0  0  0  0
 21 48  1  0  0  0  0
 22 49  1  0  0  0  0
 22 50  1  0  0  0  0
 23 51  1  0  0  0  0
 23 52  1  0  0  0  0
 24 53  1  0  0  0  0
 24 54  1  0  0  0  0
 25 55  1  0  0  0  0
 29 56  1  0  0  0  0
M  END
> <clash_score>
0

> <docking_score>
-6.084081172943115

> <overlap_score>
0.9168960452079773

$$$$
BENZO_216_2
  -OEChem-08222022453D

 56 60  0     1  0  0  0  0  0999 V2000
    3.8860    2.1050   19.5250 C   0  0  0  0  0  0  0  0  0  0  0  0
    4.2460    1.7520   20.8250 C   0  0  0  0  0  0  0  0  0  0  0  0
    9.5890   -2.4950   23.2210 C   0  0  0  0  0  0  0  0  0  0  0  0
    8.2550   -1.0010   24.5520 C   0  0  0  0  0  0  0  0  0  0  0  0
    4.6610    1.7170   18.4380 C   0  0  0  0  0  0  0  0  0  0  0  0
    5.3890    1.0010   21.0690 C   0  0  0  0  0  0  0  0  0  0  0  0
    9.1890   -3.5540   24.0140 C   0  0  0  0  0  0  0  0  0  0  0  0
    7.8700   -2.0610   25.3550 C   0  0  0  0  0  0  0  0  0  0  0  0
   13.0870   -0.3087   23.6126 C   0  0  0  0  0  0  0  0  0  0  0  0
   14.1878   -0.7845   22.9348 C   0  0  0  0  0  0  0  0  0  0  0  0
   12.3925   -0.0855   21.4058 C   0  0  0  0  0  0  0  0  0  0  0  0
    7.5840   -0.2700   18.5160 C   0  0  0  0  0  0  0  0  0  0  0  0
    9.1280   -1.2090   23.4870 C   0  0  0  0  0  0  0  0  0  0  0  0
   12.0469    0.0961   22.7270 C   0  0  0  0  0  0  0  0  0  0  0  0
    5.7970    0.9500   18.6730 C   0  0  0  0  0  0  0  0  0  0  0  0
    6.1460    0.6070   19.9750 C   0  0  0  0  0  0  0  0  0  0  0  0
    8.3450   -3.3440   25.0980 C   0  0  0  0  0  0  0  0  0  0  0  0
    6.6194   -4.8191   26.1158 C   0  0  0  0  0  0  0  0  0  0  0  0
    9.0430    0.2380   21.4940 C   0  0  0  0  0  0  0  0  0  0  0  0
    6.4366   -5.9938   27.0605 C   0  0  0  0  0  0  0  0  0  0  0  0
    7.2458   -5.7947   28.3299 C   0  0  0  0  0  0  0  0  0  0  0  0
    8.7184   -5.5215   28.0404 C   0  0  0  0  0  0  0  0  0  0  0  0
    9.0024   -5.2744   26.5596 C   0  0  0  0  0  0  0  0  0  0  0  0
   10.7220    0.6590   23.1850 C   0  0  0  0  0  0  0  0  0  0  0  0
    9.5820   -0.1080   22.7000 C   0  0  2  0  0  0  0  0  0  0  0  0
    6.7100    0.3850   17.8100 N   0  0  0  0  0  0  0  0  0  0  0  0
    7.2710   -0.1460   19.8310 N   0  0  0  0  0  0  0  0  0  0  0  0
    7.9658   -4.4384   25.9449 N   0  0  0  0  0  0  0  0  0  0  0  0
    8.0950   -0.7700   20.8440 N   0  0  0  0  0  0  0  0  0  0  0  0
    5.6415   -4.3469   25.5373 O   0  0  0  0  0  0  0  0  0  0  0  0
    9.2950    1.3000   20.9480 O   0  0  0  0  0  0  0  0  0  0  0  0
   13.9651   -0.7418   21.2375 S   0  0  0  0  0  0  0  0  0  0  0  0
    2.9844    2.6927   19.3613 H   0  0  0  0  0  0  0  0  0  0  0  0
    3.6214    2.0680   21.6561 H   0  0  0  0  0  0  0  0  0  0  0  0
   10.2695   -2.6718   22.3873 H   0  0  0  0  0  0  0  0  0  0  0  0
    7.8712   -0.0014   24.7587 H   0  0  0  0  0  0  0  0  0  0  0  0
    4.3780    2.0103   17.4276 H   0  0  0  0  0  0  0  0  0  0  0  0
    5.6758    0.7336   22.0897 H   0  0  0  0  0  0  0  0  0  0  0  0
    9.5431   -4.5618   23.7801 H   0  0  0  0  0  0  0  0  0  0  0  0
    7.1923   -1.8823   26.1912 H   0  0  0  0  0  0  0  0  0  0  0  0
   13.0348   -0.2550   24.6927 H   0  0  0  0  0  0  0  0  0  0  0  0
   15.1124   -1.1544   23.3550 H   0  0  0  0  0  0  0  0  0  0  0  0
   11.8004    0.1356   20.5285 H   0  0  0  0  0  0  0  0  0  0  0  0
    8.4213   -0.8245   18.1548 H   0  0  0  0  0  0  0  0  0  0  0  0
    5.3901   -6.0734   27.3117 H   0  0  0  0  0  0  0  0  0  0  0  0
    6.7606   -6.8843   26.5429 H   0  0  0  0  0  0  0  0  0  0  0  0
    6.8221   -4.9563   28.9212 H   0  0  0  0  0  0  0  0  0  0  0  0
    7.1526   -6.6910   28.9757 H   0  0  0  0  0  0  0  0  0  0  0  0
    9.0539   -4.6418   28.6288 H   0  0  0  0  0  0  0  0  0  0  0  0
    9.3393   -6.3684   28.4053 H   0  0  0  0  0  0  0  0  0  0  0  0
    9.9475   -4.7506   26.4523 H   0  0  0  0  0  0  0  0  0  0  0  0
    9.0509   -6.2236   26.0372 H   0  0  0  0  0  0  0  0  0  0  0  0
   10.7288    0.6889   24.2835 H   0  0  0  0  0  0  0  0  0  0  0  0
   10.6393    1.7086   22.8728 H   0  0  0  0  0  0  0  0  0  0  0  0
    8.6955    0.7993   23.3793 H   0  0  0  0  0  0  0  0  0  0  0  0
    8.0815   -1.6117   21.0754 H   0  0  0  0  0  0  0  0  0  0  0  0
  1  2  1  0  0  0  0
  1  5  2  0  0  0  0
  2  6  2  0  0  0  0
  3  7  2  0  0  0  0
  3 13  1  0  0  0  0
  4  8  1  0  0  0  0
  4 13  2  0  0  0  0
  5 15  1  0  0  0  0
  6 16  1  0  0  0  0
  7 17  1  0  0  0  0
  8 17  2  0  0  0  0
  9 10  2  0  0  0  0
  9 14  1  0  0  0  0
 10 32  1  0  0  0  0
 11 14  2  0  0  0  0
 11 32  1  0  0  0  0
 12 26  2  0  0  0  0
 12 27  1  0  0  0  0
 13 25  1  0  0  0  0
 14 24  1  0  0  0  0
 15 16  2  0  0  0  0
 15 26  1  0  0  0  0
 16 27  1  0  0  0  0
 17 28  1  0  0  0  0
 18 20  1  0  0  0  0
 18 28  1  0  0  0  0
 18 30  2  0  0  0  0
 19 25  1  6  0  0  0
 19 29  1  0  0  0  0
 19 31  2  0  0  0  0
 20 21  1  0  0  0  0
 21 22  1  0  0  0  0
 22 23  1  0  0  0  0
 23 28  1  0  0  0  0
 24 25  1  0  0  0  0
 27 29  1  0  0  0  0
  1 33  1  0  0  0  0
  2 34  1  0  0  0  0
  3 35  1  0  0  0  0
  4 36  1  0  0  0  0
  5 37  1  0  0  0  0
  6 38  1  0  0  0  0
  7 39  1  0  0  0  0
  8 40  1  0  0  0  0
  9 41  1  0  0  0  0
 10 42  1  0  0  0  0
 11 43  1  0  0  0  0
 12 44  1  0  0  0  0
 20 45  1  0  0  0  0
 20 46  1  0  0  0  0
 21 47  1  0  0  0  0
 21 48  1  0  0  0  0
 22 49  1  0  0  0  0
 22 50  1  0  0  0  0
 23 51  1  0  0  0  0
 23 52  1  0  0  0  0
 24 53  1  0  0  0  0
 24 54  1  0  0  0  0
 25 55  1  0  0  0  0
 29 56  1  0  0  0  0
M  END
> <clash_score>
0

> <docking_score>
-8.006210327148438

> <overlap_score>
0.9542752504348755

$$$$
BENZO_218_1
  -OEChem-08222022453D

 59 63  0     1  0  0  0  0  0999 V2000
    3.8860    2.1050   19.5250 C   0  0  0  0  0  0  0  0  0  0  0  0
    4.2460    1.7520   20.8250 C   0  0  0  0  0  0  0  0  0  0  0  0
   13.0596   -1.4816   25.2806 C   0  0  0  0  0  0  0  0  0  0  0  0
   11.9851   -0.6757   24.9043 C   0  0  0  0  0  0  0  0  0  0  0  0
    9.5890   -2.4950   23.2210 C   0  0  0  0  0  0  0  0  0  0  0  0
    8.2550   -1.0010   24.5520 C   0  0  0  0  0  0  0  0  0  0  0  0
    4.6610    1.7170   18.4380 C   0  0  0  0  0  0  0  0  0  0  0  0
    5.3890    1.0010   21.0690 C   0  0  0  0  0  0  0  0  0  0  0  0
    9.1890   -3.5540   24.0140 C   0  0  0  0  0  0  0  0  0  0  0  0
    7.8700   -2.0610   25.3550 C   0  0  0  0  0  0  0  0  0  0  0  0
   14.0356   -1.8244   24.3449 C   0  0  0  0  0  0  0  0  0  0  0  0
   12.8626   -0.5556   22.6564 C   0  0  0  0  0  0  0  0  0  0  0  0
    7.5840   -0.2700   18.5160 C   0  0  0  0  0  0  0  0  0  0  0  0
    9.1280   -1.2090   23.4870 C   0  0  0  0  0  0  0  0  0  0  0  0
   11.8866   -0.2127   23.5922 C   0  0  0  0  0  0  0  0  0  0  0  0
    5.7970    0.9500   18.6730 C   0  0  0  0  0  0  0  0  0  0  0  0
    6.1460    0.6070   19.9750 C   0  0  0  0  0  0  0  0  0  0  0  0
    8.3450   -3.3440   25.0980 C   0  0  0  0  0  0  0  0  0  0  0  0
   13.9371   -1.3615   23.0328 C   0  0  0  0  0  0  0  0  0  0  0  0
    6.6194   -4.8191   26.1158 C   0  0  0  0  0  0  0  0  0  0  0  0
    9.0430    0.2380   21.4940 C   0  0  0  0  0  0  0  0  0  0  0  0
    6.4366   -5.9938   27.0605 C   0  0  0  0  0  0  0  0  0  0  0  0
    7.2458   -5.7947   28.3299 C   0  0  0  0  0  0  0  0  0  0  0  0
    8.7184   -5.5215   28.0404 C   0  0  0  0  0  0  0  0  0  0  0  0
    9.0024   -5.2744   26.5596 C   0  0  0  0  0  0  0  0  0  0  0  0
   10.7220    0.6590   23.1850 C   0  0  0  0  0  0  0  0  0  0  0  0
    9.5820   -0.1080   22.7000 C   0  0  1  0  0  0  0  0  0  0  0  0
    6.7100    0.3850   17.8100 N   0  0  0  0  0  0  0  0  0  0  0  0
    7.2710   -0.1460   19.8310 N   0  0  0  0  0  0  0  0  0  0  0  0
    7.9658   -4.4384   25.9449 N   0  0  0  0  0  0  0  0  0  0  0  0
    8.0950   -0.7700   20.8440 N   0  0  0  0  0  0  0  0  0  0  0  0
    5.6415   -4.3469   25.5373 O   0  0  0  0  0  0  0  0  0  0  0  0
    9.2950    1.3000   20.9480 O   0  0  0  0  0  0  0  0  0  0  0  0
   15.1409   -1.7858   21.8785 Cl  0  0  0  0  0  0  0  0  0  0  0  0
    2.9844    2.6927   19.3613 H   0  0  0  0  0  0  0  0  0  0  0  0
    3.6214    2.0680   21.6561 H   0  0  0  0  0  0  0  0  0  0  0  0
   13.1359   -1.8420   26.3024 H   0  0  0  0  0  0  0  0  0  0  0  0
   11.2292   -0.4136   25.6400 H   0  0  0  0  0  0  0  0  0  0  0  0
   10.2695   -2.6718   22.3873 H   0  0  0  0  0  0  0  0  0  0  0  0
    7.8712   -0.0014   24.7587 H   0  0  0  0  0  0  0  0  0  0  0  0
    4.3780    2.0103   17.4276 H   0  0  0  0  0  0  0  0  0  0  0  0
    5.6758    0.7336   22.0897 H   0  0  0  0  0  0  0  0  0  0  0  0
    9.5431   -4.5618   23.7801 H   0  0  0  0  0  0  0  0  0  0  0  0
    7.1923   -1.8823   26.1912 H   0  0  0  0  0  0  0  0  0  0  0  0
   14.8674   -2.4535   24.6523 H   0  0  0  0  0  0  0  0  0  0  0  0
   12.7815   -0.1917   21.6348 H   0  0  0  0  0  0  0  0  0  0  0  0
    8.4213   -0.8245   18.1548 H   0  0  0  0  0  0  0  0  0  0  0  0
    5.3901   -6.0734   27.3117 H   0  0  0  0  0  0  0  0  0  0  0  0
    6.7606   -6.8843   26.5429 H   0  0  0  0  0  0  0  0  0  0  0  0
    6.8221   -4.9563   28.9212 H   0  0  0  0  0  0  0  0  0  0  0  0
    7.1526   -6.6910   28.9757 H   0  0  0  0  0  0  0  0  0  0  0  0
    9.0539   -4.6418   28.6288 H   0  0  0  0  0  0  0  0  0  0  0  0
    9.3393   -6.3684   28.4053 H   0  0  0  0  0  0  0  0  0  0  0  0
    9.9475   -4.7506   26.4523 H   0  0  0  0  0  0  0  0  0  0  0  0
    9.0509   -6.2236   26.0372 H   0  0  0  0  0  0  0  0  0  0  0  0
   10.4364    1.2691   24.0532 H   0  0  0  0  0  0  0  0  0  0  0  0
   11.0496    1.3814   22.4256 H   0  0  0  0  0  0  0  0  0  0  0  0
   10.5267   -0.9929   22.0072 H   0  0  0  0  0  0  0  0  0  0  0  0
    8.0815   -1.6117   21.0754 H   0  0  0  0  0  0  0  0  0  0  0  0
  1  2  1  0  0  0  0
  1  7  2  0  0  0  0
  2  8  2  0  0  0  0
  3  4  2  0  0  0  0
  3 11  1  0  0  0  0
  4 15  1  0  0  0  0
  5  9  2  0  0  0  0
  5 14  1  0  0  0  0
  6 10  1  0  0  0  0
  6 14  2  0  0  0  0
  7 16  1  0  0  0  0
  8 17  1  0  0  0  0
  9 18  1  0  0  0  0
 10 18  2  0  0  0  0
 11 19  2  0  0  0  0
 12 15  2  0  0  0  0
 12 19  1  0  0  0  0
 13 28  2  0  0  0  0
 13 29  1  0  0  0  0
 14 27  1  0  0  0  0
 15 26  1  0  0  0  0
 16 17  2  0  0  0  0
 16 28  1  0  0  0  0
 17 29  1  0  0  0  0
 18 30  1  0  0  0  0
 19 34  1  0  0  0  0
 20 22  1  0  0  0  0
 20 30  1  0  0  0  0
 20 32  2  0  0  0  0
 21 27  1  1  0  0  0
 21 31  1  0  0  0  0
 21 33  2  0  0  0  0
 22 23  1  0  0  0  0
 23 24  1  0  0  0  0
 24 25  1  0  0  0  0
 25 30  1  0  0  0  0
 26 27  1  0  0  0  0
 29 31  1  0  0  0  0
  1 35  1  0  0  0  0
  2 36  1  0  0  0  0
  3 37  1  0  0  0  0
  4 38  1  0  0  0  0
  5 39  1  0  0  0  0
  6 40  1  0  0  0  0
  7 41  1  0  0  0  0
  8 42  1  0  0  0  0
  9 43  1  0  0  0  0
 10 44  1  0  0  0  0
 11 45  1  0  0  0  0
 12 46  1  0  0  0  0
 13 47  1  0  0  0  0
 22 48  1  0  0  0  0
 22 49  1  0  0  0  0
 23 50  1  0  0  0  0
 23 51  1  0  0  0  0
 24 52  1  0  0  0  0
 24 53  1  0  0  0  0
 25 54  1  0  0  0  0
 25 55  1  0  0  0  0
 26 56  1  0  0  0  0
 26 57  1  0  0  0  0
 27 58  1  0  0  0  0
 31 59  1  0  0  0  0
M  END
> <clash_score>
0

> <docking_score>
-7.892002582550049

> <overlap_score>
0.9831506609916687

$$$$
BENZO_219_2
  -OEChem-08222022453D

 59 63  0     1  0  0  0  0  0999 V2000
    3.8860    2.1050   19.5250 C   0  0  0  0  0  0  0  0  0  0  0  0
    4.2460    1.7520   20.8250 C   0  0  0  0  0  0  0  0  0  0  0  0
    9.5890   -2.4950   23.2210 C   0  0  0  0  0  0  0  0  0  0  0  0
    8.2550   -1.0010   24.5520 C   0  0  0  0  0  0  0  0  0  0  0  0
    4.6610    1.7170   18.4380 C   0  0  0  0  0  0  0  0  0  0  0  0
    5.3890    1.0010   21.0690 C   0  0  0  0  0  0  0  0  0  0  0  0
    9.1890   -3.5540   24.0140 C   0  0  0  0  0  0  0  0  0  0  0  0
    7.8700   -2.0610   25.3550 C   0  0  0  0  0  0  0  0  0  0  0  0
   12.1481   -0.7686   24.8588 C   0  0  0  0  0  0  0  0  0  0  0  0
   12.9278   -0.6432   22.8067 C   0  0  0  0  0  0  0  0  0  0  0  0
    7.5840   -0.2700   18.5160 C   0  0  0  0  0  0  0  0  0  0  0  0
    9.1280   -1.2090   23.4870 C   0  0  0  0  0  0  0  0  0  0  0  0
   11.8866   -0.2127   23.5922 C   0  0  0  0  0  0  0  0  0  0  0  0
    5.7970    0.9500   18.6730 C   0  0  0  0  0  0  0  0  0  0  0  0
    6.1460    0.6070   19.9750 C   0  0  0  0  0  0  0  0  0  0  0  0
    8.3450   -3.3440   25.0980 C   0  0  0  0  0  0  0  0  0  0  0  0
    6.6194   -4.8191   26.1158 C   0  0  0  0  0  0  0  0  0  0  0  0
    9.0430    0.2380   21.4940 C   0  0  0  0  0  0  0  0  0  0  0  0
    6.4366   -5.9938   27.0605 C   0  0  0  0  0  0  0  0  0  0  0  0
    7.2458   -5.7947   28.3299 C   0  0  0  0  0  0  0  0  0  0  0  0
    8.7184   -5.5215   28.0404 C   0  0  0  0  0  0  0  0  0  0  0  0
    9.0024   -5.2744   26.5596 C   0  0  0  0  0  0  0  0  0  0  0  0
   14.9394   -2.0726   23.2414 C   0  0  0  0  0  0  0  0  0  0  0  0
   10.7220    0.6590   23.1850 C   0  0  0  0  0  0  0  0  0  0  0  0
    9.5820   -0.1080   22.7000 C   0  0  2  0  0  0  0  0  0  0  0  0
   13.2676   -1.4968   24.8812 N   0  0  0  0  0  0  0  0  0  0  0  0
    6.7100    0.3850   17.8100 N   0  0  0  0  0  0  0  0  0  0  0  0
   13.7187   -1.4015   23.6189 N   0  0  0  0  0  0  0  0  0  0  0  0
    7.2710   -0.1460   19.8310 N   0  0  0  0  0  0  0  0  0  0  0  0
    7.9658   -4.4384   25.9449 N   0  0  0  0  0  0  0  0  0  0  0  0
    8.0950   -0.7700   20.8440 N   0  0  0  0  0  0  0  0  0  0  0  0
    5.6415   -4.3469   25.5373 O   0  0  0  0  0  0  0  0  0  0  0  0
    9.2950    1.3000   20.9480 O   0  0  0  0  0  0  0  0  0  0  0  0
    2.9844    2.6927   19.3613 H   0  0  0  0  0  0  0  0  0  0  0  0
    3.6214    2.0680   21.6561 H   0  0  0  0  0  0  0  0  0  0  0  0
   10.2695   -2.6718   22.3873 H   0  0  0  0  0  0  0  0  0  0  0  0
    7.8712   -0.0014   24.7587 H   0  0  0  0  0  0  0  0  0  0  0  0
    4.3780    2.0103   17.4276 H   0  0  0  0  0  0  0  0  0  0  0  0
    5.6758    0.7336   22.0897 H   0  0  0  0  0  0  0  0  0  0  0  0
    9.5431   -4.5618   23.7801 H   0  0  0  0  0  0  0  0  0  0  0  0
    7.1923   -1.8823   26.1912 H   0  0  0  0  0  0  0  0  0  0  0  0
   11.5706   -0.6757   25.7677 H   0  0  0  0  0  0  0  0  0  0  0  0
   13.1667   -0.4796   21.7645 H   0  0  0  0  0  0  0  0  0  0  0  0
    8.4213   -0.8245   18.1548 H   0  0  0  0  0  0  0  0  0  0  0  0
    5.3901   -6.0734   27.3117 H   0  0  0  0  0  0  0  0  0  0  0  0
    6.7606   -6.8843   26.5429 H   0  0  0  0  0  0  0  0  0  0  0  0
    6.8221   -4.9563   28.9212 H   0  0  0  0  0  0  0  0  0  0  0  0
    7.1526   -6.6910   28.9757 H   0  0  0  0  0  0  0  0  0  0  0  0
    9.0539   -4.6418   28.6288 H   0  0  0  0  0  0  0  0  0  0  0  0
    9.3393   -6.3684   28.4053 H   0  0  0  0  0  0  0  0  0  0  0  0
    9.9475   -4.7506   26.4523 H   0  0  0  0  0  0  0  0  0  0  0  0
    9.0509   -6.2236   26.0372 H   0  0  0  0  0  0  0  0  0  0  0  0
   15.7702   -1.3829   23.4123 H   0  0  0  0  0  0  0  0  0  0  0  0
   15.0610   -2.9751   23.8468 H   0  0  0  0  0  0  0  0  0  0  0  0
   14.8856   -2.3539   22.1860 H   0  0  0  0  0  0  0  0  0  0  0  0
   10.4364    1.2691   24.0532 H   0  0  0  0  0  0  0  0  0  0  0  0
   11.0496    1.3814   22.4256 H   0  0  0  0  0  0  0  0  0  0  0  0
   10.5267   -0.9929   22.0072 H   0  0  0  0  0  0  0  0  0  0  0  0
    8.0815   -1.6117   21.0754 H   0  0  0  0  0  0  0  0  0  0  0  0
  1  2  1  0  0  0  0
  1  5  2  0  0  0  0
  2  6  2  0  0  0  0
  3  7  2  0  0  0  0
  3 12  1  0  0  0  0
  4  8  1  0  0  0  0
  4 12  2  0  0  0  0
  5 14  1  0  0  0  0
  6 15  1  0  0  0  0
  7 16  1  0  0  0  0
  8 16  2  0  0  0  0
  9 13  1  0  0  0  0
  9 26  2  0  0  0  0
 10 13  2  0  0  0  0
 10 28  1  0  0  0  0
 11 27  2  0  0  0  0
 11 29  1  0  0  0  0
 12 25  1  0  0  0  0
 13 24  1  0  0  0  0
 14 15  2  0  0  0  0
 14 27  1  0  0  0  0
 15 29  1  0  0  0  0
 16 30  1  0  0  0  0
 17 19  1  0  0  0  0
 17 30  1  0  0  0  0
 17 32  2  0  0  0  0
 18 25  1  0  0  0  0
 18 31  1  0  0  0  0
 18 33  2  0  0  0  0
 19 20  1  0  0  0  0
 20 21  1  0  0  0  0
 21 22  1  0  0  0  0
 22 30  1  0  0  0  0
 23 28  1  0  0  0  0
 24 25  1  6  0  0  0
 26 28  1  0  0  0  0
 29 31  1  0  0  0  0
  1 34  1  0  0  0  0
  2 35  1  0  0  0  0
  3 36  1  0  0  0  0
  4 37  1  0  0  0  0
  5 38  1  0  0  0  0
  6 39  1  0  0  0  0
  7 40  1  0  0  0  0
  8 41  1  0  0  0  0
  9 42  1  0  0  0  0
 10 43  1  0  0  0  0
 11 44  1  0  0  0  0
 19 45  1  0  0  0  0
 19 46  1  0  0  0  0
 20 47  1  0  0  0  0
 20 48  1  0  0  0  0
 21 49  1  0  0  0  0
 21 50  1  0  0  0  0
 22 51  1  0  0  0  0
 22 52  1  0  0  0  0
 23 53  1  0  0  0  0
 23 54  1  0  0  0  0
 23 55  1  0  0  0  0
 24 56  1  0  0  0  0
 24 57  1  0  0  0  0
 25 58  1  0  0  0  0
 31 59  1  0  0  0  0
M  END
> <clash_score>
0

> <docking_score>
-7.826587200164795

> <overlap_score>
0.9790841937065125

$$$$
BENZO_218_2
  -OEChem-08222022453D

 59 63  0     1  0  0  0  0  0999 V2000
    3.8860    2.1050   19.5250 C   0  0  0  0  0  0  0  0  0  0  0  0
    4.2460    1.7520   20.8250 C   0  0  0  0  0  0  0  0  0  0  0  0
   13.3571   -1.0972   21.0849 C   0  0  0  0  0  0  0  0  0  0  0  0
   12.1338   -0.5782   21.5090 C   0  0  0  0  0  0  0  0  0  0  0  0
    9.5890   -2.4950   23.2210 C   0  0  0  0  0  0  0  0  0  0  0  0
    8.2550   -1.0010   24.5520 C   0  0  0  0  0  0  0  0  0  0  0  0
    4.6610    1.7170   18.4380 C   0  0  0  0  0  0  0  0  0  0  0  0
    5.3890    1.0010   21.0690 C   0  0  0  0  0  0  0  0  0  0  0  0
    9.1890   -3.5540   24.0140 C   0  0  0  0  0  0  0  0  0  0  0  0
    7.8700   -2.0610   25.3550 C   0  0  0  0  0  0  0  0  0  0  0  0
   14.4934   -0.9419   21.8788 C   0  0  0  0  0  0  0  0  0  0  0  0
   13.1833    0.2514   23.5209 C   0  0  0  0  0  0  0  0  0  0  0  0
    7.5840   -0.2700   18.5160 C   0  0  0  0  0  0  0  0  0  0  0  0
    9.1280   -1.2090   23.4870 C   0  0  0  0  0  0  0  0  0  0  0  0
   12.0469    0.0961   22.7270 C   0  0  0  0  0  0  0  0  0  0  0  0
    5.7970    0.9500   18.6730 C   0  0  0  0  0  0  0  0  0  0  0  0
    6.1460    0.6070   19.9750 C   0  0  0  0  0  0  0  0  0  0  0  0
    8.3450   -3.3440   25.0980 C   0  0  0  0  0  0  0  0  0  0  0  0
   14.4065   -0.2676   23.0968 C   0  0  0  0  0  0  0  0  0  0  0  0
    8.2612   -4.4533   27.3232 C   0  0  0  0  0  0  0  0  0  0  0  0
    9.0430    0.2380   21.4940 C   0  0  0  0  0  0  0  0  0  0  0  0
    7.7639   -5.6979   28.0369 C   0  0  0  0  0  0  0  0  0  0  0  0
    6.3258   -5.9996   27.6538 C   0  0  0  0  0  0  0  0  0  0  0  0
    6.1385   -6.0983   26.1431 C   0  0  0  0  0  0  0  0  0  0  0  0
    7.3646   -5.6395   25.3553 C   0  0  0  0  0  0  0  0  0  0  0  0
   10.7220    0.6590   23.1850 C   0  0  0  0  0  0  0  0  0  0  0  0
    9.5820   -0.1080   22.7000 C   0  0  2  0  0  0  0  0  0  0  0  0
    6.7100    0.3850   17.8100 N   0  0  0  0  0  0  0  0  0  0  0  0
    7.2710   -0.1460   19.8310 N   0  0  0  0  0  0  0  0  0  0  0  0
    7.9658   -4.4385   25.9450 N   0  0  0  0  0  0  0  0  0  0  0  0
    8.0950   -0.7700   20.8440 N   0  0  0  0  0  0  0  0  0  0  0  0
    8.9160   -3.6176   27.9452 O   0  0  0  0  0  0  0  0  0  0  0  0
    9.2950    1.3000   20.9480 O   0  0  0  0  0  0  0  0  0  0  0  0
   15.8091   -0.0754   24.0753 Cl  0  0  0  0  0  0  0  0  0  0  0  0
    2.9844    2.6927   19.3613 H   0  0  0  0  0  0  0  0  0  0  0  0
    3.6214    2.0680   21.6561 H   0  0  0  0  0  0  0  0  0  0  0  0
   13.4243   -1.6221   20.1364 H   0  0  0  0  0  0  0  0  0  0  0  0
   11.2535   -0.7037   20.8839 H   0  0  0  0  0  0  0  0  0  0  0  0
   10.2695   -2.6718   22.3873 H   0  0  0  0  0  0  0  0  0  0  0  0
    7.8712   -0.0014   24.7587 H   0  0  0  0  0  0  0  0  0  0  0  0
    4.3780    2.0103   17.4276 H   0  0  0  0  0  0  0  0  0  0  0  0
    5.6758    0.7336   22.0897 H   0  0  0  0  0  0  0  0  0  0  0  0
    9.5431   -4.5618   23.7801 H   0  0  0  0  0  0  0  0  0  0  0  0
    7.1923   -1.8823   26.1912 H   0  0  0  0  0  0  0  0  0  0  0  0
   15.4403   -1.3514   21.5355 H   0  0  0  0  0  0  0  0  0  0  0  0
   13.1102    0.7775   24.4699 H   0  0  0  0  0  0  0  0  0  0  0  0
    8.4213   -0.8245   18.1548 H   0  0  0  0  0  0  0  0  0  0  0  0
    8.3914   -6.5295   27.7556 H   0  0  0  0  0  0  0  0  0  0  0  0
    7.8414   -5.5198   29.0990 H   0  0  0  0  0  0  0  0  0  0  0  0
    5.9977   -6.9465   28.1311 H   0  0  0  0  0  0  0  0  0  0  0  0
    5.6587   -5.2139   28.0619 H   0  0  0  0  0  0  0  0  0  0  0  0
    5.8986   -7.1470   25.8680 H   0  0  0  0  0  0  0  0  0  0  0  0
    5.2500   -5.5067   25.8324 H   0  0  0  0  0  0  0  0  0  0  0  0
    8.1195   -6.4201   25.3688 H   0  0  0  0  0  0  0  0  0  0  0  0
    7.0780   -5.4282   24.3307 H   0  0  0  0  0  0  0  0  0  0  0  0
   10.7288    0.6889   24.2835 H   0  0  0  0  0  0  0  0  0  0  0  0
   10.6393    1.7086   22.8728 H   0  0  0  0  0  0  0  0  0  0  0  0
    8.6955    0.7993   23.3793 H   0  0  0  0  0  0  0  0  0  0  0  0
    8.0815   -1.6117   21.0754 H   0  0  0  0  0  0  0  0  0  0  0  0
  1  2  1  0  0  0  0
  1  7  2  0  0  0  0
  2  8  2  0  0  0  0
  3  4  2  0  0  0  0
  3 11  1  0  0  0  0
  4 15  1  0  0  0  0
  5  9  2  0  0  0  0
  5 14  1  0  0  0  0
  6 10  1  0  0  0  0
  6 14  2  0  0  0  0
  7 16  1  0  0  0  0
  8 17  1  0  0  0  0
  9 18  1  0  0  0  0
 10 18  2  0  0  0  0
 11 19  2  0  0  0  0
 12 15  2  0  0  0  0
 12 19  1  0  0  0  0
 13 28  2  0  0  0  0
 13 29  1  0  0  0  0
 14 27  1  0  0  0  0
 15 26  1  0  0  0  0
 16 17  2  0  0  0  0
 16 28  1  0  0  0  0
 17 29  1  0  0  0  0
 18 30  1  0  0  0  0
 19 34  1  0  0  0  0
 20 22  1  0  0  0  0
 20 30  1  0  0  0  0
 20 32  2  0  0  0  0
 21 27  1  6  0  0  0
 21 31  1  0  0  0  0
 21 33  2  0  0  0  0
 22 23  1  0  0  0  0
 23 24  1  0  0  0  0
 24 25  1  0  0  0  0
 25 30  1  0  0  0  0
 26 27  1  0  0  0  0
 29 31  1  0  0  0  0
  1 35  1  0  0  0  0
  2 36  1  0  0  0  0
  3 37  1  0  0  0  0
  4 38  1  0  0  0  0
  5 39  1  0  0  0  0
  6 40  1  0  0  0  0
  7 41  1  0  0  0  0
  8 42  1  0  0  0  0
  9 43  1  0  0  0  0
 10 44  1  0  0  0  0
 11 45  1  0  0  0  0
 12 46  1  0  0  0  0
 13 47  1  0  0  0  0
 22 48  1  0  0  0  0
 22 49  1  0  0  0  0
 23 50  1  0  0  0  0
 23 51  1  0  0  0  0
 24 52  1  0  0  0  0
 24 53  1  0  0  0  0
 25 54  1  0  0  0  0
 25 55  1  0  0  0  0
 26 56  1  0  0  0  0
 26 57  1  0  0  0  0
 27 58  1  0  0  0  0
 31 59  1  0  0  0  0
M  END
> <clash_score>
1.459674894613339

> <docking_score>
-7.421696662902832

> <overlap_score>
0.9769778251647949

$$$$
BENZO_219_1
  -OEChem-08222022453D

 59 63  0     1  0  0  0  0  0999 V2000
    3.8860    2.1050   19.5250 C   0  0  0  0  0  0  0  0  0  0  0  0
    4.2460    1.7520   20.8250 C   0  0  0  0  0  0  0  0  0  0  0  0
    9.5890   -2.4950   23.2210 C   0  0  0  0  0  0  0  0  0  0  0  0
    8.2550   -1.0010   24.5520 C   0  0  0  0  0  0  0  0  0  0  0  0
    4.6610    1.7170   18.4380 C   0  0  0  0  0  0  0  0  0  0  0  0
    5.3890    1.0010   21.0690 C   0  0  0  0  0  0  0  0  0  0  0  0
    9.1890   -3.5540   24.0140 C   0  0  0  0  0  0  0  0  0  0  0  0
    7.8700   -2.0610   25.3550 C   0  0  0  0  0  0  0  0  0  0  0  0
   13.3369    0.5828   23.0113 C   0  0  0  0  0  0  0  0  0  0  0  0
   12.2625   -1.0090   21.9404 C   0  0  0  0  0  0  0  0  0  0  0  0
    7.5840   -0.2700   18.5160 C   0  0  0  0  0  0  0  0  0  0  0  0
    9.1280   -1.2090   23.4870 C   0  0  0  0  0  0  0  0  0  0  0  0
   12.0469    0.0961   22.7270 C   0  0  0  0  0  0  0  0  0  0  0  0
    5.7970    0.9500   18.6730 C   0  0  0  0  0  0  0  0  0  0  0  0
    6.1460    0.6070   19.9750 C   0  0  0  0  0  0  0  0  0  0  0  0
    8.3450   -3.3440   25.0980 C   0  0  0  0  0  0  0  0  0  0  0  0
    8.2612   -4.4533   27.3232 C   0  0  0  0  0  0  0  0  0  0  0  0
    9.0430    0.2380   21.4940 C   0  0  0  0  0  0  0  0  0  0  0  0
    7.7639   -5.6979   28.0369 C   0  0  0  0  0  0  0  0  0  0  0  0
    6.3258   -5.9996   27.6538 C   0  0  0  0  0  0  0  0  0  0  0  0
    6.1385   -6.0983   26.1431 C   0  0  0  0  0  0  0  0  0  0  0  0
    7.3646   -5.6395   25.3553 C   0  0  0  0  0  0  0  0  0  0  0  0
   14.3275   -2.1252   21.0638 C   0  0  0  0  0  0  0  0  0  0  0  0
   10.7220    0.6590   23.1850 C   0  0  0  0  0  0  0  0  0  0  0  0
    9.5820   -0.1080   22.7000 C   0  0  1  0  0  0  0  0  0  0  0  0
   14.3007   -0.1529   22.4511 N   0  0  0  0  0  0  0  0  0  0  0  0
    6.7100    0.3850   17.8100 N   0  0  0  0  0  0  0  0  0  0  0  0
   13.6158   -1.1132   21.8069 N   0  0  0  0  0  0  0  0  0  0  0  0
    7.2710   -0.1460   19.8310 N   0  0  0  0  0  0  0  0  0  0  0  0
    7.9658   -4.4385   25.9450 N   0  0  0  0  0  0  0  0  0  0  0  0
    8.0950   -0.7700   20.8440 N   0  0  0  0  0  0  0  0  0  0  0  0
    8.9160   -3.6176   27.9452 O   0  0  0  0  0  0  0  0  0  0  0  0
    9.2950    1.3000   20.9480 O   0  0  0  0  0  0  0  0  0  0  0  0
    2.9844    2.6927   19.3613 H   0  0  0  0  0  0  0  0  0  0  0  0
    3.6214    2.0680   21.6561 H   0  0  0  0  0  0  0  0  0  0  0  0
   10.2695   -2.6718   22.3873 H   0  0  0  0  0  0  0  0  0  0  0  0
    7.8712   -0.0014   24.7587 H   0  0  0  0  0  0  0  0  0  0  0  0
    4.3780    2.0103   17.4276 H   0  0  0  0  0  0  0  0  0  0  0  0
    5.6758    0.7336   22.0897 H   0  0  0  0  0  0  0  0  0  0  0  0
    9.5431   -4.5618   23.7801 H   0  0  0  0  0  0  0  0  0  0  0  0
    7.1923   -1.8823   26.1912 H   0  0  0  0  0  0  0  0  0  0  0  0
   13.6173    1.4422   23.6039 H   0  0  0  0  0  0  0  0  0  0  0  0
   11.5851   -1.7134   21.4768 H   0  0  0  0  0  0  0  0  0  0  0  0
    8.4213   -0.8245   18.1548 H   0  0  0  0  0  0  0  0  0  0  0  0
    8.3914   -6.5295   27.7556 H   0  0  0  0  0  0  0  0  0  0  0  0
    7.8414   -5.5198   29.0990 H   0  0  0  0  0  0  0  0  0  0  0  0
    5.9977   -6.9465   28.1311 H   0  0  0  0  0  0  0  0  0  0  0  0
    5.6587   -5.2139   28.0619 H   0  0  0  0  0  0  0  0  0  0  0  0
    5.8986   -7.1470   25.8680 H   0  0  0  0  0  0  0  0  0  0  0  0
    5.2500   -5.5067   25.8324 H   0  0  0  0  0  0  0  0  0  0  0  0
    8.1195   -6.4201   25.3688 H   0  0  0  0  0  0  0  0  0  0  0  0
    7.0780   -5.4282   24.3307 H   0  0  0  0  0  0  0  0  0  0  0  0
   14.4560   -1.7641   20.0400 H   0  0  0  0  0  0  0  0  0  0  0  0
   15.3000   -2.3038   21.5310 H   0  0  0  0  0  0  0  0  0  0  0  0
   13.7498   -3.0537   21.0732 H   0  0  0  0  0  0  0  0  0  0  0  0
   10.7288    0.6889   24.2835 H   0  0  0  0  0  0  0  0  0  0  0  0
   10.6393    1.7086   22.8728 H   0  0  0  0  0  0  0  0  0  0  0  0
    8.6955    0.7993   23.3793 H   0  0  0  0  0  0  0  0  0  0  0  0
    8.0815   -1.6117   21.0754 H   0  0  0  0  0  0  0  0  0  0  0  0
  1  2  1  0  0  0  0
  1  5  2  0  0  0  0
  2  6  2  0  0  0  0
  3  7  2  0  0  0  0
  3 12  1  0  0  0  0
  4  8  1  0  0  0  0
  4 12  2  0  0  0  0
  5 14  1  0  0  0  0
  6 15  1  0  0  0  0
  7 16  1  0  0  0  0
  8 16  2  0  0  0  0
  9 13  1  0  0  0  0
  9 26  2  0  0  0  0
 10 13  2  0  0  0  0
 10 28  1  0  0  0  0
 11 27  2  0  0  0  0
 11 29  1  0  0  0  0
 12 25  1  0  0  0  0
 13 24  1  0  0  0  0
 14 15  2  0  0  0  0
 14 27  1  0  0  0  0
 15 29  1  0  0  0  0
 16 30  1  0  0  0  0
 17 19  1  0  0  0  0
 17 30  1  0  0  0  0
 17 32  2  0  0  0  0
 18 25  1  0  0  0  0
 18 31  1  0  0  0  0
 18 33  2  0  0  0  0
 19 20  1  0  0  0  0
 20 21  1  0  0  0  0
 21 22  1  0  0  0  0
 22 30  1  0  0  0  0
 23 28  1  0  0  0  0
 24 25  1  1  0  0  0
 26 28  1  0  0  0  0
 29 31  1  0  0  0  0
  1 34  1  0  0  0  0
  2 35  1  0  0  0  0
  3 36  1  0  0  0  0
  4 37  1  0  0  0  0
  5 38  1  0  0  0  0
  6 39  1  0  0  0  0
  7 40  1  0  0  0  0
  8 41  1  0  0  0  0
  9 42  1  0  0  0  0
 10 43  1  0  0  0  0
 11 44  1  0  0  0  0
 19 45  1  0  0  0  0
 19 46  1  0  0  0  0
 20 47  1  0  0  0  0
 20 48  1  0  0  0  0
 21 49  1  0  0  0  0
 21 50  1  0  0  0  0
 22 51  1  0  0  0  0
 22 52  1  0  0  0  0
 23 53  1  0  0  0  0
 23 54  1  0  0  0  0
 23 55  1  0  0  0  0
 24 56  1  0  0  0  0
 24 57  1  0  0  0  0
 25 58  1  0  0  0  0
 31 59  1  0  0  0  0
M  END
> <clash_score>
0

> <docking_score>
-9.715446472167969

> <overlap_score>
0.9735928177833557

$$$$
BENZO_221_1
  -OEChem-08222022453D

 58 62  0     1  0  0  0  0  0999 V2000
   14.0375   -1.8230   24.3427 C   0  0  0  0  0  0  0  0  0  0  0  0
   13.0623   -1.4808   25.2794 C   0  0  0  0  0  0  0  0  0  0  0  0
   13.9373   -1.3600   23.0307 C   0  0  0  0  0  0  0  0  0  0  0  0
    3.8860    2.1050   19.5250 C   0  0  0  0  0  0  0  0  0  0  0  0
    4.2460    1.7520   20.8250 C   0  0  0  0  0  0  0  0  0  0  0  0
   11.9868   -0.6757   24.9042 C   0  0  0  0  0  0  0  0  0  0  0  0
   12.8619   -0.5549   22.6555 C   0  0  0  0  0  0  0  0  0  0  0  0
    9.5890   -2.4950   23.2210 C   0  0  0  0  0  0  0  0  0  0  0  0
    8.2550   -1.0010   24.5520 C   0  0  0  0  0  0  0  0  0  0  0  0
    4.6610    1.7170   18.4380 C   0  0  0  0  0  0  0  0  0  0  0  0
    5.3890    1.0010   21.0690 C   0  0  0  0  0  0  0  0  0  0  0  0
    9.1890   -3.5540   24.0140 C   0  0  0  0  0  0  0  0  0  0  0  0
    7.8700   -2.0610   25.3550 C   0  0  0  0  0  0  0  0  0  0  0  0
    7.5840   -0.2700   18.5160 C   0  0  0  0  0  0  0  0  0  0  0  0
   11.8866   -0.2127   23.5922 C   0  0  0  0  0  0  0  0  0  0  0  0
    9.1280   -1.2090   23.4870 C   0  0  0  0  0  0  0  0  0  0  0  0
    5.7970    0.9500   18.6730 C   0  0  0  0  0  0  0  0  0  0  0  0
    6.1460    0.6070   19.9750 C   0  0  0  0  0  0  0  0  0  0  0  0
    8.3450   -3.3440   25.0980 C   0  0  0  0  0  0  0  0  0  0  0  0
    9.0430    0.2380   21.4940 C   0  0  0  0  0  0  0  0  0  0  0  0
    8.9526   -5.2008   26.6600 C   0  0  0  0  0  0  0  0  0  0  0  0
    6.6115   -4.5057   26.4392 C   0  0  0  0  0  0  0  0  0  0  0  0
    8.9053   -4.7827   28.1257 C   0  0  0  0  0  0  0  0  0  0  0  0
    6.6391   -4.1219   27.9194 C   0  0  0  0  0  0  0  0  0  0  0  0
   10.7220    0.6590   23.1850 C   0  0  0  0  0  0  0  0  0  0  0  0
    9.5820   -0.1080   22.7000 C   0  0  1  0  0  0  0  0  0  0  0  0
    6.7100    0.3850   17.8100 N   0  0  0  0  0  0  0  0  0  0  0  0
    7.2710   -0.1460   19.8310 N   0  0  0  0  0  0  0  0  0  0  0  0
    7.9774   -4.4013   25.9152 N   0  0  0  0  0  0  0  0  0  0  0  0
    8.0950   -0.7700   20.8440 N   0  0  0  0  0  0  0  0  0  0  0  0
    9.2950    1.3000   20.9480 O   0  0  0  0  0  0  0  0  0  0  0  0
    7.5748   -4.9364   28.6347 O   0  0  0  0  0  0  0  0  0  0  0  0
   14.8755   -2.4488   24.6355 H   0  0  0  0  0  0  0  0  0  0  0  0
   13.1407   -1.8403   26.3013 H   0  0  0  0  0  0  0  0  0  0  0  0
   14.6970   -1.6253   22.3015 H   0  0  0  0  0  0  0  0  0  0  0  0
    2.9844    2.6927   19.3613 H   0  0  0  0  0  0  0  0  0  0  0  0
    3.6214    2.0680   21.6561 H   0  0  0  0  0  0  0  0  0  0  0  0
   11.2315   -0.4143   25.6407 H   0  0  0  0  0  0  0  0  0  0  0  0
   12.7920   -0.1989   21.6310 H   0  0  0  0  0  0  0  0  0  0  0  0
   10.2684   -2.6719   22.3867 H   0  0  0  0  0  0  0  0  0  0  0  0
    7.8717   -0.0016   24.7596 H   0  0  0  0  0  0  0  0  0  0  0  0
    4.3780    2.0103   17.4276 H   0  0  0  0  0  0  0  0  0  0  0  0
    5.6758    0.7335   22.0897 H   0  0  0  0  0  0  0  0  0  0  0  0
    9.5443   -4.5616   23.7817 H   0  0  0  0  0  0  0  0  0  0  0  0
    7.1921   -1.8821   26.1908 H   0  0  0  0  0  0  0  0  0  0  0  0
    8.4213   -0.8245   18.1548 H   0  0  0  0  0  0  0  0  0  0  0  0
    9.9614   -5.0503   26.2701 H   0  0  0  0  0  0  0  0  0  0  0  0
    8.6932   -6.2593   26.5731 H   0  0  0  0  0  0  0  0  0  0  0  0
    6.2625   -5.5339   26.3355 H   0  0  0  0  0  0  0  0  0  0  0  0
    5.9348   -3.8414   25.9036 H   0  0  0  0  0  0  0  0  0  0  0  0
    9.5615   -5.4255   28.7162 H   0  0  0  0  0  0  0  0  0  0  0  0
    9.2365   -3.7494   28.2620 H   0  0  0  0  0  0  0  0  0  0  0  0
    6.8895   -3.0633   28.0551 H   0  0  0  0  0  0  0  0  0  0  0  0
    5.6514   -4.2861   28.3610 H   0  0  0  0  0  0  0  0  0  0  0  0
   10.4364    1.2691   24.0532 H   0  0  0  0  0  0  0  0  0  0  0  0
   11.0496    1.3814   22.4256 H   0  0  0  0  0  0  0  0  0  0  0  0
   10.5267   -0.9929   22.0072 H   0  0  0  0  0  0  0  0  0  0  0  0
    8.0815   -1.6117   21.0754 H   0  0  0  0  0  0  0  0  0  0  0  0
  1  2  1  0  0  0  0
  1  3  2  0  0  0  0
  2  6  2  0  0  0  0
  3  7  1  0  0  0  0
  4  5  1  0  0  0  0
  4 10  2  0  0  0  0
  5 11  2  0  0  0  0
  6 15  1  0  0  0  0
  7 15  2  0  0  0  0
  8 12  2  0  0  0  0
  8 16  1  0  0  0  0
  9 13  1  0  0  0  0
  9 16  2  0  0  0  0
 10 17  1  0  0  0  0
 11 18  1  0  0  0  0
 12 19  1  0  0  0  0
 13 19  2  0  0  0  0
 14 27  2  0  0  0  0
 14 28  1  0  0  0  0
 15 25  1  0  0  0  0
 16 26  1  0  0  0  0
 17 18  2  0  0  0  0
 17 27  1  0  0  0  0
 18 28  1  0  0  0  0
 19 29  1  0  0  0  0
 20 26  1  1  0  0  0
 20 30  1  0  0  0  0
 20 31  2  0  0  0  0
 21 23  1  0  0  0  0
 21 29  1  0  0  0  0
 22 24  1  0  0  0  0
 22 29  1  0  0  0  0
 23 32  1  0  0  0  0
 24 32  1  0  0  0  0
 25 26  1  0  0  0  0
 28 30  1  0  0  0  0
  1 33  1  0  0  0  0
  2 34  1  0  0  0  0
  3 35  1  0  0  0  0
  4 36  1  0  0  0  0
  5 37  1  0  0  0  0
  6 38  1  0  0  0  0
  7 39  1  0  0  0  0
  8 40  1  0  0  0  0
  9 41  1  0  0  0  0
 10 42  1  0  0  0  0
 11 43  1  0  0  0  0
 12 44  1  0  0  0  0
 13 45  1  0  0  0  0
 14 46  1  0  0  0  0
 21 47  1  0  0  0  0
 21 48  1  0  0  0  0
 22 49  1  0  0  0  0
 22 50  1  0  0  0  0
 23 51  1  0  0  0  0
 23 52  1  0  0  0  0
 24 53  1  0  0  0  0
 24 54  1  0  0  0  0
 25 55  1  0  0  0  0
 25 56  1  0  0  0  0
 26 57  1  0  0  0  0
 30 58  1  0  0  0  0
M  END
> <clash_score>
0

> <docking_score>
-8.918964385986328

> <overlap_score>
0.9762184619903564

$$$$
BENZO_221_2
  -OEChem-08222022453D

 58 62  0     1  0  0  0  0  0999 V2000
   14.4929   -0.9443   21.8802 C   0  0  0  0  0  0  0  0  0  0  0  0
   14.4062   -0.2690   23.0976 C   0  0  0  0  0  0  0  0  0  0  0  0
   13.3566   -1.0993   21.0861 C   0  0  0  0  0  0  0  0  0  0  0  0
    3.8860    2.1050   19.5250 C   0  0  0  0  0  0  0  0  0  0  0  0
    4.2460    1.7520   20.8250 C   0  0  0  0  0  0  0  0  0  0  0  0
   13.1832    0.2512   23.5210 C   0  0  0  0  0  0  0  0  0  0  0  0
   12.1336   -0.5792   21.5095 C   0  0  0  0  0  0  0  0  0  0  0  0
    9.5890   -2.4950   23.2210 C   0  0  0  0  0  0  0  0  0  0  0  0
    8.2550   -1.0010   24.5520 C   0  0  0  0  0  0  0  0  0  0  0  0
    4.6610    1.7170   18.4380 C   0  0  0  0  0  0  0  0  0  0  0  0
    5.3890    1.0010   21.0690 C   0  0  0  0  0  0  0  0  0  0  0  0
    9.1890   -3.5540   24.0140 C   0  0  0  0  0  0  0  0  0  0  0  0
    7.8700   -2.0610   25.3550 C   0  0  0  0  0  0  0  0  0  0  0  0
    7.5840   -0.2700   18.5160 C   0  0  0  0  0  0  0  0  0  0  0  0
   12.0469    0.0961   22.7270 C   0  0  0  0  0  0  0  0  0  0  0  0
    9.1280   -1.2090   23.4870 C   0  0  0  0  0  0  0  0  0  0  0  0
    5.7970    0.9500   18.6730 C   0  0  0  0  0  0  0  0  0  0  0  0
    6.1460    0.6070   19.9750 C   0  0  0  0  0  0  0  0  0  0  0  0
    8.3450   -3.3440   25.0980 C   0  0  0  0  0  0  0  0  0  0  0  0
    9.0430    0.2380   21.4940 C   0  0  0  0  0  0  0  0  0  0  0  0
    8.9526   -5.2008   26.6600 C   0  0  0  0  0  0  0  0  0  0  0  0
    6.6115   -4.5057   26.4392 C   0  0  0  0  0  0  0  0  0  0  0  0
    8.9053   -4.7827   28.1257 C   0  0  0  0  0  0  0  0  0  0  0  0
    6.6391   -4.1219   27.9194 C   0  0  0  0  0  0  0  0  0  0  0  0
   10.7220    0.6590   23.1850 C   0  0  0  0  0  0  0  0  0  0  0  0
    9.5820   -0.1080   22.7000 C   0  0  2  0  0  0  0  0  0  0  0  0
    6.7100    0.3850   17.8100 N   0  0  0  0  0  0  0  0  0  0  0  0
    7.2710   -0.1460   19.8310 N   0  0  0  0  0  0  0  0  0  0  0  0
    7.9774   -4.4013   25.9152 N   0  0  0  0  0  0  0  0  0  0  0  0
    8.0950   -0.7700   20.8440 N   0  0  0  0  0  0  0  0  0  0  0  0
    9.2950    1.3000   20.9480 O   0  0  0  0  0  0  0  0  0  0  0  0
    7.5748   -4.9364   28.6347 O   0  0  0  0  0  0  0  0  0  0  0  0
   15.4456   -1.3481   21.5500 H   0  0  0  0  0  0  0  0  0  0  0  0
   15.2911   -0.1472   23.7155 H   0  0  0  0  0  0  0  0  0  0  0  0
   13.4240   -1.6241   20.1377 H   0  0  0  0  0  0  0  0  0  0  0  0
    2.9844    2.6927   19.3613 H   0  0  0  0  0  0  0  0  0  0  0  0
    3.6214    2.0680   21.6561 H   0  0  0  0  0  0  0  0  0  0  0  0
   13.1250    0.7757   24.4711 H   0  0  0  0  0  0  0  0  0  0  0  0
   11.2536   -0.7049   20.8844 H   0  0  0  0  0  0  0  0  0  0  0  0
   10.2684   -2.6719   22.3867 H   0  0  0  0  0  0  0  0  0  0  0  0
    7.8717   -0.0016   24.7596 H   0  0  0  0  0  0  0  0  0  0  0  0
    4.3780    2.0103   17.4276 H   0  0  0  0  0  0  0  0  0  0  0  0
    5.6758    0.7335   22.0897 H   0  0  0  0  0  0  0  0  0  0  0  0
    9.5443   -4.5616   23.7817 H   0  0  0  0  0  0  0  0  0  0  0  0
    7.1921   -1.8821   26.1908 H   0  0  0  0  0  0  0  0  0  0  0  0
    8.4213   -0.8245   18.1548 H   0  0  0  0  0  0  0  0  0  0  0  0
    9.9614   -5.0503   26.2701 H   0  0  0  0  0  0  0  0  0  0  0  0
    8.6932   -6.2593   26.5731 H   0  0  0  0  0  0  0  0  0  0  0  0
    6.2625   -5.5339   26.3355 H   0  0  0  0  0  0  0  0  0  0  0  0
    5.9348   -3.8414   25.9036 H   0  0  0  0  0  0  0  0  0  0  0  0
    9.5615   -5.4255   28.7162 H   0  0  0  0  0  0  0  0  0  0  0  0
    9.2365   -3.7494   28.2620 H   0  0  0  0  0  0  0  0  0  0  0  0
    6.8895   -3.0633   28.0551 H   0  0  0  0  0  0  0  0  0  0  0  0
    5.6514   -4.2861   28.3610 H   0  0  0  0  0  0  0  0  0  0  0  0
   10.7288    0.6889   24.2835 H   0  0  0  0  0  0  0  0  0  0  0  0
   10.6393    1.7086   22.8728 H   0  0  0  0  0  0  0  0  0  0  0  0
    8.6955    0.7993   23.3793 H   0  0  0  0  0  0  0  0  0  0  0  0
    8.0815   -1.6117   21.0754 H   0  0  0  0  0  0  0  0  0  0  0  0
  1  2  1  0  0  0  0
  1  3  2  0  0  0  0
  2  6  2  0  0  0  0
  3  7  1  0  0  0  0
  4  5  1  0  0  0  0
  4 10  2  0  0  0  0
  5 11  2  0  0  0  0
  6 15  1  0  0  0  0
  7 15  2  0  0  0  0
  8 12  2  0  0  0  0
  8 16  1  0  0  0  0
  9 13  1  0  0  0  0
  9 16  2  0  0  0  0
 10 17  1  0  0  0  0
 11 18  1  0  0  0  0
 12 19  1  0  0  0  0
 13 19  2  0  0  0  0
 14 27  2  0  0  0  0
 14 28  1  0  0  0  0
 15 25  1  0  0  0  0
 16 26  1  0  0  0  0
 17 18  2  0  0  0  0
 17 27  1  0  0  0  0
 18 28  1  0  0  0  0
 19 29  1  0  0  0  0
 20 26  1  6  0  0  0
 20 30  1  0  0  0  0
 20 31  2  0  0  0  0
 21 23  1  0  0  0  0
 21 29  1  0  0  0  0
 22 24  1  0  0  0  0
 22 29  1  0  0  0  0
 23 32  1  0  0  0  0
 24 32  1  0  0  0  0
 25 26  1  0  0  0  0
 28 30  1  0  0  0  0
  1 33  1  0  0  0  0
  2 34  1  0  0  0  0
  3 35  1  0  0  0  0
  4 36  1  0  0  0  0
  5 37  1  0  0  0  0
  6 38  1  0  0  0  0
  7 39  1  0  0  0  0
  8 40  1  0  0  0  0
  9 41  1  0  0  0  0
 10 42  1  0  0  0  0
 11 43  1  0  0  0  0
 12 44  1  0  0  0  0
 13 45  1  0  0  0  0
 14 46  1  0  0  0  0
 21 47  1  0  0  0  0
 21 48  1  0  0  0  0
 22 49  1  0  0  0  0
 22 50  1  0  0  0  0
 23 51  1  0  0  0  0
 23 52  1  0  0  0  0
 24 53  1  0  0  0  0
 24 54  1  0  0  0  0
 25 55  1  0  0  0  0
 25 56  1  0  0  0  0
 26 57  1  0  0  0  0
 30 58  1  0  0  0  0
M  END
> <clash_score>
0

> <docking_score>
-8.47628402709961

> <overlap_score>
0.956713855266571

$$$$
BENZO_220_1
  -OEChem-08222022453D

 55 59  0     1  0  0  0  0  0999 V2000
    3.8860    2.1050   19.5250 C   0  0  0  0  0  0  0  0  0  0  0  0
    4.2460    1.7520   20.8250 C   0  0  0  0  0  0  0  0  0  0  0  0
    9.5890   -2.4950   23.2210 C   0  0  0  0  0  0  0  0  0  0  0  0
    8.2550   -1.0010   24.5520 C   0  0  0  0  0  0  0  0  0  0  0  0
    4.6610    1.7170   18.4380 C   0  0  0  0  0  0  0  0  0  0  0  0
    5.3890    1.0010   21.0690 C   0  0  0  0  0  0  0  0  0  0  0  0
    9.1890   -3.5540   24.0140 C   0  0  0  0  0  0  0  0  0  0  0  0
    7.8700   -2.0610   25.3550 C   0  0  0  0  0  0  0  0  0  0  0  0
   12.5272   -1.1406   22.7211 C   0  0  0  0  0  0  0  0  0  0  0  0
   13.5595   -1.8071   23.3438 C   0  0  0  0  0  0  0  0  0  0  0  0
   12.4536   -0.2056   24.8477 C   0  0  0  0  0  0  0  0  0  0  0  0
    7.5840   -0.2700   18.5160 C   0  0  0  0  0  0  0  0  0  0  0  0
    9.1280   -1.2090   23.4870 C   0  0  0  0  0  0  0  0  0  0  0  0
   11.8866   -0.2127   23.5922 C   0  0  0  0  0  0  0  0  0  0  0  0
    5.7970    0.9500   18.6730 C   0  0  0  0  0  0  0  0  0  0  0  0
    6.1460    0.6070   19.9750 C   0  0  0  0  0  0  0  0  0  0  0  0
    8.3450   -3.3440   25.0980 C   0  0  0  0  0  0  0  0  0  0  0  0
    9.0430    0.2380   21.4940 C   0  0  0  0  0  0  0  0  0  0  0  0
    7.2565   -5.5374   25.3135 C   0  0  0  0  0  0  0  0  0  0  0  0
    7.6794   -4.1702   27.3379 C   0  0  0  0  0  0  0  0  0  0  0  0
    7.3938   -6.7712   26.1984 C   0  0  0  0  0  0  0  0  0  0  0  0
    7.7937   -5.4770   28.1149 C   0  0  0  0  0  0  0  0  0  0  0  0
   10.7220    0.6590   23.1850 C   0  0  0  0  0  0  0  0  0  0  0  0
    9.5820   -0.1080   22.7000 C   0  0  1  0  0  0  0  0  0  0  0  0
    6.7100    0.3850   17.8100 N   0  0  0  0  0  0  0  0  0  0  0  0
    7.2710   -0.1460   19.8310 N   0  0  0  0  0  0  0  0  0  0  0  0
    7.9748   -4.4087   25.9209 N   0  0  0  0  0  0  0  0  0  0  0  0
    8.0950   -0.7700   20.8440 N   0  0  0  0  0  0  0  0  0  0  0  0
    9.2950    1.3000   20.9480 O   0  0  0  0  0  0  0  0  0  0  0  0
    6.9659   -6.4811   27.5290 O   0  0  0  0  0  0  0  0  0  0  0  0
   13.7529   -1.3140   24.9722 S   0  0  0  0  0  0  0  0  0  0  0  0
    2.9844    2.6927   19.3613 H   0  0  0  0  0  0  0  0  0  0  0  0
    3.6214    2.0680   21.6561 H   0  0  0  0  0  0  0  0  0  0  0  0
   10.2684   -2.6719   22.3867 H   0  0  0  0  0  0  0  0  0  0  0  0
    7.8717   -0.0016   24.7596 H   0  0  0  0  0  0  0  0  0  0  0  0
    4.3780    2.0103   17.4276 H   0  0  0  0  0  0  0  0  0  0  0  0
    5.6758    0.7335   22.0897 H   0  0  0  0  0  0  0  0  0  0  0  0
    9.5443   -4.5616   23.7817 H   0  0  0  0  0  0  0  0  0  0  0  0
    7.1922   -1.8821   26.1908 H   0  0  0  0  0  0  0  0  0  0  0  0
   12.2480   -1.3139   21.6894 H   0  0  0  0  0  0  0  0  0  0  0  0
   14.2088   -2.5605   22.9207 H   0  0  0  0  0  0  0  0  0  0  0  0
   12.1694    0.3949   25.7008 H   0  0  0  0  0  0  0  0  0  0  0  0
    8.4213   -0.8245   18.1548 H   0  0  0  0  0  0  0  0  0  0  0  0
    7.6524   -5.7575   24.3152 H   0  0  0  0  0  0  0  0  0  0  0  0
    6.1957   -5.2743   25.2131 H   0  0  0  0  0  0  0  0  0  0  0  0
    6.6589   -3.7764   27.4304 H   0  0  0  0  0  0  0  0  0  0  0  0
    8.3709   -3.4318   27.7607 H   0  0  0  0  0  0  0  0  0  0  0  0
    6.7593   -7.5756   25.8129 H   0  0  0  0  0  0  0  0  0  0  0  0
    8.4251   -7.1438   26.2126 H   0  0  0  0  0  0  0  0  0  0  0  0
    8.8313   -5.8295   28.1592 H   0  0  0  0  0  0  0  0  0  0  0  0
    7.4542   -5.3252   29.1446 H   0  0  0  0  0  0  0  0  0  0  0  0
   10.4364    1.2691   24.0532 H   0  0  0  0  0  0  0  0  0  0  0  0
   11.0496    1.3814   22.4256 H   0  0  0  0  0  0  0  0  0  0  0  0
   10.5267   -0.9929   22.0072 H   0  0  0  0  0  0  0  0  0  0  0  0
    8.0815   -1.6117   21.0754 H   0  0  0  0  0  0  0  0  0  0  0  0
  1  2  1  0  0  0  0
  1  5  2  0  0  0  0
  2  6  2  0  0  0  0
  3  7  2  0  0  0  0
  3 13  1  0  0  0  0
  4  8  1  0  0  0  0
  4 13  2  0  0  0  0
  5 15  1  0  0  0  0
  6 16  1  0  0  0  0
  7 17  1  0  0  0  0
  8 17  2  0  0  0  0
  9 10  2  0  0  0  0
  9 14  1  0  0  0  0
 10 31  1  0  0  0  0
 11 14  2  0  0  0  0
 11 31  1  0  0  0  0
 12 25  2  0  0  0  0
 12 26  1  0  0  0  0
 13 24  1  0  0  0  0
 14 23  1  0  0  0  0
 15 16  2  0  0  0  0
 15 25  1  0  0  0  0
 16 26  1  0  0  0  0
 17 27  1  0  0  0  0
 18 24  1  1  0  0  0
 18 28  1  0  0  0  0
 18 29  2  0  0  0  0
 19 21  1  0  0  0  0
 19 27  1  0  0  0  0
 20 22  1  0  0  0  0
 20 27  1  0  0  0  0
 21 30  1  0  0  0  0
 22 30  1  0  0  0  0
 23 24  1  0  0  0  0
 26 28  1  0  0  0  0
  1 32  1  0  0  0  0
  2 33  1  0  0  0  0
  3 34  1  0  0  0  0
  4 35  1  0  0  0  0
  5 36  1  0  0  0  0
  6 37  1  0  0  0  0
  7 38  1  0  0  0  0
  8 39  1  0  0  0  0
  9 40  1  0  0  0  0
 10 41  1  0  0  0  0
 11 42  1  0  0  0  0
 12 43  1  0  0  0  0
 19 44  1  0  0  0  0
 19 45  1  0  0  0  0
 20 46  1  0  0  0  0
 20 47  1  0  0  0  0
 21 48  1  0  0  0  0
 21 49  1  0  0  0  0
 22 50  1  0  0  0  0
 22 51  1  0  0  0  0
 23 52  1  0  0  0  0
 23 53  1  0  0  0  0
 24 54  1  0  0  0  0
 28 55  1  0  0  0  0
M  END
> <clash_score>
0

> <docking_score>
-8.573258399963379

> <overlap_score>
0.961473286151886

$$$$
BENZO_220_2
  -OEChem-08222022453D

 55 59  0     1  0  0  0  0  0999 V2000
    3.8860    2.1050   19.5250 C   0  0  0  0  0  0  0  0  0  0  0  0
    4.2460    1.7520   20.8250 C   0  0  0  0  0  0  0  0  0  0  0  0
    9.5890   -2.4950   23.2210 C   0  0  0  0  0  0  0  0  0  0  0  0
    8.2550   -1.0010   24.5520 C   0  0  0  0  0  0  0  0  0  0  0  0
    4.6610    1.7170   18.4380 C   0  0  0  0  0  0  0  0  0  0  0  0
    5.3890    1.0010   21.0690 C   0  0  0  0  0  0  0  0  0  0  0  0
    9.1890   -3.5540   24.0140 C   0  0  0  0  0  0  0  0  0  0  0  0
    7.8700   -2.0610   25.3550 C   0  0  0  0  0  0  0  0  0  0  0  0
   13.0870   -0.3087   23.6126 C   0  0  0  0  0  0  0  0  0  0  0  0
   14.1878   -0.7845   22.9348 C   0  0  0  0  0  0  0  0  0  0  0  0
   12.3925   -0.0855   21.4058 C   0  0  0  0  0  0  0  0  0  0  0  0
    7.5840   -0.2700   18.5160 C   0  0  0  0  0  0  0  0  0  0  0  0
    9.1280   -1.2090   23.4870 C   0  0  0  0  0  0  0  0  0  0  0  0
   12.0469    0.0961   22.7270 C   0  0  0  0  0  0  0  0  0  0  0  0
    5.7970    0.9500   18.6730 C   0  0  0  0  0  0  0  0  0  0  0  0
    6.1460    0.6070   19.9750 C   0  0  0  0  0  0  0  0  0  0  0  0
    8.3450   -3.3440   25.0980 C   0  0  0  0  0  0  0  0  0  0  0  0
    9.0430    0.2380   21.4940 C   0  0  0  0  0  0  0  0  0  0  0  0
    8.9526   -5.2008   26.6600 C   0  0  0  0  0  0  0  0  0  0  0  0
    6.6115   -4.5057   26.4392 C   0  0  0  0  0  0  0  0  0  0  0  0
    8.9053   -4.7827   28.1257 C   0  0  0  0  0  0  0  0  0  0  0  0
    6.6391   -4.1219   27.9194 C   0  0  0  0  0  0  0  0  0  0  0  0
   10.7220    0.6590   23.1850 C   0  0  0  0  0  0  0  0  0  0  0  0
    9.5820   -0.1080   22.7000 C   0  0  2  0  0  0  0  0  0  0  0  0
    6.7100    0.3850   17.8100 N   0  0  0  0  0  0  0  0  0  0  0  0
    7.2710   -0.1460   19.8310 N   0  0  0  0  0  0  0  0  0  0  0  0
    7.9774   -4.4013   25.9152 N   0  0  0  0  0  0  0  0  0  0  0  0
    8.0950   -0.7700   20.8440 N   0  0  0  0  0  0  0  0  0  0  0  0
    9.2950    1.3000   20.9480 O   0  0  0  0  0  0  0  0  0  0  0  0
    7.5748   -4.9364   28.6347 O   0  0  0  0  0  0  0  0  0  0  0  0
   13.9651   -0.7419   21.2375 S   0  0  0  0  0  0  0  0  0  0  0  0
    2.9844    2.6927   19.3613 H   0  0  0  0  0  0  0  0  0  0  0  0
    3.6214    2.0680   21.6561 H   0  0  0  0  0  0  0  0  0  0  0  0
   10.2684   -2.6719   22.3867 H   0  0  0  0  0  0  0  0  0  0  0  0
    7.8717   -0.0016   24.7596 H   0  0  0  0  0  0  0  0  0  0  0  0
    4.3780    2.0103   17.4276 H   0  0  0  0  0  0  0  0  0  0  0  0
    5.6758    0.7335   22.0897 H   0  0  0  0  0  0  0  0  0  0  0  0
    9.5443   -4.5616   23.7817 H   0  0  0  0  0  0  0  0  0  0  0  0
    7.1921   -1.8821   26.1908 H   0  0  0  0  0  0  0  0  0  0  0  0
   13.0348   -0.2550   24.6927 H   0  0  0  0  0  0  0  0  0  0  0  0
   15.1124   -1.1544   23.3550 H   0  0  0  0  0  0  0  0  0  0  0  0
   11.8003    0.1355   20.5285 H   0  0  0  0  0  0  0  0  0  0  0  0
    8.4213   -0.8245   18.1548 H   0  0  0  0  0  0  0  0  0  0  0  0
    9.9614   -5.0503   26.2701 H   0  0  0  0  0  0  0  0  0  0  0  0
    8.6932   -6.2593   26.5731 H   0  0  0  0  0  0  0  0  0  0  0  0
    6.2625   -5.5339   26.3355 H   0  0  0  0  0  0  0  0  0  0  0  0
    5.9348   -3.8414   25.9036 H   0  0  0  0  0  0  0  0  0  0  0  0
    9.5615   -5.4255   28.7162 H   0  0  0  0  0  0  0  0  0  0  0  0
    9.2365   -3.7494   28.2620 H   0  0  0  0  0  0  0  0  0  0  0  0
    6.8895   -3.0633   28.0551 H   0  0  0  0  0  0  0  0  0  0  0  0
    5.6514   -4.2861   28.3610 H   0  0  0  0  0  0  0  0  0  0  0  0
   10.7288    0.6889   24.2835 H   0  0  0  0  0  0  0  0  0  0  0  0
   10.6393    1.7086   22.8728 H   0  0  0  0  0  0  0  0  0  0  0  0
    8.6955    0.7993   23.3793 H   0  0  0  0  0  0  0  0  0  0  0  0
    8.0815   -1.6117   21.0754 H   0  0  0  0  0  0  0  0  0  0  0  0
  1  2  1  0  0  0  0
  1  5  2  0  0  0  0
  2  6  2  0  0  0  0
  3  7  2  0  0  0  0
  3 13  1  0  0  0  0
  4  8  1  0  0  0  0
  4 13  2  0  0  0  0
  5 15  1  0  0  0  0
  6 16  1  0  0  0  0
  7 17  1  0  0  0  0
  8 17  2  0  0  0  0
  9 10  2  0  0  0  0
  9 14  1  0  0  0  0
 10 31  1  0  0  0  0
 11 14  2  0  0  0  0
 11 31  1  0  0  0  0
 12 25  2  0  0  0  0
 12 26  1  0  0  0  0
 13 24  1  0  0  0  0
 14 23  1  0  0  0  0
 15 16  2  0  0  0  0
 15 25  1  0  0  0  0
 16 26  1  0  0  0  0
 17 27  1  0  0  0  0
 18 24  1  6  0  0  0
 18 28  1  0  0  0  0
 18 29  2  0  0  0  0
 19 21  1  0  0  0  0
 19 27  1  0  0  0  0
 20 22  1  0  0  0  0
 20 27  1  0  0  0  0
 21 30  1  0  0  0  0
 22 30  1  0  0  0  0
 23 24  1  0  0  0  0
 26 28  1  0  0  0  0
  1 32  1  0  0  0  0
  2 33  1  0  0  0  0
  3 34  1  0  0  0  0
  4 35  1  0  0  0  0
  5 36  1  0  0  0  0
  6 37  1  0  0  0  0
  7 38  1  0  0  0  0
  8 39  1  0  0  0  0
  9 40  1  0  0  0  0
 10 41  1  0  0  0  0
 11 42  1  0  0  0  0
 12 43  1  0  0  0  0
 19 44  1  0  0  0  0
 19 45  1  0  0  0  0
 20 46  1  0  0  0  0
 20 47  1  0  0  0  0
 21 48  1  0  0  0  0
 21 49  1  0  0  0  0
 22 50  1  0  0  0  0
 22 51  1  0  0  0  0
 23 52  1  0  0  0  0
 23 53  1  0  0  0  0
 24 54  1  0  0  0  0
 28 55  1  0  0  0  0
M  END
> <clash_score>
0

> <docking_score>
-8.150421142578125

> <overlap_score>
0.9530364871025085

$$$$
BENZO_225_1
  -OEChem-08222022453D

 53 56  0     1  0  0  0  0  0999 V2000
   14.4827   -0.9249   21.8253 C   0  0  0  0  0  0  0  0  0  0  0  0
    4.2460    1.7520   20.8250 C   0  0  0  0  0  0  0  0  0  0  0  0
   14.4071   -0.2631   23.0508 C   0  0  0  0  0  0  0  0  0  0  0  0
   13.3388   -1.0729   21.0408 C   0  0  0  0  0  0  0  0  0  0  0  0
    3.8860    2.1050   19.5250 C   0  0  0  0  0  0  0  0  0  0  0  0
    5.3890    1.0010   21.0690 C   0  0  0  0  0  0  0  0  0  0  0  0
   13.1876    0.2507   23.4919 C   0  0  0  0  0  0  0  0  0  0  0  0
   12.1193   -0.5591   21.4820 C   0  0  0  0  0  0  0  0  0  0  0  0
    9.5890   -2.4950   23.2210 C   0  0  0  0  0  0  0  0  0  0  0  0
    8.2550   -1.0010   24.5520 C   0  0  0  0  0  0  0  0  0  0  0  0
    4.6610    1.7170   18.4380 C   0  0  0  0  0  0  0  0  0  0  0  0
    9.1890   -3.5540   24.0140 C   0  0  0  0  0  0  0  0  0  0  0  0
    7.8700   -2.0610   25.3550 C   0  0  0  0  0  0  0  0  0  0  0  0
    6.1460    0.6070   19.9750 C   0  0  0  0  0  0  0  0  0  0  0  0
   12.0437    0.1027   22.7075 C   0  0  0  0  0  0  0  0  0  0  0  0
    9.1280   -1.2090   23.4870 C   0  0  0  0  0  0  0  0  0  0  0  0
    5.7970    0.9500   18.6730 C   0  0  0  0  0  0  0  0  0  0  0  0
    8.3450   -3.3440   25.0980 C   0  0  0  0  0  0  0  0  0  0  0  0
    7.2710   -0.1460   19.8310 C   0  0  0  0  0  0  0  0  0  0  0  0
    9.0430    0.2380   21.4940 C   0  0  0  0  0  0  0  0  0  0  0  0
    7.2615   -5.5561   25.3801 C   0  0  0  0  0  0  0  0  0  0  0  0
    8.3043   -4.4048   27.3385 C   0  0  0  0  0  0  0  0  0  0  0  0
   10.7220    0.6590   23.1850 C   0  0  0  0  0  0  0  0  0  0  0  0
    9.5820   -0.1080   22.7000 C   0  0  1  0  0  0  0  0  0  0  0  0
    7.5840   -0.2700   18.5160 N   0  0  0  0  0  0  0  0  0  0  0  0
    6.7100    0.3850   17.8100 N   0  0  0  0  0  0  0  0  0  0  0  0
    8.0950   -0.7700   20.8440 N   0  0  0  0  0  0  0  0  0  0  0  0
    7.9717   -4.4175   25.9277 N   0  0  0  0  0  0  0  0  0  0  0  0
    9.2950    1.3000   20.9480 O   0  0  0  0  0  0  0  0  0  0  0  0
   15.4325   -1.3238   21.4814 H   0  0  0  0  0  0  0  0  0  0  0  0
    3.6223    2.0725   21.6574 H   0  0  0  0  0  0  0  0  0  0  0  0
   15.2979   -0.1469   23.6612 H   0  0  0  0  0  0  0  0  0  0  0  0
   13.3975   -1.5871   20.0862 H   0  0  0  0  0  0  0  0  0  0  0  0
    2.9864    2.6933   19.3609 H   0  0  0  0  0  0  0  0  0  0  0  0
    5.6689    0.7392   22.0836 H   0  0  0  0  0  0  0  0  0  0  0  0
   13.1382    0.7647   24.4483 H   0  0  0  0  0  0  0  0  0  0  0  0
   11.2333   -0.6792   20.8642 H   0  0  0  0  0  0  0  0  0  0  0  0
   10.2684   -2.6719   22.3867 H   0  0  0  0  0  0  0  0  0  0  0  0
    7.8717   -0.0016   24.7596 H   0  0  0  0  0  0  0  0  0  0  0  0
    4.3807    2.0116   17.4186 H   0  0  0  0  0  0  0  0  0  0  0  0
    9.5443   -4.5616   23.7817 H   0  0  0  0  0  0  0  0  0  0  0  0
    7.1921   -1.8821   26.1908 H   0  0  0  0  0  0  0  0  0  0  0  0
    7.0605   -6.2832   26.1807 H   0  0  0  0  0  0  0  0  0  0  0  0
    6.3097   -5.2191   24.9437 H   0  0  0  0  0  0  0  0  0  0  0  0
    7.8751   -6.0303   24.6000 H   0  0  0  0  0  0  0  0  0  0  0  0
    7.9293   -5.3239   27.8125 H   0  0  0  0  0  0  0  0  0  0  0  0
    9.3965   -4.3505   27.4572 H   0  0  0  0  0  0  0  0  0  0  0  0
    7.8395   -3.5300   27.8168 H   0  0  0  0  0  0  0  0  0  0  0  0
   10.7266    0.7141   24.2815 H   0  0  0  0  0  0  0  0  0  0  0  0
   10.6502    1.7003   22.8412 H   0  0  0  0  0  0  0  0  0  0  0  0
    8.7027    0.7972   23.4026 H   0  0  0  0  0  0  0  0  0  0  0  0
    6.7486    0.4313   16.8331 H   0  0  0  0  0  0  0  0  0  0  0  0
    8.0757   -1.6162   21.0774 H   0  0  0  0  0  0  0  0  0  0  0  0
  1  3  1  0  0  0  0
  1  4  2  0  0  0  0
  2  5  1  0  0  0  0
  2  6  2  0  0  0  0
  3  7  2  0  0  0  0
  4  8  1  0  0  0  0
  5 11  2  0  0  0  0
  6 14  1  0  0  0  0
  7 15  1  0  0  0  0
  8 15  2  0  0  0  0
  9 12  2  0  0  0  0
  9 16  1  0  0  0  0
 10 13  1  0  0  0  0
 10 16  2  0  0  0  0
 11 17  1  0  0  0  0
 12 18  1  0  0  0  0
 13 18  2  0  0  0  0
 14 17  2  0  0  0  0
 14 19  1  0  0  0  0
 15 23  1  0  0  0  0
 16 24  1  0  0  0  0
 17 26  1  0  0  0  0
 18 28  1  0  0  0  0
 19 25  2  0  0  0  0
 19 27  1  0  0  0  0
 20 24  1  0  0  0  0
 20 27  1  0  0  0  0
 20 29  2  0  0  0  0
 21 28  1  0  0  0  0
 22 28  1  0  0  0  0
 23 24  1  1  0  0  0
 25 26  1  0  0  0  0
  1 30  1  0  0  0  0
  2 31  1  0  0  0  0
  3 32  1  0  0  0  0
  4 33  1  0  0  0  0
  5 34  1  0  0  0  0
  6 35  1  0  0  0  0
  7 36  1  0  0  0  0
  8 37  1  0  0  0  0
  9 38  1  0  0  0  0
 10 39  1  0  0  0  0
 11 40  1  0  0  0  0
 12 41  1  0  0  0  0
 13 42  1  0  0  0  0
 21 43  1  0  0  0  0
 21 44  1  0  0  0  0
 21 45  1  0  0  0  0
 22 46  1  0  0  0  0
 22 47  1  0  0  0  0
 22 48  1  0  0  0  0
 23 49  1  0  0  0  0
 23 50  1  0  0  0  0
 24 51  1  0  0  0  0
 26 52  1  0  0  0  0
 27 53  1  0  0  0  0
M  END
> <clash_score>
0

> <docking_score>
-6.518496513366699

> <overlap_score>
0.9071693420410156

$$$$
BENZO_223_2
  -OEChem-08222022453D

 58 62  0     1  0  0  0  0  0999 V2000
    3.8860    2.1050   19.5250 C   0  0  0  0  0  0  0  0  0  0  0  0
    4.2460    1.7520   20.8250 C   0  0  0  0  0  0  0  0  0  0  0  0
    9.5890   -2.4950   23.2210 C   0  0  0  0  0  0  0  0  0  0  0  0
    8.2550   -1.0010   24.5520 C   0  0  0  0  0  0  0  0  0  0  0  0
    4.6610    1.7170   18.4380 C   0  0  0  0  0  0  0  0  0  0  0  0
    5.3890    1.0010   21.0690 C   0  0  0  0  0  0  0  0  0  0  0  0
    9.1890   -3.5540   24.0140 C   0  0  0  0  0  0  0  0  0  0  0  0
    7.8700   -2.0610   25.3550 C   0  0  0  0  0  0  0  0  0  0  0  0
   12.1481   -0.7687   24.8588 C   0  0  0  0  0  0  0  0  0  0  0  0
   12.9278   -0.6432   22.8067 C   0  0  0  0  0  0  0  0  0  0  0  0
    7.5840   -0.2700   18.5160 C   0  0  0  0  0  0  0  0  0  0  0  0
    9.1280   -1.2090   23.4870 C   0  0  0  0  0  0  0  0  0  0  0  0
   11.8866   -0.2127   23.5922 C   0  0  0  0  0  0  0  0  0  0  0  0
    5.7970    0.9500   18.6730 C   0  0  0  0  0  0  0  0  0  0  0  0
    6.1460    0.6070   19.9750 C   0  0  0  0  0  0  0  0  0  0  0  0
    8.3450   -3.3440   25.0980 C   0  0  0  0  0  0  0  0  0  0  0  0
    9.0430    0.2380   21.4940 C   0  0  0  0  0  0  0  0  0  0  0  0
    8.9526   -5.2008   26.6600 C   0  0  0  0  0  0  0  0  0  0  0  0
    6.6115   -4.5057   26.4392 C   0  0  0  0  0  0  0  0  0  0  0  0
    8.9053   -4.7827   28.1257 C   0  0  0  0  0  0  0  0  0  0  0  0
    6.6391   -4.1219   27.9194 C   0  0  0  0  0  0  0  0  0  0  0  0
   14.9394   -2.0726   23.2413 C   0  0  0  0  0  0  0  0  0  0  0  0
   10.7220    0.6590   23.1850 C   0  0  0  0  0  0  0  0  0  0  0  0
    9.5820   -0.1080   22.7000 C   0  0  2  0  0  0  0  0  0  0  0  0
   13.2676   -1.4968   24.8812 N   0  0  0  0  0  0  0  0  0  0  0  0
    6.7100    0.3850   17.8100 N   0  0  0  0  0  0  0  0  0  0  0  0
   13.7187   -1.4015   23.6188 N   0  0  0  0  0  0  0  0  0  0  0  0
    7.2710   -0.1460   19.8310 N   0  0  0  0  0  0  0  0  0  0  0  0
    7.9774   -4.4013   25.9152 N   0  0  0  0  0  0  0  0  0  0  0  0
    8.0950   -0.7700   20.8440 N   0  0  0  0  0  0  0  0  0  0  0  0
    9.2950    1.3000   20.9480 O   0  0  0  0  0  0  0  0  0  0  0  0
    7.5748   -4.9364   28.6347 O   0  0  0  0  0  0  0  0  0  0  0  0
    2.9844    2.6927   19.3613 H   0  0  0  0  0  0  0  0  0  0  0  0
    3.6214    2.0680   21.6561 H   0  0  0  0  0  0  0  0  0  0  0  0
   10.2684   -2.6719   22.3867 H   0  0  0  0  0  0  0  0  0  0  0  0
    7.8717   -0.0016   24.7596 H   0  0  0  0  0  0  0  0  0  0  0  0
    4.3780    2.0103   17.4276 H   0  0  0  0  0  0  0  0  0  0  0  0
    5.6758    0.7335   22.0897 H   0  0  0  0  0  0  0  0  0  0  0  0
    9.5443   -4.5616   23.7817 H   0  0  0  0  0  0  0  0  0  0  0  0
    7.1921   -1.8821   26.1908 H   0  0  0  0  0  0  0  0  0  0  0  0
   11.5706   -0.6757   25.7677 H   0  0  0  0  0  0  0  0  0  0  0  0
   13.1667   -0.4796   21.7645 H   0  0  0  0  0  0  0  0  0  0  0  0
    8.4213   -0.8245   18.1548 H   0  0  0  0  0  0  0  0  0  0  0  0
    9.9614   -5.0503   26.2701 H   0  0  0  0  0  0  0  0  0  0  0  0
    8.6932   -6.2593   26.5731 H   0  0  0  0  0  0  0  0  0  0  0  0
    6.2625   -5.5339   26.3355 H   0  0  0  0  0  0  0  0  0  0  0  0
    5.9348   -3.8414   25.9036 H   0  0  0  0  0  0  0  0  0  0  0  0
    9.5615   -5.4255   28.7162 H   0  0  0  0  0  0  0  0  0  0  0  0
    9.2365   -3.7494   28.2620 H   0  0  0  0  0  0  0  0  0  0  0  0
    6.8895   -3.0633   28.0551 H   0  0  0  0  0  0  0  0  0  0  0  0
    5.6514   -4.2861   28.3610 H   0  0  0  0  0  0  0  0  0  0  0  0
   15.7702   -1.3830   23.4123 H   0  0  0  0  0  0  0  0  0  0  0  0
   15.0610   -2.9751   23.8468 H   0  0  0  0  0  0  0  0  0  0  0  0
   14.8856   -2.3540   22.1859 H   0  0  0  0  0  0  0  0  0  0  0  0
   10.4364    1.2691   24.0532 H   0  0  0  0  0  0  0  0  0  0  0  0
   11.0496    1.3814   22.4256 H   0  0  0  0  0  0  0  0  0  0  0  0
   10.5267   -0.9929   22.0072 H   0  0  0  0  0  0  0  0  0  0  0  0
    8.0815   -1.6117   21.0754 H   0  0  0  0  0  0  0  0  0  0  0  0
  1  2  1  0  0  0  0
  1  5  2  0  0  0  0
  2  6  2  0  0  0  0
  3  7  2  0  0  0  0
  3 12  1  0  0  0  0
  4  8  1  0  0  0  0
  4 12  2  0  0  0  0
  5 14  1  0  0  0  0
  6 15  1  0  0  0  0
  7 16  1  0  0  0  0
  8 16  2  0  0  0  0
  9 13  1  0  0  0  0
  9 25  2  0  0  0  0
 10 13  2  0  0  0  0
 10 27  1  0  0  0  0
 11 26  2  0  0  0  0
 11 28  1  0  0  0  0
 12 24  1  0  0  0  0
 13 23  1  0  0  0  0
 14 15  2  0  0  0  0
 14 26  1  0  0  0  0
 15 28  1  0  0  0  0
 16 29  1  0  0  0  0
 17 24  1  0  0  0  0
 17 30  1  0  0  0  0
 17 31  2  0  0  0  0
 18 20  1  0  0  0  0
 18 29  1  0  0  0  0
 19 21  1  0  0  0  0
 19 29  1  0  0  0  0
 20 32  1  0  0  0  0
 21 32  1  0  0  0  0
 22 27  1  0  0  0  0
 23 24  1  6  0  0  0
 25 27  1  0  0  0  0
 28 30  1  0  0  0  0
  1 33  1  0  0  0  0
  2 34  1  0  0  0  0
  3 35  1  0  0  0  0
  4 36  1  0  0  0  0
  5 37  1  0  0  0  0
  6 38  1  0  0  0  0
  7 39  1  0  0  0  0
  8 40  1  0  0  0  0
  9 41  1  0  0  0  0
 10 42  1  0  0  0  0
 11 43  1  0  0  0  0
 18 44  1  0  0  0  0
 18 45  1  0  0  0  0
 19 46  1  0  0  0  0
 19 47  1  0  0  0  0
 20 48  1  0  0  0  0
 20 49  1  0  0  0  0
 21 50  1  0  0  0  0
 21 51  1  0  0  0  0
 22 52  1  0  0  0  0
 22 53  1  0  0  0  0
 22 54  1  0  0  0  0
 23 55  1  0  0  0  0
 23 56  1  0  0  0  0
 24 57  1  0  0  0  0
 30 58  1  0  0  0  0
M  END
> <clash_score>
0

> <docking_score>
-7.970666885375977

> <overlap_score>
0.9778862595558167

$$$$
BENZO_224_1
  -OEChem-08222022453D

 50 53  0     1  0  0  0  0  0999 V2000
    4.2460    1.7520   20.8250 C   0  0  0  0  0  0  0  0  0  0  0  0
    3.8860    2.1050   19.5250 C   0  0  0  0  0  0  0  0  0  0  0  0
    5.3890    1.0010   21.0690 C   0  0  0  0  0  0  0  0  0  0  0  0
    9.5890   -2.4950   23.2210 C   0  0  0  0  0  0  0  0  0  0  0  0
    8.2550   -1.0010   24.5520 C   0  0  0  0  0  0  0  0  0  0  0  0
    4.6610    1.7170   18.4380 C   0  0  0  0  0  0  0  0  0  0  0  0
    9.1890   -3.5540   24.0140 C   0  0  0  0  0  0  0  0  0  0  0  0
    7.8700   -2.0610   25.3550 C   0  0  0  0  0  0  0  0  0  0  0  0
   13.1058   -0.2791   23.5772 C   0  0  0  0  0  0  0  0  0  0  0  0
   14.1974   -0.7534   22.8836 C   0  0  0  0  0  0  0  0  0  0  0  0
   12.3642   -0.0940   21.3822 C   0  0  0  0  0  0  0  0  0  0  0  0
    6.1460    0.6070   19.9750 C   0  0  0  0  0  0  0  0  0  0  0  0
    9.1280   -1.2090   23.4870 C   0  0  0  0  0  0  0  0  0  0  0  0
   12.0437    0.1027   22.7075 C   0  0  0  0  0  0  0  0  0  0  0  0
    5.7970    0.9500   18.6730 C   0  0  0  0  0  0  0  0  0  0  0  0
    8.3450   -3.3440   25.0980 C   0  0  0  0  0  0  0  0  0  0  0  0
    7.2710   -0.1460   19.8310 C   0  0  0  0  0  0  0  0  0  0  0  0
    9.0430    0.2380   21.4940 C   0  0  0  0  0  0  0  0  0  0  0  0
    7.2615   -5.5561   25.3801 C   0  0  0  0  0  0  0  0  0  0  0  0
    8.3043   -4.4048   27.3385 C   0  0  0  0  0  0  0  0  0  0  0  0
   10.7220    0.6590   23.1850 C   0  0  0  0  0  0  0  0  0  0  0  0
    9.5820   -0.1080   22.7000 C   0  0  1  0  0  0  0  0  0  0  0  0
    7.5840   -0.2700   18.5160 N   0  0  0  0  0  0  0  0  0  0  0  0
    6.7100    0.3850   17.8100 N   0  0  0  0  0  0  0  0  0  0  0  0
    8.0950   -0.7700   20.8440 N   0  0  0  0  0  0  0  0  0  0  0  0
    7.9717   -4.4175   25.9277 N   0  0  0  0  0  0  0  0  0  0  0  0
    9.2950    1.3000   20.9480 O   0  0  0  0  0  0  0  0  0  0  0  0
   13.9398   -0.7369   21.1908 S   0  0  0  0  0  0  0  0  0  0  0  0
    3.6223    2.0725   21.6574 H   0  0  0  0  0  0  0  0  0  0  0  0
    2.9864    2.6933   19.3609 H   0  0  0  0  0  0  0  0  0  0  0  0
    5.6689    0.7392   22.0836 H   0  0  0  0  0  0  0  0  0  0  0  0
   10.2684   -2.6719   22.3867 H   0  0  0  0  0  0  0  0  0  0  0  0
    7.8717   -0.0016   24.7596 H   0  0  0  0  0  0  0  0  0  0  0  0
    4.3807    2.0116   17.4186 H   0  0  0  0  0  0  0  0  0  0  0  0
    9.5443   -4.5616   23.7817 H   0  0  0  0  0  0  0  0  0  0  0  0
    7.1921   -1.8821   26.1908 H   0  0  0  0  0  0  0  0  0  0  0  0
   13.0750   -0.2107   24.6573 H   0  0  0  0  0  0  0  0  0  0  0  0
   15.1341   -1.1080   23.2899 H   0  0  0  0  0  0  0  0  0  0  0  0
   11.7521    0.1087   20.5143 H   0  0  0  0  0  0  0  0  0  0  0  0
    7.0605   -6.2832   26.1807 H   0  0  0  0  0  0  0  0  0  0  0  0
    6.3097   -5.2191   24.9437 H   0  0  0  0  0  0  0  0  0  0  0  0
    7.8751   -6.0303   24.6000 H   0  0  0  0  0  0  0  0  0  0  0  0
    7.9293   -5.3239   27.8125 H   0  0  0  0  0  0  0  0  0  0  0  0
    9.3965   -4.3505   27.4572 H   0  0  0  0  0  0  0  0  0  0  0  0
    7.8395   -3.5300   27.8168 H   0  0  0  0  0  0  0  0  0  0  0  0
   10.7266    0.7141   24.2815 H   0  0  0  0  0  0  0  0  0  0  0  0
   10.6502    1.7003   22.8412 H   0  0  0  0  0  0  0  0  0  0  0  0
    8.7027    0.7972   23.4026 H   0  0  0  0  0  0  0  0  0  0  0  0
    6.7486    0.4313   16.8331 H   0  0  0  0  0  0  0  0  0  0  0  0
    8.0757   -1.6162   21.0774 H   0  0  0  0  0  0  0  0  0  0  0  0
  1  2  1  0  0  0  0
  1  3  2  0  0  0  0
  2  6  2  0  0  0  0
  3 12  1  0  0  0  0
  4  7  2  0  0  0  0
  4 13  1  0  0  0  0
  5  8  1  0  0  0  0
  5 13  2  0  0  0  0
  6 15  1  0  0  0  0
  7 16  1  0  0  0  0
  8 16  2  0  0  0  0
  9 10  2  0  0  0  0
  9 14  1  0  0  0  0
 10 28  1  0  0  0  0
 11 14  2  0  0  0  0
 11 28  1  0  0  0  0
 12 15  2  0  0  0  0
 12 17  1  0  0  0  0
 13 22  1  0  0  0  0
 14 21  1  0  0  0  0
 15 24  1  0  0  0  0
 16 26  1  0  0  0  0
 17 23  2  0  0  0  0
 17 25  1  0  0  0  0
 18 22  1  0  0  0  0
 18 25  1  0  0  0  0
 18 27  2  0  0  0  0
 19 26  1  0  0  0  0
 20 26  1  0  0  0  0
 21 22  1  1  0  0  0
 23 24  1  0  0  0  0
  1 29  1  0  0  0  0
  2 30  1  0  0  0  0
  3 31  1  0  0  0  0
  4 32  1  0  0  0  0
  5 33  1  0  0  0  0
  6 34  1  0  0  0  0
  7 35  1  0  0  0  0
  8 36  1  0  0  0  0
  9 37  1  0  0  0  0
 10 38  1  0  0  0  0
 11 39  1  0  0  0  0
 19 40  1  0  0  0  0
 19 41  1  0  0  0  0
 19 42  1  0  0  0  0
 20 43  1  0  0  0  0
 20 44  1  0  0  0  0
 20 45  1  0  0  0  0
 21 46  1  0  0  0  0
 21 47  1  0  0  0  0
 22 48  1  0  0  0  0
 24 49  1  0  0  0  0
 25 50  1  0  0  0  0
M  END
> <clash_score>
0

> <docking_score>
-6.293625831604004

> <overlap_score>
0.9037566184997559

$$$$
BENZO_225_2
  -OEChem-08222022453D

 53 56  0     1  0  0  0  0  0999 V2000
   14.0137   -1.8398   24.3768 C   0  0  0  0  0  0  0  0  0  0  0  0
    4.2460    1.7520   20.8250 C   0  0  0  0  0  0  0  0  0  0  0  0
   13.0361   -1.4844   25.3061 C   0  0  0  0  0  0  0  0  0  0  0  0
   13.9239   -1.3848   23.0613 C   0  0  0  0  0  0  0  0  0  0  0  0
    3.8860    2.1050   19.5250 C   0  0  0  0  0  0  0  0  0  0  0  0
    5.3890    1.0010   21.0690 C   0  0  0  0  0  0  0  0  0  0  0  0
   11.9686   -0.6740   24.9198 C   0  0  0  0  0  0  0  0  0  0  0  0
   12.8563   -0.5744   22.6750 C   0  0  0  0  0  0  0  0  0  0  0  0
    9.5890   -2.4950   23.2210 C   0  0  0  0  0  0  0  0  0  0  0  0
    8.2550   -1.0010   24.5520 C   0  0  0  0  0  0  0  0  0  0  0  0
    4.6610    1.7170   18.4380 C   0  0  0  0  0  0  0  0  0  0  0  0
    9.1890   -3.5540   24.0140 C   0  0  0  0  0  0  0  0  0  0  0  0
    7.8700   -2.0610   25.3550 C   0  0  0  0  0  0  0  0  0  0  0  0
    6.1460    0.6070   19.9750 C   0  0  0  0  0  0  0  0  0  0  0  0
   11.8786   -0.2190   23.6043 C   0  0  0  0  0  0  0  0  0  0  0  0
    9.1280   -1.2090   23.4870 C   0  0  0  0  0  0  0  0  0  0  0  0
    5.7970    0.9500   18.6730 C   0  0  0  0  0  0  0  0  0  0  0  0
    8.3450   -3.3440   25.0980 C   0  0  0  0  0  0  0  0  0  0  0  0
    7.2710   -0.1460   19.8310 C   0  0  0  0  0  0  0  0  0  0  0  0
    9.0430    0.2380   21.4940 C   0  0  0  0  0  0  0  0  0  0  0  0
    7.2615   -5.5561   25.3801 C   0  0  0  0  0  0  0  0  0  0  0  0
    8.3043   -4.4048   27.3385 C   0  0  0  0  0  0  0  0  0  0  0  0
   10.7220    0.6590   23.1850 C   0  0  0  0  0  0  0  0  0  0  0  0
    9.5820   -0.1080   22.7000 C   0  0  2  0  0  0  0  0  0  0  0  0
    7.5840   -0.2700   18.5160 N   0  0  0  0  0  0  0  0  0  0  0  0
    6.7100    0.3850   17.8100 N   0  0  0  0  0  0  0  0  0  0  0  0
    8.0950   -0.7700   20.8440 N   0  0  0  0  0  0  0  0  0  0  0  0
    7.9717   -4.4175   25.9277 N   0  0  0  0  0  0  0  0  0  0  0  0
    9.2950    1.3000   20.9480 O   0  0  0  0  0  0  0  0  0  0  0  0
   14.8456   -2.4698   24.6781 H   0  0  0  0  0  0  0  0  0  0  0  0
    3.6223    2.0725   21.6574 H   0  0  0  0  0  0  0  0  0  0  0  0
   13.1065   -1.8377   26.3307 H   0  0  0  0  0  0  0  0  0  0  0  0
   14.6854   -1.6605   22.3378 H   0  0  0  0  0  0  0  0  0  0  0  0
    2.9864    2.6933   19.3609 H   0  0  0  0  0  0  0  0  0  0  0  0
    5.6689    0.7392   22.0836 H   0  0  0  0  0  0  0  0  0  0  0  0
   11.2114   -0.4022   25.6506 H   0  0  0  0  0  0  0  0  0  0  0  0
   12.7944   -0.2247   21.6479 H   0  0  0  0  0  0  0  0  0  0  0  0
   10.2684   -2.6719   22.3867 H   0  0  0  0  0  0  0  0  0  0  0  0
    7.8717   -0.0016   24.7596 H   0  0  0  0  0  0  0  0  0  0  0  0
    4.3807    2.0116   17.4186 H   0  0  0  0  0  0  0  0  0  0  0  0
    9.5443   -4.5616   23.7817 H   0  0  0  0  0  0  0  0  0  0  0  0
    7.1921   -1.8821   26.1908 H   0  0  0  0  0  0  0  0  0  0  0  0
    7.0605   -6.2832   26.1807 H   0  0  0  0  0  0  0  0  0  0  0  0
    6.3097   -5.2191   24.9437 H   0  0  0  0  0  0  0  0  0  0  0  0
    7.8751   -6.0303   24.6000 H   0  0  0  0  0  0  0  0  0  0  0  0
    7.9293   -5.3239   27.8125 H   0  0  0  0  0  0  0  0  0  0  0  0
    9.3965   -4.3505   27.4572 H   0  0  0  0  0  0  0  0  0  0  0  0
    7.8395   -3.5300   27.8168 H   0  0  0  0  0  0  0  0  0  0  0  0
   10.4369    1.3080   24.0233 H   0  0  0  0  0  0  0  0  0  0  0  0
   11.0815    1.3384   22.3997 H   0  0  0  0  0  0  0  0  0  0  0  0
   10.5413   -0.9955   22.0233 H   0  0  0  0  0  0  0  0  0  0  0  0
    6.7486    0.4313   16.8331 H   0  0  0  0  0  0  0  0  0  0  0  0
    8.0757   -1.6162   21.0774 H   0  0  0  0  0  0  0  0  0  0  0  0
  1  3  1  0  0  0  0
  1  4  2  0  0  0  0
  2  5  1  0  0  0  0
  2  6  2  0  0  0  0
  3  7  2  0  0  0  0
  4  8  1  0  0  0  0
  5 11  2  0  0  0  0
  6 14  1  0  0  0  0
  7 15  1  0  0  0  0
  8 15  2  0  0  0  0
  9 12  2  0  0  0  0
  9 16  1  0  0  0  0
 10 13  1  0  0  0  0
 10 16  2  0  0  0  0
 11 17  1  0  0  0  0
 12 18  1  0  0  0  0
 13 18  2  0  0  0  0
 14 17  2  0  0  0  0
 14 19  1  0  0  0  0
 15 23  1  0  0  0  0
 16 24  1  0  0  0  0
 17 26  1  0  0  0  0
 18 28  1  0  0  0  0
 19 25  2  0  0  0  0
 19 27  1  0  0  0  0
 20 24  1  0  0  0  0
 20 27  1  0  0  0  0
 20 29  2  0  0  0  0
 21 28  1  0  0  0  0
 22 28  1  0  0  0  0
 23 24  1  6  0  0  0
 25 26  1  0  0  0  0
  1 30  1  0  0  0  0
  2 31  1  0  0  0  0
  3 32  1  0  0  0  0
  4 33  1  0  0  0  0
  5 34  1  0  0  0  0
  6 35  1  0  0  0  0
  7 36  1  0  0  0  0
  8 37  1  0  0  0  0
  9 38  1  0  0  0  0
 10 39  1  0  0  0  0
 11 40  1  0  0  0  0
 12 41  1  0  0  0  0
 13 42  1  0  0  0  0
 21 43  1  0  0  0  0
 21 44  1  0  0  0  0
 21 45  1  0  0  0  0
 22 46  1  0  0  0  0
 22 47  1  0  0  0  0
 22 48  1  0  0  0  0
 23 49  1  0  0  0  0
 23 50  1  0  0  0  0
 24 51  1  0  0  0  0
 26 52  1  0  0  0  0
 27 53  1  0  0  0  0
M  END
> <clash_score>
0

> <docking_score>
-7.081070899963379

> <overlap_score>
0.9280033111572266

$$$$
BENZO_223_1
  -OEChem-08222022453D

 58 62  0     1  0  0  0  0  0999 V2000
    3.8860    2.1050   19.5250 C   0  0  0  0  0  0  0  0  0  0  0  0
    4.2460    1.7520   20.8250 C   0  0  0  0  0  0  0  0  0  0  0  0
    9.5890   -2.4950   23.2210 C   0  0  0  0  0  0  0  0  0  0  0  0
    8.2550   -1.0010   24.5520 C   0  0  0  0  0  0  0  0  0  0  0  0
    4.6610    1.7170   18.4380 C   0  0  0  0  0  0  0  0  0  0  0  0
    5.3890    1.0010   21.0690 C   0  0  0  0  0  0  0  0  0  0  0  0
    9.1890   -3.5540   24.0140 C   0  0  0  0  0  0  0  0  0  0  0  0
    7.8700   -2.0610   25.3550 C   0  0  0  0  0  0  0  0  0  0  0  0
   13.2863    0.1542   23.3919 C   0  0  0  0  0  0  0  0  0  0  0  0
   12.3112   -0.5906   21.5672 C   0  0  0  0  0  0  0  0  0  0  0  0
    7.5840   -0.2700   18.5160 C   0  0  0  0  0  0  0  0  0  0  0  0
    9.1280   -1.2090   23.4870 C   0  0  0  0  0  0  0  0  0  0  0  0
   12.0469    0.0961   22.7270 C   0  0  0  0  0  0  0  0  0  0  0  0
    5.7970    0.9500   18.6730 C   0  0  0  0  0  0  0  0  0  0  0  0
    6.1460    0.6070   19.9750 C   0  0  0  0  0  0  0  0  0  0  0  0
    8.3450   -3.3440   25.0980 C   0  0  0  0  0  0  0  0  0  0  0  0
    9.0430    0.2380   21.4940 C   0  0  0  0  0  0  0  0  0  0  0  0
    8.9526   -5.2008   26.6600 C   0  0  0  0  0  0  0  0  0  0  0  0
    6.6115   -4.5057   26.4392 C   0  0  0  0  0  0  0  0  0  0  0  0
    8.9053   -4.7827   28.1257 C   0  0  0  0  0  0  0  0  0  0  0  0
    6.6391   -4.1219   27.9194 C   0  0  0  0  0  0  0  0  0  0  0  0
   14.3866   -1.6105   20.6020 C   0  0  0  0  0  0  0  0  0  0  0  0
   10.7220    0.6590   23.1850 C   0  0  0  0  0  0  0  0  0  0  0  0
    9.5820   -0.1080   22.7000 C   0  0  1  0  0  0  0  0  0  0  0  0
   14.2653   -0.4478   22.7113 N   0  0  0  0  0  0  0  0  0  0  0  0
    6.7100    0.3850   17.8100 N   0  0  0  0  0  0  0  0  0  0  0  0
   13.6411   -0.8907   21.6066 N   0  0  0  0  0  0  0  0  0  0  0  0
    7.2710   -0.1460   19.8310 N   0  0  0  0  0  0  0  0  0  0  0  0
    7.9774   -4.4013   25.9152 N   0  0  0  0  0  0  0  0  0  0  0  0
    8.0950   -0.7700   20.8440 N   0  0  0  0  0  0  0  0  0  0  0  0
    9.2950    1.3000   20.9480 O   0  0  0  0  0  0  0  0  0  0  0  0
    7.5748   -4.9364   28.6347 O   0  0  0  0  0  0  0  0  0  0  0  0
    2.9844    2.6927   19.3613 H   0  0  0  0  0  0  0  0  0  0  0  0
    3.6214    2.0680   21.6561 H   0  0  0  0  0  0  0  0  0  0  0  0
   10.2684   -2.6719   22.3867 H   0  0  0  0  0  0  0  0  0  0  0  0
    7.8717   -0.0016   24.7596 H   0  0  0  0  0  0  0  0  0  0  0  0
    4.3780    2.0103   17.4276 H   0  0  0  0  0  0  0  0  0  0  0  0
    5.6758    0.7335   22.0897 H   0  0  0  0  0  0  0  0  0  0  0  0
    9.5443   -4.5616   23.7817 H   0  0  0  0  0  0  0  0  0  0  0  0
    7.1921   -1.8821   26.1908 H   0  0  0  0  0  0  0  0  0  0  0  0
   13.5193    0.6087   24.3445 H   0  0  0  0  0  0  0  0  0  0  0  0
   11.6817   -0.8851   20.7385 H   0  0  0  0  0  0  0  0  0  0  0  0
    8.4213   -0.8245   18.1548 H   0  0  0  0  0  0  0  0  0  0  0  0
    9.9614   -5.0503   26.2701 H   0  0  0  0  0  0  0  0  0  0  0  0
    8.6932   -6.2593   26.5731 H   0  0  0  0  0  0  0  0  0  0  0  0
    6.2625   -5.5339   26.3355 H   0  0  0  0  0  0  0  0  0  0  0  0
    5.9348   -3.8414   25.9036 H   0  0  0  0  0  0  0  0  0  0  0  0
    9.5615   -5.4255   28.7162 H   0  0  0  0  0  0  0  0  0  0  0  0
    9.2365   -3.7494   28.2620 H   0  0  0  0  0  0  0  0  0  0  0  0
    6.8895   -3.0633   28.0551 H   0  0  0  0  0  0  0  0  0  0  0  0
    5.6514   -4.2861   28.3610 H   0  0  0  0  0  0  0  0  0  0  0  0
   14.7772   -0.8827   19.8859 H   0  0  0  0  0  0  0  0  0  0  0  0
   15.2060   -2.1563   21.0779 H   0  0  0  0  0  0  0  0  0  0  0  0
   13.7245   -2.3229   20.1020 H   0  0  0  0  0  0  0  0  0  0  0  0
   10.7288    0.6889   24.2835 H   0  0  0  0  0  0  0  0  0  0  0  0
   10.6393    1.7086   22.8728 H   0  0  0  0  0  0  0  0  0  0  0  0
    8.6955    0.7993   23.3793 H   0  0  0  0  0  0  0  0  0  0  0  0
    8.0815   -1.6117   21.0754 H   0  0  0  0  0  0  0  0  0  0  0  0
  1  2  1  0  0  0  0
  1  5  2  0  0  0  0
  2  6  2  0  0  0  0
  3  7  2  0  0  0  0
  3 12  1  0  0  0  0
  4  8  1  0  0  0  0
  4 12  2  0  0  0  0
  5 14  1  0  0  0  0
  6 15  1  0  0  0  0
  7 16  1  0  0  0  0
  8 16  2  0  0  0  0
  9 13  1  0  0  0  0
  9 25  2  0  0  0  0
 10 13  2  0  0  0  0
 10 27  1  0  0  0  0
 11 26  2  0  0  0  0
 11 28  1  0  0  0  0
 12 24  1  0  0  0  0
 13 23  1  0  0  0  0
 14 15  2  0  0  0  0
 14 26  1  0  0  0  0
 15 28  1  0  0  0  0
 16 29  1  0  0  0  0
 17 24  1  0  0  0  0
 17 30  1  0  0  0  0
 17 31  2  0  0  0  0
 18 20  1  0  0  0  0
 18 29  1  0  0  0  0
 19 21  1  0  0  0  0
 19 29  1  0  0  0  0
 20 32  1  0  0  0  0
 21 32  1  0  0  0  0
 22 27  1  0  0  0  0
 23 24  1  1  0  0  0
 25 27  1  0  0  0  0
 28 30  1  0  0  0  0
  1 33  1  0  0  0  0
  2 34  1  0  0  0  0
  3 35  1  0  0  0  0
  4 36  1  0  0  0  0
  5 37  1  0  0  0  0
  6 38  1  0  0  0  0
  7 39  1  0  0  0  0
  8 40  1  0  0  0  0
  9 41  1  0  0  0  0
 10 42  1  0  0  0  0
 11 43  1  0  0  0  0
 18 44  1  0  0  0  0
 18 45  1  0  0  0  0
 19 46  1  0  0  0  0
 19 47  1  0  0  0  0
 20 48  1  0  0  0  0
 20 49  1  0  0  0  0
 21 50  1  0  0  0  0
 21 51  1  0  0  0  0
 22 52  1  0  0  0  0
 22 53  1  0  0  0  0
 22 54  1  0  0  0  0
 23 55  1  0  0  0  0
 23 56  1  0  0  0  0
 24 57  1  0  0  0  0
 30 58  1  0  0  0  0
M  END
> <clash_score>
0

> <docking_score>
-9.520720481872559

> <overlap_score>
0.95653235912323

$$$$
BENZO_222_1
  -OEChem-08222022453D

 58 62  0     1  0  0  0  0  0999 V2000
    3.8860    2.1050   19.5250 C   0  0  0  0  0  0  0  0  0  0  0  0
    4.2460    1.7520   20.8250 C   0  0  0  0  0  0  0  0  0  0  0  0
   13.0596   -1.4816   25.2806 C   0  0  0  0  0  0  0  0  0  0  0  0
   11.9851   -0.6757   24.9042 C   0  0  0  0  0  0  0  0  0  0  0  0
    9.5890   -2.4950   23.2210 C   0  0  0  0  0  0  0  0  0  0  0  0
    8.2550   -1.0010   24.5520 C   0  0  0  0  0  0  0  0  0  0  0  0
    4.6610    1.7170   18.4380 C   0  0  0  0  0  0  0  0  0  0  0  0
    5.3890    1.0010   21.0690 C   0  0  0  0  0  0  0  0  0  0  0  0
    9.1890   -3.5540   24.0140 C   0  0  0  0  0  0  0  0  0  0  0  0
    7.8700   -2.0610   25.3550 C   0  0  0  0  0  0  0  0  0  0  0  0
   14.0356   -1.8245   24.3449 C   0  0  0  0  0  0  0  0  0  0  0  0
   12.8626   -0.5556   22.6564 C   0  0  0  0  0  0  0  0  0  0  0  0
    7.5840   -0.2700   18.5160 C   0  0  0  0  0  0  0  0  0  0  0  0
    9.1280   -1.2090   23.4870 C   0  0  0  0  0  0  0  0  0  0  0  0
   11.8866   -0.2127   23.5922 C   0  0  0  0  0  0  0  0  0  0  0  0
    5.7970    0.9500   18.6730 C   0  0  0  0  0  0  0  0  0  0  0  0
    6.1460    0.6070   19.9750 C   0  0  0  0  0  0  0  0  0  0  0  0
    8.3450   -3.3440   25.0980 C   0  0  0  0  0  0  0  0  0  0  0  0
   13.9370   -1.3615   23.0328 C   0  0  0  0  0  0  0  0  0  0  0  0
    9.0430    0.2380   21.4940 C   0  0  0  0  0  0  0  0  0  0  0  0
    8.9526   -5.2008   26.6600 C   0  0  0  0  0  0  0  0  0  0  0  0
    6.6115   -4.5057   26.4392 C   0  0  0  0  0  0  0  0  0  0  0  0
    8.9053   -4.7827   28.1257 C   0  0  0  0  0  0  0  0  0  0  0  0
    6.6391   -4.1219   27.9194 C   0  0  0  0  0  0  0  0  0  0  0  0
   10.7220    0.6590   23.1850 C   0  0  0  0  0  0  0  0  0  0  0  0
    9.5820   -0.1080   22.7000 C   0  0  1  0  0  0  0  0  0  0  0  0
    6.7100    0.3850   17.8100 N   0  0  0  0  0  0  0  0  0  0  0  0
    7.2710   -0.1460   19.8310 N   0  0  0  0  0  0  0  0  0  0  0  0
    7.9774   -4.4013   25.9152 N   0  0  0  0  0  0  0  0  0  0  0  0
    8.0950   -0.7700   20.8440 N   0  0  0  0  0  0  0  0  0  0  0  0
    9.2950    1.3000   20.9480 O   0  0  0  0  0  0  0  0  0  0  0  0
    7.5748   -4.9364   28.6347 O   0  0  0  0  0  0  0  0  0  0  0  0
   15.1409   -1.7858   21.8785 Cl  0  0  0  0  0  0  0  0  0  0  0  0
    2.9844    2.6927   19.3613 H   0  0  0  0  0  0  0  0  0  0  0  0
    3.6214    2.0680   21.6561 H   0  0  0  0  0  0  0  0  0  0  0  0
   13.1358   -1.8421   26.3024 H   0  0  0  0  0  0  0  0  0  0  0  0
   11.2292   -0.4136   25.6399 H   0  0  0  0  0  0  0  0  0  0  0  0
   10.2684   -2.6719   22.3867 H   0  0  0  0  0  0  0  0  0  0  0  0
    7.8717   -0.0016   24.7596 H   0  0  0  0  0  0  0  0  0  0  0  0
    4.3780    2.0103   17.4276 H   0  0  0  0  0  0  0  0  0  0  0  0
    5.6758    0.7335   22.0897 H   0  0  0  0  0  0  0  0  0  0  0  0
    9.5443   -4.5616   23.7817 H   0  0  0  0  0  0  0  0  0  0  0  0
    7.1921   -1.8821   26.1908 H   0  0  0  0  0  0  0  0  0  0  0  0
   14.8673   -2.4536   24.6523 H   0  0  0  0  0  0  0  0  0  0  0  0
   12.7815   -0.1917   21.6347 H   0  0  0  0  0  0  0  0  0  0  0  0
    8.4213   -0.8245   18.1548 H   0  0  0  0  0  0  0  0  0  0  0  0
    9.9614   -5.0503   26.2701 H   0  0  0  0  0  0  0  0  0  0  0  0
    8.6932   -6.2593   26.5731 H   0  0  0  0  0  0  0  0  0  0  0  0
    6.2625   -5.5339   26.3355 H   0  0  0  0  0  0  0  0  0  0  0  0
    5.9348   -3.8414   25.9036 H   0  0  0  0  0  0  0  0  0  0  0  0
    9.5615   -5.4255   28.7162 H   0  0  0  0  0  0  0  0  0  0  0  0
    9.2365   -3.7494   28.2620 H   0  0  0  0  0  0  0  0  0  0  0  0
    6.8895   -3.0633   28.0551 H   0  0  0  0  0  0  0  0  0  0  0  0
    5.6514   -4.2861   28.3610 H   0  0  0  0  0  0  0  0  0  0  0  0
   10.4364    1.2691   24.0532 H   0  0  0  0  0  0  0  0  0  0  0  0
   11.0496    1.3814   22.4256 H   0  0  0  0  0  0  0  0  0  0  0  0
   10.5267   -0.9929   22.0072 H   0  0  0  0  0  0  0  0  0  0  0  0
    8.0815   -1.6117   21.0754 H   0  0  0  0  0  0  0  0  0  0  0  0
  1  2  1  0  0  0  0
  1  7  2  0  0  0  0
  2  8  2  0  0  0  0
  3  4  2  0  0  0  0
  3 11  1  0  0  0  0
  4 15  1  0  0  0  0
  5  9  2  0  0  0  0
  5 14  1  0  0  0  0
  6 10  1  0  0  0  0
  6 14  2  0  0  0  0
  7 16  1  0  0  0  0
  8 17  1  0  0  0  0
  9 18  1  0  0  0  0
 10 18  2  0  0  0  0
 11 19  2  0  0  0  0
 12 15  2  0  0  0  0
 12 19  1  0  0  0  0
 13 27  2  0  0  0  0
 13 28  1  0  0  0  0
 14 26  1  0  0  0  0
 15 25  1  0  0  0  0
 16 17  2  0  0  0  0
 16 27  1  0  0  0  0
 17 28  1  0  0  0  0
 18 29  1  0  0  0  0
 19 33  1  0  0  0  0
 20 26  1  1  0  0  0
 20 30  1  0  0  0  0
 20 31  2  0  0  0  0
 21 23  1  0  0  0  0
 21 29  1  0  0  0  0
 22 24  1  0  0  0  0
 22 29  1  0  0  0  0
 23 32  1  0  0  0  0
 24 32  1  0  0  0  0
 25 26  1  0  0  0  0
 28 30  1  0  0  0  0
  1 34  1  0  0  0  0
  2 35  1  0  0  0  0
  3 36  1  0  0  0  0
  4 37  1  0  0  0  0
  5 38  1  0  0  0  0
  6 39  1  0  0  0  0
  7 40  1  0  0  0  0
  8 41  1  0  0  0  0
  9 42  1  0  0  0  0
 10 43  1  0  0  0  0
 11 44  1  0  0  0  0
 12 45  1  0  0  0  0
 13 46  1  0  0  0  0
 21 47  1  0  0  0  0
 21 48  1  0  0  0  0
 22 49  1  0  0  0  0
 22 50  1  0  0  0  0
 23 51  1  0  0  0  0
 23 52  1  0  0  0  0
 24 53  1  0  0  0  0
 24 54  1  0  0  0  0
 25 55  1  0  0  0  0
 25 56  1  0  0  0  0
 26 57  1  0  0  0  0
 30 58  1  0  0  0  0
M  END
> <clash_score>
0

> <docking_score>
-8.036065101623535

> <overlap_score>
0.9819604158401489

$$$$
BENZO_224_2
  -OEChem-08222022453D

 50 53  0     1  0  0  0  0  0999 V2000
    4.2460    1.7520   20.8250 C   0  0  0  0  0  0  0  0  0  0  0  0
    3.8860    2.1050   19.5250 C   0  0  0  0  0  0  0  0  0  0  0  0
    5.3890    1.0010   21.0690 C   0  0  0  0  0  0  0  0  0  0  0  0
    9.5890   -2.4950   23.2210 C   0  0  0  0  0  0  0  0  0  0  0  0
    8.2550   -1.0010   24.5520 C   0  0  0  0  0  0  0  0  0  0  0  0
    4.6610    1.7170   18.4380 C   0  0  0  0  0  0  0  0  0  0  0  0
    9.1890   -3.5540   24.0140 C   0  0  0  0  0  0  0  0  0  0  0  0
    7.8700   -2.0610   25.3550 C   0  0  0  0  0  0  0  0  0  0  0  0
   12.0393    0.1762   25.3640 C   0  0  0  0  0  0  0  0  0  0  0  0
   12.9049   -0.7459   25.9099 C   0  0  0  0  0  0  0  0  0  0  0  0
   12.2520   -1.3384   23.6137 C   0  0  0  0  0  0  0  0  0  0  0  0
    6.1460    0.6070   19.9750 C   0  0  0  0  0  0  0  0  0  0  0  0
    9.1280   -1.2090   23.4870 C   0  0  0  0  0  0  0  0  0  0  0  0
   11.6609   -0.1670   24.0339 C   0  0  0  0  0  0  0  0  0  0  0  0
    5.7970    0.9500   18.6730 C   0  0  0  0  0  0  0  0  0  0  0  0
    8.3450   -3.3440   25.0980 C   0  0  0  0  0  0  0  0  0  0  0  0
    7.2710   -0.1460   19.8310 C   0  0  0  0  0  0  0  0  0  0  0  0
    9.0430    0.2380   21.4940 C   0  0  0  0  0  0  0  0  0  0  0  0
    8.4625   -5.7553   25.6626 C   0  0  0  0  0  0  0  0  0  0  0  0
    7.1021   -4.1972   27.0663 C   0  0  0  0  0  0  0  0  0  0  0  0
   10.7220    0.6590   23.1850 C   0  0  0  0  0  0  0  0  0  0  0  0
    9.5820   -0.1080   22.7000 C   0  0  2  0  0  0  0  0  0  0  0  0
    7.5840   -0.2700   18.5160 N   0  0  0  0  0  0  0  0  0  0  0  0
    6.7100    0.3850   17.8100 N   0  0  0  0  0  0  0  0  0  0  0  0
    8.0950   -0.7700   20.8440 N   0  0  0  0  0  0  0  0  0  0  0  0
    7.9717   -4.4175   25.9277 N   0  0  0  0  0  0  0  0  0  0  0  0
    9.2950    1.3000   20.9480 O   0  0  0  0  0  0  0  0  0  0  0  0
   13.2582   -2.0191   24.8206 S   0  0  0  0  0  0  0  0  0  0  0  0
    3.6223    2.0725   21.6574 H   0  0  0  0  0  0  0  0  0  0  0  0
    2.9864    2.6933   19.3609 H   0  0  0  0  0  0  0  0  0  0  0  0
    5.6689    0.7392   22.0836 H   0  0  0  0  0  0  0  0  0  0  0  0
   10.2684   -2.6719   22.3867 H   0  0  0  0  0  0  0  0  0  0  0  0
    7.8717   -0.0016   24.7596 H   0  0  0  0  0  0  0  0  0  0  0  0
    4.3807    2.0116   17.4186 H   0  0  0  0  0  0  0  0  0  0  0  0
    9.5443   -4.5616   23.7817 H   0  0  0  0  0  0  0  0  0  0  0  0
    7.1921   -1.8821   26.1908 H   0  0  0  0  0  0  0  0  0  0  0  0
   11.6967    1.0541   25.8970 H   0  0  0  0  0  0  0  0  0  0  0  0
   13.3474   -0.7326   26.8960 H   0  0  0  0  0  0  0  0  0  0  0  0
   12.1448   -1.8296   22.6565 H   0  0  0  0  0  0  0  0  0  0  0  0
    8.0611   -6.4496   26.4156 H   0  0  0  0  0  0  0  0  0  0  0  0
    8.1376   -6.0731   24.6609 H   0  0  0  0  0  0  0  0  0  0  0  0
    9.5614   -5.7587   25.7099 H   0  0  0  0  0  0  0  0  0  0  0  0
    6.9276   -5.1514   27.5851 H   0  0  0  0  0  0  0  0  0  0  0  0
    7.5767   -3.4855   27.7578 H   0  0  0  0  0  0  0  0  0  0  0  0
    6.1418   -3.7873   26.7201 H   0  0  0  0  0  0  0  0  0  0  0  0
   10.3958    1.5383   23.7557 H   0  0  0  0  0  0  0  0  0  0  0  0
   11.2964    1.0584   22.3376 H   0  0  0  0  0  0  0  0  0  0  0  0
   10.5413   -0.9955   22.0233 H   0  0  0  0  0  0  0  0  0  0  0  0
    6.7486    0.4313   16.8331 H   0  0  0  0  0  0  0  0  0  0  0  0
    8.0757   -1.6162   21.0774 H   0  0  0  0  0  0  0  0  0  0  0  0
  1  2  1  0  0  0  0
  1  3  2  0  0  0  0
  2  6  2  0  0  0  0
  3 12  1  0  0  0  0
  4  7  2  0  0  0  0
  4 13  1  0  0  0  0
  5  8  1  0  0  0  0
  5 13  2  0  0  0  0
  6 15  1  0  0  0  0
  7 16  1  0  0  0  0
  8 16  2  0  0  0  0
  9 10  2  0  0  0  0
  9 14  1  0  0  0  0
 10 28  1  0  0  0  0
 11 14  2  0  0  0  0
 11 28  1  0  0  0  0
 12 15  2  0  0  0  0
 12 17  1  0  0  0  0
 13 22  1  0  0  0  0
 14 21  1  0  0  0  0
 15 24  1  0  0  0  0
 16 26  1  0  0  0  0
 17 23  2  0  0  0  0
 17 25  1  0  0  0  0
 18 22  1  0  0  0  0
 18 25  1  0  0  0  0
 18 27  2  0  0  0  0
 19 26  1  0  0  0  0
 20 26  1  0  0  0  0
 21 22  1  6  0  0  0
 23 24  1  0  0  0  0
  1 29  1  0  0  0  0
  2 30  1  0  0  0  0
  3 31  1  0  0  0  0
  4 32  1  0  0  0  0
  5 33  1  0  0  0  0
  6 34  1  0  0  0  0
  7 35  1  0  0  0  0
  8 36  1  0  0  0  0
  9 37  1  0  0  0  0
 10 38  1  0  0  0  0
 11 39  1  0  0  0  0
 19 40  1  0  0  0  0
 19 41  1  0  0  0  0
 19 42  1  0  0  0  0
 20 43  1  0  0  0  0
 20 44  1  0  0  0  0
 20 45  1  0  0  0  0
 21 46  1  0  0  0  0
 21 47  1  0  0  0  0
 22 48  1  0  0  0  0
 24 49  1  0  0  0  0
 25 50  1  0  0  0  0
M  END
> <clash_score>
0

> <docking_score>
-4.796230792999268

> <overlap_score>
0.8567749261856079

$$$$
BENZO_222_2
  -OEChem-08222022453D

 58 62  0     1  0  0  0  0  0999 V2000
    3.8860    2.1050   19.5250 C   0  0  0  0  0  0  0  0  0  0  0  0
    4.2460    1.7520   20.8250 C   0  0  0  0  0  0  0  0  0  0  0  0
   13.3570   -1.0972   21.0849 C   0  0  0  0  0  0  0  0  0  0  0  0
   12.1338   -0.5782   21.5090 C   0  0  0  0  0  0  0  0  0  0  0  0
    9.5890   -2.4950   23.2210 C   0  0  0  0  0  0  0  0  0  0  0  0
    8.2550   -1.0010   24.5520 C   0  0  0  0  0  0  0  0  0  0  0  0
    4.6610    1.7170   18.4380 C   0  0  0  0  0  0  0  0  0  0  0  0
    5.3890    1.0010   21.0690 C   0  0  0  0  0  0  0  0  0  0  0  0
    9.1890   -3.5540   24.0140 C   0  0  0  0  0  0  0  0  0  0  0  0
    7.8700   -2.0610   25.3550 C   0  0  0  0  0  0  0  0  0  0  0  0
   14.4934   -0.9420   21.8789 C   0  0  0  0  0  0  0  0  0  0  0  0
   13.1832    0.2514   23.5209 C   0  0  0  0  0  0  0  0  0  0  0  0
    7.5840   -0.2700   18.5160 C   0  0  0  0  0  0  0  0  0  0  0  0
    9.1280   -1.2090   23.4870 C   0  0  0  0  0  0  0  0  0  0  0  0
   12.0469    0.0961   22.7270 C   0  0  0  0  0  0  0  0  0  0  0  0
    5.7970    0.9500   18.6730 C   0  0  0  0  0  0  0  0  0  0  0  0
    6.1460    0.6070   19.9750 C   0  0  0  0  0  0  0  0  0  0  0  0
    8.3450   -3.3440   25.0980 C   0  0  0  0  0  0  0  0  0  0  0  0
   14.4065   -0.2677   23.0968 C   0  0  0  0  0  0  0  0  0  0  0  0
    9.0430    0.2380   21.4940 C   0  0  0  0  0  0  0  0  0  0  0  0
    8.9526   -5.2008   26.6600 C   0  0  0  0  0  0  0  0  0  0  0  0
    6.6115   -4.5057   26.4392 C   0  0  0  0  0  0  0  0  0  0  0  0
    8.9053   -4.7827   28.1257 C   0  0  0  0  0  0  0  0  0  0  0  0
    6.6391   -4.1219   27.9194 C   0  0  0  0  0  0  0  0  0  0  0  0
   10.7220    0.6590   23.1850 C   0  0  0  0  0  0  0  0  0  0  0  0
    9.5820   -0.1080   22.7000 C   0  0  2  0  0  0  0  0  0  0  0  0
    6.7100    0.3850   17.8100 N   0  0  0  0  0  0  0  0  0  0  0  0
    7.2710   -0.1460   19.8310 N   0  0  0  0  0  0  0  0  0  0  0  0
    7.9774   -4.4013   25.9152 N   0  0  0  0  0  0  0  0  0  0  0  0
    8.0950   -0.7700   20.8440 N   0  0  0  0  0  0  0  0  0  0  0  0
    9.2950    1.3000   20.9480 O   0  0  0  0  0  0  0  0  0  0  0  0
    7.5748   -4.9364   28.6347 O   0  0  0  0  0  0  0  0  0  0  0  0
   15.8091   -0.0755   24.0753 Cl  0  0  0  0  0  0  0  0  0  0  0  0
    2.9844    2.6927   19.3613 H   0  0  0  0  0  0  0  0  0  0  0  0
    3.6214    2.0680   21.6561 H   0  0  0  0  0  0  0  0  0  0  0  0
   13.4243   -1.6221   20.1364 H   0  0  0  0  0  0  0  0  0  0  0  0
   11.2535   -0.7038   20.8839 H   0  0  0  0  0  0  0  0  0  0  0  0
   10.2684   -2.6719   22.3867 H   0  0  0  0  0  0  0  0  0  0  0  0
    7.8717   -0.0016   24.7596 H   0  0  0  0  0  0  0  0  0  0  0  0
    4.3780    2.0103   17.4276 H   0  0  0  0  0  0  0  0  0  0  0  0
    5.6758    0.7335   22.0897 H   0  0  0  0  0  0  0  0  0  0  0  0
    9.5443   -4.5616   23.7817 H   0  0  0  0  0  0  0  0  0  0  0  0
    7.1921   -1.8821   26.1908 H   0  0  0  0  0  0  0  0  0  0  0  0
   15.4403   -1.3515   21.5355 H   0  0  0  0  0  0  0  0  0  0  0  0
   13.1102    0.7775   24.4699 H   0  0  0  0  0  0  0  0  0  0  0  0
    8.4213   -0.8245   18.1548 H   0  0  0  0  0  0  0  0  0  0  0  0
    9.9614   -5.0503   26.2701 H   0  0  0  0  0  0  0  0  0  0  0  0
    8.6932   -6.2593   26.5731 H   0  0  0  0  0  0  0  0  0  0  0  0
    6.2625   -5.5339   26.3355 H   0  0  0  0  0  0  0  0  0  0  0  0
    5.9348   -3.8414   25.9036 H   0  0  0  0  0  0  0  0  0  0  0  0
    9.5615   -5.4255   28.7162 H   0  0  0  0  0  0  0  0  0  0  0  0
    9.2365   -3.7494   28.2620 H   0  0  0  0  0  0  0  0  0  0  0  0
    6.8895   -3.0633   28.0551 H   0  0  0  0  0  0  0  0  0  0  0  0
    5.6514   -4.2861   28.3610 H   0  0  0  0  0  0  0  0  0  0  0  0
   10.7288    0.6889   24.2835 H   0  0  0  0  0  0  0  0  0  0  0  0
   10.6393    1.7086   22.8728 H   0  0  0  0  0  0  0  0  0  0  0  0
    8.6955    0.7993   23.3793 H   0  0  0  0  0  0  0  0  0  0  0  0
    8.0815   -1.6117   21.0754 H   0  0  0  0  0  0  0  0  0  0  0  0
  1  2  1  0  0  0  0
  1  7  2  0  0  0  0
  2  8  2  0  0  0  0
  3  4  2  0  0  0  0
  3 11  1  0  0  0  0
  4 15  1  0  0  0  0
  5  9  2  0  0  0  0
  5 14  1  0  0  0  0
  6 10  1  0  0  0  0
  6 14  2  0  0  0  0
  7 16  1  0  0  0  0
  8 17  1  0  0  0  0
  9 18  1  0  0  0  0
 10 18  2  0  0  0  0
 11 19  2  0  0  0  0
 12 15  2  0  0  0  0
 12 19  1  0  0  0  0
 13 27  2  0  0  0  0
 13 28  1  0  0  0  0
 14 26  1  0  0  0  0
 15 25  1  0  0  0  0
 16 17  2  0  0  0  0
 16 27  1  0  0  0  0
 17 28  1  0  0  0  0
 18 29  1  0  0  0  0
 19 33  1  0  0  0  0
 20 26  1  6  0  0  0
 20 30  1  0  0  0  0
 20 31  2  0  0  0  0
 21 23  1  0  0  0  0
 21 29  1  0  0  0  0
 22 24  1  0  0  0  0
 22 29  1  0  0  0  0
 23 32  1  0  0  0  0
 24 32  1  0  0  0  0
 25 26  1  0  0  0  0
 28 30  1  0  0  0  0
  1 34  1  0  0  0  0
  2 35  1  0  0  0  0
  3 36  1  0  0  0  0
  4 37  1  0  0  0  0
  5 38  1  0  0  0  0
  6 39  1  0  0  0  0
  7 40  1  0  0  0  0
  8 41  1  0  0  0  0
  9 42  1  0  0  0  0
 10 43  1  0  0  0  0
 11 44  1  0  0  0  0
 12 45  1  0  0  0  0
 13 46  1  0  0  0  0
 21 47  1  0  0  0  0
 21 48  1  0  0  0  0
 22 49  1  0  0  0  0
 22 50  1  0  0  0  0
 23 51  1  0  0  0  0
 23 52  1  0  0  0  0
 24 53  1  0  0  0  0
 24 54  1  0  0  0  0
 25 55  1  0  0  0  0
 25 56  1  0  0  0  0
 26 57  1  0  0  0  0
 30 58  1  0  0  0  0
M  END
> <clash_score>
1.4596595483058121

> <docking_score>
-7.639831066131592

> <overlap_score>
0.958263099193573

$$$$
BENZO_229_1
  -OEChem-08222022453D

 55 58  0     1  0  0  0  0  0999 V2000
   14.4830   -0.9237   21.8249 C   0  0  0  0  0  0  0  0  0  0  0  0
    4.2460    1.7520   20.8250 C   0  0  0  0  0  0  0  0  0  0  0  0
   13.9310   -1.3719   23.0248 C   0  0  0  0  0  0  0  0  0  0  0  0
   13.8154    0.0379   21.0662 C   0  0  0  0  0  0  0  0  0  0  0  0
    3.8860    2.1050   19.5250 C   0  0  0  0  0  0  0  0  0  0  0  0
    5.3890    1.0010   21.0690 C   0  0  0  0  0  0  0  0  0  0  0  0
   12.7114   -0.8588   23.4661 C   0  0  0  0  0  0  0  0  0  0  0  0
   12.5958    0.5510   21.5075 C   0  0  0  0  0  0  0  0  0  0  0  0
    9.5890   -2.4950   23.2210 C   0  0  0  0  0  0  0  0  0  0  0  0
    8.2550   -1.0010   24.5520 C   0  0  0  0  0  0  0  0  0  0  0  0
    4.6610    1.7170   18.4380 C   0  0  0  0  0  0  0  0  0  0  0  0
    9.1890   -3.5540   24.0140 C   0  0  0  0  0  0  0  0  0  0  0  0
    7.8700   -2.0610   25.3550 C   0  0  0  0  0  0  0  0  0  0  0  0
    6.1460    0.6070   19.9750 C   0  0  0  0  0  0  0  0  0  0  0  0
   12.0437    0.1027   22.7075 C   0  0  0  0  0  0  0  0  0  0  0  0
    9.1280   -1.2090   23.4870 C   0  0  0  0  0  0  0  0  0  0  0  0
    5.7970    0.9500   18.6730 C   0  0  0  0  0  0  0  0  0  0  0  0
    8.3450   -3.3440   25.0980 C   0  0  0  0  0  0  0  0  0  0  0  0
    7.2710   -0.1460   19.8310 C   0  0  0  0  0  0  0  0  0  0  0  0
    8.2015   -4.5555   27.2978 C   0  0  0  0  0  0  0  0  0  0  0  0
    9.0430    0.2380   21.4940 C   0  0  0  0  0  0  0  0  0  0  0  0
    7.8874   -6.0860   29.2889 C   0  0  0  0  0  0  0  0  0  0  0  0
   10.7220    0.6590   23.1850 C   0  0  0  0  0  0  0  0  0  0  0  0
    7.6339   -5.8719   27.8075 C   0  0  0  0  0  0  0  0  0  0  0  0
    9.5820   -0.1080   22.7000 C   0  0  1  0  0  0  0  0  0  0  0  0
    7.5840   -0.2700   18.5160 N   0  0  0  0  0  0  0  0  0  0  0  0
    6.7100    0.3850   17.8100 N   0  0  0  0  0  0  0  0  0  0  0  0
    7.9771   -4.4057   25.9197 N   0  0  0  0  0  0  0  0  0  0  0  0
    8.0950   -0.7700   20.8440 N   0  0  0  0  0  0  0  0  0  0  0  0
    8.7725   -3.7627   28.0395 O   0  0  0  0  0  0  0  0  0  0  0  0
    9.2950    1.3000   20.9480 O   0  0  0  0  0  0  0  0  0  0  0  0
   15.4334   -1.3223   21.4820 H   0  0  0  0  0  0  0  0  0  0  0  0
    3.6223    2.0725   21.6574 H   0  0  0  0  0  0  0  0  0  0  0  0
   14.4512   -2.1198   23.6162 H   0  0  0  0  0  0  0  0  0  0  0  0
   14.2455    0.3879   20.1325 H   0  0  0  0  0  0  0  0  0  0  0  0
    2.9864    2.6933   19.3609 H   0  0  0  0  0  0  0  0  0  0  0  0
    5.6689    0.7392   22.0836 H   0  0  0  0  0  0  0  0  0  0  0  0
   12.2887   -1.2141   24.4023 H   0  0  0  0  0  0  0  0  0  0  0  0
   12.0827    1.2998   20.9098 H   0  0  0  0  0  0  0  0  0  0  0  0
   10.2695   -2.6718   22.3873 H   0  0  0  0  0  0  0  0  0  0  0  0
    7.8712   -0.0014   24.7587 H   0  0  0  0  0  0  0  0  0  0  0  0
    4.3807    2.0116   17.4186 H   0  0  0  0  0  0  0  0  0  0  0  0
    9.5431   -4.5618   23.7801 H   0  0  0  0  0  0  0  0  0  0  0  0
    7.1923   -1.8823   26.1912 H   0  0  0  0  0  0  0  0  0  0  0  0
    8.9600   -6.0803   29.5092 H   0  0  0  0  0  0  0  0  0  0  0  0
    7.4774   -7.0483   29.6105 H   0  0  0  0  0  0  0  0  0  0  0  0
    7.4179   -5.2974   29.8861 H   0  0  0  0  0  0  0  0  0  0  0  0
   10.7266    0.7141   24.2815 H   0  0  0  0  0  0  0  0  0  0  0  0
   10.6502    1.7003   22.8412 H   0  0  0  0  0  0  0  0  0  0  0  0
    6.5547   -5.8822   27.6162 H   0  0  0  0  0  0  0  0  0  0  0  0
    8.0877   -6.6903   27.2368 H   0  0  0  0  0  0  0  0  0  0  0  0
    8.7027    0.7972   23.4026 H   0  0  0  0  0  0  0  0  0  0  0  0
    6.7486    0.4313   16.8331 H   0  0  0  0  0  0  0  0  0  0  0  0
    7.4775   -5.1799   25.4668 H   0  0  0  0  0  0  0  0  0  0  0  0
    8.0757   -1.6162   21.0774 H   0  0  0  0  0  0  0  0  0  0  0  0
  1  3  1  0  0  0  0
  1  4  2  0  0  0  0
  2  5  1  0  0  0  0
  2  6  2  0  0  0  0
  3  7  2  0  0  0  0
  4  8  1  0  0  0  0
  5 11  2  0  0  0  0
  6 14  1  0  0  0  0
  7 15  1  0  0  0  0
  8 15  2  0  0  0  0
  9 12  2  0  0  0  0
  9 16  1  0  0  0  0
 10 13  1  0  0  0  0
 10 16  2  0  0  0  0
 11 17  1  0  0  0  0
 12 18  1  0  0  0  0
 13 18  2  0  0  0  0
 14 17  2  0  0  0  0
 14 19  1  0  0  0  0
 15 23  1  0  0  0  0
 16 25  1  0  0  0  0
 17 27  1  0  0  0  0
 18 28  1  0  0  0  0
 19 26  2  0  0  0  0
 19 29  1  0  0  0  0
 20 24  1  0  0  0  0
 20 28  1  0  0  0  0
 20 30  2  0  0  0  0
 21 25  1  0  0  0  0
 21 29  1  0  0  0  0
 21 31  2  0  0  0  0
 22 24  1  0  0  0  0
 23 25  1  1  0  0  0
 26 27  1  0  0  0  0
  1 32  1  0  0  0  0
  2 33  1  0  0  0  0
  3 34  1  0  0  0  0
  4 35  1  0  0  0  0
  5 36  1  0  0  0  0
  6 37  1  0  0  0  0
  7 38  1  0  0  0  0
  8 39  1  0  0  0  0
  9 40  1  0  0  0  0
 10 41  1  0  0  0  0
 11 42  1  0  0  0  0
 12 43  1  0  0  0  0
 13 44  1  0  0  0  0
 22 45  1  0  0  0  0
 22 46  1  0  0  0  0
 22 47  1  0  0  0  0
 23 48  1  0  0  0  0
 23 49  1  0  0  0  0
 24 50  1  0  0  0  0
 24 51  1  0  0  0  0
 25 52  1  0  0  0  0
 27 53  1  0  0  0  0
 28 54  1  0  0  0  0
 29 55  1  0  0  0  0
M  END
> <clash_score>
0

> <docking_score>
-6.512749671936035

> <overlap_score>
0.9700967073440552

$$$$
BENZO_227_2
  -OEChem-08222022453D

 53 56  0     1  0  0  0  0  0999 V2000
    4.2460    1.7520   20.8250 C   0  0  0  0  0  0  0  0  0  0  0  0
    3.8860    2.1050   19.5250 C   0  0  0  0  0  0  0  0  0  0  0  0
    5.3890    1.0010   21.0690 C   0  0  0  0  0  0  0  0  0  0  0  0
    9.5890   -2.4950   23.2210 C   0  0  0  0  0  0  0  0  0  0  0  0
    8.2550   -1.0010   24.5520 C   0  0  0  0  0  0  0  0  0  0  0  0
    4.6610    1.7170   18.4380 C   0  0  0  0  0  0  0  0  0  0  0  0
    9.1890   -3.5540   24.0140 C   0  0  0  0  0  0  0  0  0  0  0  0
    7.8700   -2.0610   25.3550 C   0  0  0  0  0  0  0  0  0  0  0  0
   12.1294   -0.7684   24.8759 C   0  0  0  0  0  0  0  0  0  0  0  0
   12.9208   -0.6622   22.8272 C   0  0  0  0  0  0  0  0  0  0  0  0
    6.1460    0.6070   19.9750 C   0  0  0  0  0  0  0  0  0  0  0  0
    9.1280   -1.2090   23.4870 C   0  0  0  0  0  0  0  0  0  0  0  0
   11.8786   -0.2190   23.6043 C   0  0  0  0  0  0  0  0  0  0  0  0
    5.7970    0.9500   18.6730 C   0  0  0  0  0  0  0  0  0  0  0  0
    8.3450   -3.3440   25.0980 C   0  0  0  0  0  0  0  0  0  0  0  0
    7.2710   -0.1460   19.8310 C   0  0  0  0  0  0  0  0  0  0  0  0
    9.0430    0.2380   21.4940 C   0  0  0  0  0  0  0  0  0  0  0  0
   14.9196   -2.1033   23.2819 C   0  0  0  0  0  0  0  0  0  0  0  0
    7.2615   -5.5561   25.3801 C   0  0  0  0  0  0  0  0  0  0  0  0
    8.3043   -4.4048   27.3385 C   0  0  0  0  0  0  0  0  0  0  0  0
   10.7220    0.6590   23.1850 C   0  0  0  0  0  0  0  0  0  0  0  0
    9.5820   -0.1080   22.7000 C   0  0  2  0  0  0  0  0  0  0  0  0
   13.2434   -1.5045   24.9090 N   0  0  0  0  0  0  0  0  0  0  0  0
    7.5840   -0.2700   18.5160 N   0  0  0  0  0  0  0  0  0  0  0  0
    6.7100    0.3850   17.8100 N   0  0  0  0  0  0  0  0  0  0  0  0
   13.7019   -1.4208   23.6485 N   0  0  0  0  0  0  0  0  0  0  0  0
    8.0950   -0.7700   20.8440 N   0  0  0  0  0  0  0  0  0  0  0  0
    7.9717   -4.4175   25.9277 N   0  0  0  0  0  0  0  0  0  0  0  0
    9.2950    1.3000   20.9480 O   0  0  0  0  0  0  0  0  0  0  0  0
    3.6223    2.0725   21.6574 H   0  0  0  0  0  0  0  0  0  0  0  0
    2.9864    2.6933   19.3609 H   0  0  0  0  0  0  0  0  0  0  0  0
    5.6689    0.7392   22.0836 H   0  0  0  0  0  0  0  0  0  0  0  0
   10.2684   -2.6719   22.3867 H   0  0  0  0  0  0  0  0  0  0  0  0
    7.8717   -0.0016   24.7596 H   0  0  0  0  0  0  0  0  0  0  0  0
    4.3807    2.0116   17.4186 H   0  0  0  0  0  0  0  0  0  0  0  0
    9.5443   -4.5616   23.7817 H   0  0  0  0  0  0  0  0  0  0  0  0
    7.1921   -1.8821   26.1908 H   0  0  0  0  0  0  0  0  0  0  0  0
   11.5479   -0.6652   25.7811 H   0  0  0  0  0  0  0  0  0  0  0  0
   13.1664   -0.5073   21.7853 H   0  0  0  0  0  0  0  0  0  0  0  0
   15.7545   -1.4186   23.4527 H   0  0  0  0  0  0  0  0  0  0  0  0
   15.0313   -3.0027   23.8939 H   0  0  0  0  0  0  0  0  0  0  0  0
   14.8693   -2.3913   22.2281 H   0  0  0  0  0  0  0  0  0  0  0  0
    7.0605   -6.2832   26.1807 H   0  0  0  0  0  0  0  0  0  0  0  0
    6.3097   -5.2191   24.9437 H   0  0  0  0  0  0  0  0  0  0  0  0
    7.8751   -6.0303   24.6000 H   0  0  0  0  0  0  0  0  0  0  0  0
    7.9293   -5.3239   27.8125 H   0  0  0  0  0  0  0  0  0  0  0  0
    9.3965   -4.3505   27.4572 H   0  0  0  0  0  0  0  0  0  0  0  0
    7.8395   -3.5300   27.8168 H   0  0  0  0  0  0  0  0  0  0  0  0
   10.4369    1.3080   24.0233 H   0  0  0  0  0  0  0  0  0  0  0  0
   11.0815    1.3384   22.3997 H   0  0  0  0  0  0  0  0  0  0  0  0
   10.5413   -0.9955   22.0233 H   0  0  0  0  0  0  0  0  0  0  0  0
    6.7486    0.4313   16.8331 H   0  0  0  0  0  0  0  0  0  0  0  0
    8.0757   -1.6162   21.0774 H   0  0  0  0  0  0  0  0  0  0  0  0
  1  2  1  0  0  0  0
  1  3  2  0  0  0  0
  2  6  2  0  0  0  0
  3 11  1  0  0  0  0
  4  7  2  0  0  0  0
  4 12  1  0  0  0  0
  5  8  1  0  0  0  0
  5 12  2  0  0  0  0
  6 14  1  0  0  0  0
  7 15  1  0  0  0  0
  8 15  2  0  0  0  0
  9 13  1  0  0  0  0
  9 23  2  0  0  0  0
 10 13  2  0  0  0  0
 10 26  1  0  0  0  0
 11 14  2  0  0  0  0
 11 16  1  0  0  0  0
 12 22  1  0  0  0  0
 13 21  1  0  0  0  0
 14 25  1  0  0  0  0
 15 28  1  0  0  0  0
 16 24  2  0  0  0  0
 16 27  1  0  0  0  0
 17 22  1  0  0  0  0
 17 27  1  0  0  0  0
 17 29  2  0  0  0  0
 18 26  1  0  0  0  0
 19 28  1  0  0  0  0
 20 28  1  0  0  0  0
 21 22  1  6  0  0  0
 23 26  1  0  0  0  0
 24 25  1  0  0  0  0
  1 30  1  0  0  0  0
  2 31  1  0  0  0  0
  3 32  1  0  0  0  0
  4 33  1  0  0  0  0
  5 34  1  0  0  0  0
  6 35  1  0  0  0  0
  7 36  1  0  0  0  0
  8 37  1  0  0  0  0
  9 38  1  0  0  0  0
 10 39  1  0  0  0  0
 18 40  1  0  0  0  0
 18 41  1  0  0  0  0
 18 42  1  0  0  0  0
 19 43  1  0  0  0  0
 19 44  1  0  0  0  0
 19 45  1  0  0  0  0
 20 46  1  0  0  0  0
 20 47  1  0  0  0  0
 20 48  1  0  0  0  0
 21 49  1  0  0  0  0
 21 50  1  0  0  0  0
 22 51  1  0  0  0  0
 25 52  1  0  0  0  0
 27 53  1  0  0  0  0
M  END
> <clash_score>
0

> <docking_score>
-6.151267051696777

> <overlap_score>
0.929613471031189

$$$$
BENZO_227_1
  -OEChem-08222022453D

 53 56  0     1  0  0  0  0  0999 V2000
    4.2460    1.7520   20.8250 C   0  0  0  0  0  0  0  0  0  0  0  0
    3.8860    2.1050   19.5250 C   0  0  0  0  0  0  0  0  0  0  0  0
    5.3890    1.0010   21.0690 C   0  0  0  0  0  0  0  0  0  0  0  0
    9.5890   -2.4950   23.2210 C   0  0  0  0  0  0  0  0  0  0  0  0
    8.2550   -1.0010   24.5520 C   0  0  0  0  0  0  0  0  0  0  0  0
    4.6610    1.7170   18.4380 C   0  0  0  0  0  0  0  0  0  0  0  0
    9.1890   -3.5540   24.0140 C   0  0  0  0  0  0  0  0  0  0  0  0
    7.8700   -2.0610   25.3550 C   0  0  0  0  0  0  0  0  0  0  0  0
   13.2896    0.1553   23.3608 C   0  0  0  0  0  0  0  0  0  0  0  0
   12.2975   -0.5709   21.5378 C   0  0  0  0  0  0  0  0  0  0  0  0
    6.1460    0.6070   19.9750 C   0  0  0  0  0  0  0  0  0  0  0  0
    9.1280   -1.2090   23.4870 C   0  0  0  0  0  0  0  0  0  0  0  0
   12.0437    0.1027   22.7075 C   0  0  0  0  0  0  0  0  0  0  0  0
    5.7970    0.9500   18.6730 C   0  0  0  0  0  0  0  0  0  0  0  0
    8.3450   -3.3440   25.0980 C   0  0  0  0  0  0  0  0  0  0  0  0
    7.2710   -0.1460   19.8310 C   0  0  0  0  0  0  0  0  0  0  0  0
    9.0430    0.2380   21.4940 C   0  0  0  0  0  0  0  0  0  0  0  0
   14.3645   -1.5772   20.5410 C   0  0  0  0  0  0  0  0  0  0  0  0
    7.2615   -5.5561   25.3801 C   0  0  0  0  0  0  0  0  0  0  0  0
    8.3043   -4.4048   27.3385 C   0  0  0  0  0  0  0  0  0  0  0  0
   10.7220    0.6590   23.1850 C   0  0  0  0  0  0  0  0  0  0  0  0
    9.5820   -0.1080   22.7000 C   0  0  1  0  0  0  0  0  0  0  0  0
   14.2626   -0.4379   22.6640 N   0  0  0  0  0  0  0  0  0  0  0  0
    7.5840   -0.2700   18.5160 N   0  0  0  0  0  0  0  0  0  0  0  0
    6.7100    0.3850   17.8100 N   0  0  0  0  0  0  0  0  0  0  0  0
   13.6281   -0.8696   21.5608 N   0  0  0  0  0  0  0  0  0  0  0  0
    8.0950   -0.7700   20.8440 N   0  0  0  0  0  0  0  0  0  0  0  0
    7.9717   -4.4175   25.9277 N   0  0  0  0  0  0  0  0  0  0  0  0
    9.2950    1.3000   20.9480 O   0  0  0  0  0  0  0  0  0  0  0  0
    3.6223    2.0725   21.6574 H   0  0  0  0  0  0  0  0  0  0  0  0
    2.9864    2.6933   19.3609 H   0  0  0  0  0  0  0  0  0  0  0  0
    5.6689    0.7392   22.0836 H   0  0  0  0  0  0  0  0  0  0  0  0
   10.2684   -2.6719   22.3867 H   0  0  0  0  0  0  0  0  0  0  0  0
    7.8717   -0.0016   24.7596 H   0  0  0  0  0  0  0  0  0  0  0  0
    4.3807    2.0116   17.4186 H   0  0  0  0  0  0  0  0  0  0  0  0
    9.5443   -4.5616   23.7817 H   0  0  0  0  0  0  0  0  0  0  0  0
    7.1921   -1.8821   26.1908 H   0  0  0  0  0  0  0  0  0  0  0  0
   13.5314    0.5997   24.3159 H   0  0  0  0  0  0  0  0  0  0  0  0
   11.6602   -0.8572   20.7121 H   0  0  0  0  0  0  0  0  0  0  0  0
   14.7472   -0.8411   19.8291 H   0  0  0  0  0  0  0  0  0  0  0  0
   15.1893   -2.1271   21.0028 H   0  0  0  0  0  0  0  0  0  0  0  0
   13.6985   -2.2851   20.0398 H   0  0  0  0  0  0  0  0  0  0  0  0
    7.0605   -6.2832   26.1807 H   0  0  0  0  0  0  0  0  0  0  0  0
    6.3097   -5.2191   24.9437 H   0  0  0  0  0  0  0  0  0  0  0  0
    7.8751   -6.0303   24.6000 H   0  0  0  0  0  0  0  0  0  0  0  0
    7.9293   -5.3239   27.8125 H   0  0  0  0  0  0  0  0  0  0  0  0
    9.3965   -4.3505   27.4572 H   0  0  0  0  0  0  0  0  0  0  0  0
    7.8395   -3.5300   27.8168 H   0  0  0  0  0  0  0  0  0  0  0  0
   10.7266    0.7141   24.2815 H   0  0  0  0  0  0  0  0  0  0  0  0
   10.6502    1.7003   22.8412 H   0  0  0  0  0  0  0  0  0  0  0  0
    8.7027    0.7972   23.4026 H   0  0  0  0  0  0  0  0  0  0  0  0
    6.7486    0.4313   16.8331 H   0  0  0  0  0  0  0  0  0  0  0  0
    8.0757   -1.6162   21.0774 H   0  0  0  0  0  0  0  0  0  0  0  0
  1  2  1  0  0  0  0
  1  3  2  0  0  0  0
  2  6  2  0  0  0  0
  3 11  1  0  0  0  0
  4  7  2  0  0  0  0
  4 12  1  0  0  0  0
  5  8  1  0  0  0  0
  5 12  2  0  0  0  0
  6 14  1  0  0  0  0
  7 15  1  0  0  0  0
  8 15  2  0  0  0  0
  9 13  1  0  0  0  0
  9 23  2  0  0  0  0
 10 13  2  0  0  0  0
 10 26  1  0  0  0  0
 11 14  2  0  0  0  0
 11 16  1  0  0  0  0
 12 22  1  0  0  0  0
 13 21  1  0  0  0  0
 14 25  1  0  0  0  0
 15 28  1  0  0  0  0
 16 24  2  0  0  0  0
 16 27  1  0  0  0  0
 17 22  1  0  0  0  0
 17 27  1  0  0  0  0
 17 29  2  0  0  0  0
 18 26  1  0  0  0  0
 19 28  1  0  0  0  0
 20 28  1  0  0  0  0
 21 22  1  1  0  0  0
 23 26  1  0  0  0  0
 24 25  1  0  0  0  0
  1 30  1  0  0  0  0
  2 31  1  0  0  0  0
  3 32  1  0  0  0  0
  4 33  1  0  0  0  0
  5 34  1  0  0  0  0
  6 35  1  0  0  0  0
  7 36  1  0  0  0  0
  8 37  1  0  0  0  0
  9 38  1  0  0  0  0
 10 39  1  0  0  0  0
 18 40  1  0  0  0  0
 18 41  1  0  0  0  0
 18 42  1  0  0  0  0
 19 43  1  0  0  0  0
 19 44  1  0  0  0  0
 19 45  1  0  0  0  0
 20 46  1  0  0  0  0
 20 47  1  0  0  0  0
 20 48  1  0  0  0  0
 21 49  1  0  0  0  0
 21 50  1  0  0  0  0
 22 51  1  0  0  0  0
 25 52  1  0  0  0  0
 27 53  1  0  0  0  0
M  END
> <clash_score>
0

> <docking_score>
-7.62624454498291

> <overlap_score>
0.9069581031799316

$$$$
BENZO_229_2
  -OEChem-08222022453D

 55 58  0     1  0  0  0  0  0999 V2000
   14.0137   -1.8398   24.3768 C   0  0  0  0  0  0  0  0  0  0  0  0
    4.2460    1.7520   20.8250 C   0  0  0  0  0  0  0  0  0  0  0  0
   13.0361   -1.4844   25.3061 C   0  0  0  0  0  0  0  0  0  0  0  0
   13.9239   -1.3848   23.0613 C   0  0  0  0  0  0  0  0  0  0  0  0
    3.8860    2.1050   19.5250 C   0  0  0  0  0  0  0  0  0  0  0  0
    5.3890    1.0010   21.0690 C   0  0  0  0  0  0  0  0  0  0  0  0
   11.9686   -0.6740   24.9198 C   0  0  0  0  0  0  0  0  0  0  0  0
   12.8563   -0.5744   22.6750 C   0  0  0  0  0  0  0  0  0  0  0  0
    9.5890   -2.4950   23.2210 C   0  0  0  0  0  0  0  0  0  0  0  0
    8.2550   -1.0010   24.5520 C   0  0  0  0  0  0  0  0  0  0  0  0
    4.6610    1.7170   18.4380 C   0  0  0  0  0  0  0  0  0  0  0  0
    9.1890   -3.5540   24.0140 C   0  0  0  0  0  0  0  0  0  0  0  0
    7.8700   -2.0610   25.3550 C   0  0  0  0  0  0  0  0  0  0  0  0
    6.1460    0.6070   19.9750 C   0  0  0  0  0  0  0  0  0  0  0  0
   11.8786   -0.2190   23.6043 C   0  0  0  0  0  0  0  0  0  0  0  0
    9.1280   -1.2090   23.4870 C   0  0  0  0  0  0  0  0  0  0  0  0
    5.7970    0.9500   18.6730 C   0  0  0  0  0  0  0  0  0  0  0  0
    8.3450   -3.3440   25.0980 C   0  0  0  0  0  0  0  0  0  0  0  0
    7.2710   -0.1460   19.8310 C   0  0  0  0  0  0  0  0  0  0  0  0
    7.6593   -4.3758   27.2873 C   0  0  0  0  0  0  0  0  0  0  0  0
    9.0430    0.2380   21.4940 C   0  0  0  0  0  0  0  0  0  0  0  0
    8.4365   -6.7636   27.6037 C   0  0  0  0  0  0  0  0  0  0  0  0
   10.7220    0.6590   23.1850 C   0  0  0  0  0  0  0  0  0  0  0  0
    7.3104   -5.7647   27.8012 C   0  0  0  0  0  0  0  0  0  0  0  0
    9.5820   -0.1080   22.7000 C   0  0  2  0  0  0  0  0  0  0  0  0
    7.5840   -0.2700   18.5160 N   0  0  0  0  0  0  0  0  0  0  0  0
    6.7100    0.3850   17.8100 N   0  0  0  0  0  0  0  0  0  0  0  0
    7.9771   -4.4057   25.9197 N   0  0  0  0  0  0  0  0  0  0  0  0
    8.0950   -0.7700   20.8440 N   0  0  0  0  0  0  0  0  0  0  0  0
    7.6483   -3.3902   28.0174 O   0  0  0  0  0  0  0  0  0  0  0  0
    9.2950    1.3000   20.9480 O   0  0  0  0  0  0  0  0  0  0  0  0
   14.8456   -2.4698   24.6781 H   0  0  0  0  0  0  0  0  0  0  0  0
    3.6223    2.0725   21.6574 H   0  0  0  0  0  0  0  0  0  0  0  0
   13.1065   -1.8377   26.3307 H   0  0  0  0  0  0  0  0  0  0  0  0
   14.6854   -1.6605   22.3378 H   0  0  0  0  0  0  0  0  0  0  0  0
    2.9864    2.6933   19.3609 H   0  0  0  0  0  0  0  0  0  0  0  0
    5.6689    0.7392   22.0836 H   0  0  0  0  0  0  0  0  0  0  0  0
   11.2114   -0.4022   25.6506 H   0  0  0  0  0  0  0  0  0  0  0  0
   12.7944   -0.2247   21.6479 H   0  0  0  0  0  0  0  0  0  0  0  0
   10.2695   -2.6718   22.3873 H   0  0  0  0  0  0  0  0  0  0  0  0
    7.8712   -0.0014   24.7587 H   0  0  0  0  0  0  0  0  0  0  0  0
    4.3807    2.0116   17.4186 H   0  0  0  0  0  0  0  0  0  0  0  0
    9.5431   -4.5618   23.7801 H   0  0  0  0  0  0  0  0  0  0  0  0
    7.1923   -1.8823   26.1912 H   0  0  0  0  0  0  0  0  0  0  0  0
    8.6970   -6.8581   26.5443 H   0  0  0  0  0  0  0  0  0  0  0  0
    8.1395   -7.7503   27.9721 H   0  0  0  0  0  0  0  0  0  0  0  0
    9.3366   -6.4533   28.1444 H   0  0  0  0  0  0  0  0  0  0  0  0
   10.4369    1.3080   24.0233 H   0  0  0  0  0  0  0  0  0  0  0  0
   11.0815    1.3384   22.3997 H   0  0  0  0  0  0  0  0  0  0  0  0
    7.0709   -5.6903   28.8682 H   0  0  0  0  0  0  0  0  0  0  0  0
    6.4146   -6.1149   27.2756 H   0  0  0  0  0  0  0  0  0  0  0  0
   10.5413   -0.9955   22.0233 H   0  0  0  0  0  0  0  0  0  0  0  0
    6.7486    0.4313   16.8331 H   0  0  0  0  0  0  0  0  0  0  0  0
    7.9295   -5.3300   25.4752 H   0  0  0  0  0  0  0  0  0  0  0  0
    8.0757   -1.6162   21.0774 H   0  0  0  0  0  0  0  0  0  0  0  0
  1  3  1  0  0  0  0
  1  4  2  0  0  0  0
  2  5  1  0  0  0  0
  2  6  2  0  0  0  0
  3  7  2  0  0  0  0
  4  8  1  0  0  0  0
  5 11  2  0  0  0  0
  6 14  1  0  0  0  0
  7 15  1  0  0  0  0
  8 15  2  0  0  0  0
  9 12  2  0  0  0  0
  9 16  1  0  0  0  0
 10 13  1  0  0  0  0
 10 16  2  0  0  0  0
 11 17  1  0  0  0  0
 12 18  1  0  0  0  0
 13 18  2  0  0  0  0
 14 17  2  0  0  0  0
 14 19  1  0  0  0  0
 15 23  1  0  0  0  0
 16 25  1  0  0  0  0
 17 27  1  0  0  0  0
 18 28  1  0  0  0  0
 19 26  2  0  0  0  0
 19 29  1  0  0  0  0
 20 24  1  0  0  0  0
 20 28  1  0  0  0  0
 20 30  2  0  0  0  0
 21 25  1  0  0  0  0
 21 29  1  0  0  0  0
 21 31  2  0  0  0  0
 22 24  1  0  0  0  0
 23 25  1  6  0  0  0
 26 27  1  0  0  0  0
  1 32  1  0  0  0  0
  2 33  1  0  0  0  0
  3 34  1  0  0  0  0
  4 35  1  0  0  0  0
  5 36  1  0  0  0  0
  6 37  1  0  0  0  0
  7 38  1  0  0  0  0
  8 39  1  0  0  0  0
  9 40  1  0  0  0  0
 10 41  1  0  0  0  0
 11 42  1  0  0  0  0
 12 43  1  0  0  0  0
 13 44  1  0  0  0  0
 22 45  1  0  0  0  0
 22 46  1  0  0  0  0
 22 47  1  0  0  0  0
 23 48  1  0  0  0  0
 23 49  1  0  0  0  0
 24 50  1  0  0  0  0
 24 51  1  0  0  0  0
 25 52  1  0  0  0  0
 27 53  1  0  0  0  0
 28 54  1  0  0  0  0
 29 55  1  0  0  0  0
M  END
> <clash_score>
0

> <docking_score>
-6.8489861488342285

> <overlap_score>
0.9671415090560913

$$$$
BENZO_226_1
  -OEChem-08222022453D

 53 56  0     1  0  0  0  0  0999 V2000
    4.2460    1.7520   20.8250 C   0  0  0  0  0  0  0  0  0  0  0  0
    3.8860    2.1050   19.5250 C   0  0  0  0  0  0  0  0  0  0  0  0
   13.8165    0.0398   21.0674 C   0  0  0  0  0  0  0  0  0  0  0  0
    5.3890    1.0010   21.0690 C   0  0  0  0  0  0  0  0  0  0  0  0
   12.5963    0.5519   21.5081 C   0  0  0  0  0  0  0  0  0  0  0  0
    9.5890   -2.4950   23.2210 C   0  0  0  0  0  0  0  0  0  0  0  0
    8.2550   -1.0010   24.5520 C   0  0  0  0  0  0  0  0  0  0  0  0
    4.6610    1.7170   18.4380 C   0  0  0  0  0  0  0  0  0  0  0  0
    9.1890   -3.5540   24.0140 C   0  0  0  0  0  0  0  0  0  0  0  0
    7.8700   -2.0610   25.3550 C   0  0  0  0  0  0  0  0  0  0  0  0
   14.4843   -0.9216   21.8261 C   0  0  0  0  0  0  0  0  0  0  0  0
   12.7115   -0.8586   23.4663 C   0  0  0  0  0  0  0  0  0  0  0  0
    6.1460    0.6070   19.9750 C   0  0  0  0  0  0  0  0  0  0  0  0
    9.1280   -1.2090   23.4870 C   0  0  0  0  0  0  0  0  0  0  0  0
   12.0437    0.1027   22.7075 C   0  0  0  0  0  0  0  0  0  0  0  0
    5.7970    0.9500   18.6730 C   0  0  0  0  0  0  0  0  0  0  0  0
    8.3450   -3.3440   25.0980 C   0  0  0  0  0  0  0  0  0  0  0  0
   13.9318   -1.3708   23.0255 C   0  0  0  0  0  0  0  0  0  0  0  0
    7.2710   -0.1460   19.8310 C   0  0  0  0  0  0  0  0  0  0  0  0
    9.0430    0.2380   21.4940 C   0  0  0  0  0  0  0  0  0  0  0  0
    7.2615   -5.5561   25.3801 C   0  0  0  0  0  0  0  0  0  0  0  0
    8.3043   -4.4048   27.3385 C   0  0  0  0  0  0  0  0  0  0  0  0
   10.7220    0.6590   23.1850 C   0  0  0  0  0  0  0  0  0  0  0  0
    9.5820   -0.1080   22.7000 C   0  0  1  0  0  0  0  0  0  0  0  0
    7.5840   -0.2700   18.5160 N   0  0  0  0  0  0  0  0  0  0  0  0
    6.7100    0.3850   17.8100 N   0  0  0  0  0  0  0  0  0  0  0  0
    8.0950   -0.7700   20.8440 N   0  0  0  0  0  0  0  0  0  0  0  0
    7.9717   -4.4175   25.9277 N   0  0  0  0  0  0  0  0  0  0  0  0
    9.2950    1.3000   20.9480 O   0  0  0  0  0  0  0  0  0  0  0  0
   14.7567   -2.5560   23.9617 Cl  0  0  0  0  0  0  0  0  0  0  0  0
    3.6223    2.0725   21.6574 H   0  0  0  0  0  0  0  0  0  0  0  0
    2.9864    2.6933   19.3609 H   0  0  0  0  0  0  0  0  0  0  0  0
   14.2465    0.3899   20.1334 H   0  0  0  0  0  0  0  0  0  0  0  0
    5.6689    0.7392   22.0836 H   0  0  0  0  0  0  0  0  0  0  0  0
   12.0830    1.3007   20.9105 H   0  0  0  0  0  0  0  0  0  0  0  0
   10.2684   -2.6719   22.3867 H   0  0  0  0  0  0  0  0  0  0  0  0
    7.8717   -0.0016   24.7596 H   0  0  0  0  0  0  0  0  0  0  0  0
    4.3807    2.0116   17.4186 H   0  0  0  0  0  0  0  0  0  0  0  0
    9.5443   -4.5616   23.7817 H   0  0  0  0  0  0  0  0  0  0  0  0
    7.1921   -1.8821   26.1908 H   0  0  0  0  0  0  0  0  0  0  0  0
   15.4348   -1.3117   21.4704 H   0  0  0  0  0  0  0  0  0  0  0  0
   12.2763   -1.2059   24.4005 H   0  0  0  0  0  0  0  0  0  0  0  0
    7.0605   -6.2832   26.1807 H   0  0  0  0  0  0  0  0  0  0  0  0
    6.3097   -5.2191   24.9437 H   0  0  0  0  0  0  0  0  0  0  0  0
    7.8751   -6.0303   24.6000 H   0  0  0  0  0  0  0  0  0  0  0  0
    7.9293   -5.3239   27.8125 H   0  0  0  0  0  0  0  0  0  0  0  0
    9.3965   -4.3505   27.4572 H   0  0  0  0  0  0  0  0  0  0  0  0
    7.8395   -3.5300   27.8168 H   0  0  0  0  0  0  0  0  0  0  0  0
   10.7266    0.7141   24.2815 H   0  0  0  0  0  0  0  0  0  0  0  0
   10.6502    1.7003   22.8412 H   0  0  0  0  0  0  0  0  0  0  0  0
    8.7027    0.7972   23.4026 H   0  0  0  0  0  0  0  0  0  0  0  0
    6.7486    0.4313   16.8331 H   0  0  0  0  0  0  0  0  0  0  0  0
    8.0757   -1.6162   21.0774 H   0  0  0  0  0  0  0  0  0  0  0  0
  1  2  1  0  0  0  0
  1  4  2  0  0  0  0
  2  8  2  0  0  0  0
  3  5  2  0  0  0  0
  3 11  1  0  0  0  0
  4 13  1  0  0  0  0
  5 15  1  0  0  0  0
  6  9  2  0  0  0  0
  6 14  1  0  0  0  0
  7 10  1  0  0  0  0
  7 14  2  0  0  0  0
  8 16  1  0  0  0  0
  9 17  1  0  0  0  0
 10 17  2  0  0  0  0
 11 18  2  0  0  0  0
 12 15  2  0  0  0  0
 12 18  1  0  0  0  0
 13 16  2  0  0  0  0
 13 19  1  0  0  0  0
 14 24  1  0  0  0  0
 15 23  1  0  0  0  0
 16 26  1  0  0  0  0
 17 28  1  0  0  0  0
 18 30  1  0  0  0  0
 19 25  2  0  0  0  0
 19 27  1  0  0  0  0
 20 24  1  0  0  0  0
 20 27  1  0  0  0  0
 20 29  2  0  0  0  0
 21 28  1  0  0  0  0
 22 28  1  0  0  0  0
 23 24  1  1  0  0  0
 25 26  1  0  0  0  0
  1 31  1  0  0  0  0
  2 32  1  0  0  0  0
  3 33  1  0  0  0  0
  4 34  1  0  0  0  0
  5 35  1  0  0  0  0
  6 36  1  0  0  0  0
  7 37  1  0  0  0  0
  8 38  1  0  0  0  0
  9 39  1  0  0  0  0
 10 40  1  0  0  0  0
 11 41  1  0  0  0  0
 12 42  1  0  0  0  0
 21 43  1  0  0  0  0
 21 44  1  0  0  0  0
 21 45  1  0  0  0  0
 22 46  1  0  0  0  0
 22 47  1  0  0  0  0
 22 48  1  0  0  0  0
 23 49  1  0  0  0  0
 23 50  1  0  0  0  0
 24 51  1  0  0  0  0
 26 52  1  0  0  0  0
 27 53  1  0  0  0  0
M  END
> <clash_score>
0

> <docking_score>
-5.681694984436035

> <overlap_score>
0.9217529892921448

$$$$
BENZO_226_2
  -OEChem-08222022453D

 53 56  0     1  0  0  0  0  0999 V2000
    4.2460    1.7520   20.8250 C   0  0  0  0  0  0  0  0  0  0  0  0
    3.8860    2.1050   19.5250 C   0  0  0  0  0  0  0  0  0  0  0  0
   13.0334   -1.4851   25.3072 C   0  0  0  0  0  0  0  0  0  0  0  0
    5.3890    1.0010   21.0690 C   0  0  0  0  0  0  0  0  0  0  0  0
   11.9669   -0.6739   24.9199 C   0  0  0  0  0  0  0  0  0  0  0  0
    9.5890   -2.4950   23.2210 C   0  0  0  0  0  0  0  0  0  0  0  0
    8.2550   -1.0010   24.5520 C   0  0  0  0  0  0  0  0  0  0  0  0
    4.6610    1.7170   18.4380 C   0  0  0  0  0  0  0  0  0  0  0  0
    9.1890   -3.5540   24.0140 C   0  0  0  0  0  0  0  0  0  0  0  0
    7.8700   -2.0610   25.3550 C   0  0  0  0  0  0  0  0  0  0  0  0
   14.0118   -1.8413   24.3790 C   0  0  0  0  0  0  0  0  0  0  0  0
   12.8570   -0.5751   22.6760 C   0  0  0  0  0  0  0  0  0  0  0  0
    6.1460    0.6070   19.9750 C   0  0  0  0  0  0  0  0  0  0  0  0
    9.1280   -1.2090   23.4870 C   0  0  0  0  0  0  0  0  0  0  0  0
   11.8786   -0.2190   23.6043 C   0  0  0  0  0  0  0  0  0  0  0  0
    5.7970    0.9500   18.6730 C   0  0  0  0  0  0  0  0  0  0  0  0
    8.3450   -3.3440   25.0980 C   0  0  0  0  0  0  0  0  0  0  0  0
   13.9236   -1.3863   23.0634 C   0  0  0  0  0  0  0  0  0  0  0  0
    7.2710   -0.1460   19.8310 C   0  0  0  0  0  0  0  0  0  0  0  0
    9.0430    0.2380   21.4940 C   0  0  0  0  0  0  0  0  0  0  0  0
    7.2615   -5.5561   25.3801 C   0  0  0  0  0  0  0  0  0  0  0  0
    8.3043   -4.4048   27.3385 C   0  0  0  0  0  0  0  0  0  0  0  0
   10.7220    0.6590   23.1850 C   0  0  0  0  0  0  0  0  0  0  0  0
    9.5820   -0.1080   22.7000 C   0  0  2  0  0  0  0  0  0  0  0  0
    7.5840   -0.2700   18.5160 N   0  0  0  0  0  0  0  0  0  0  0  0
    6.7100    0.3850   17.8100 N   0  0  0  0  0  0  0  0  0  0  0  0
    8.0950   -0.7700   20.8440 N   0  0  0  0  0  0  0  0  0  0  0  0
    7.9717   -4.4175   25.9277 N   0  0  0  0  0  0  0  0  0  0  0  0
    9.2950    1.3000   20.9480 O   0  0  0  0  0  0  0  0  0  0  0  0
   15.1303   -1.8270   21.9183 Cl  0  0  0  0  0  0  0  0  0  0  0  0
    3.6223    2.0725   21.6574 H   0  0  0  0  0  0  0  0  0  0  0  0
    2.9864    2.6933   19.3609 H   0  0  0  0  0  0  0  0  0  0  0  0
   13.1017   -1.8393   26.3318 H   0  0  0  0  0  0  0  0  0  0  0  0
    5.6689    0.7392   22.0836 H   0  0  0  0  0  0  0  0  0  0  0  0
   11.2091   -0.4015   25.6498 H   0  0  0  0  0  0  0  0  0  0  0  0
   10.2684   -2.6719   22.3867 H   0  0  0  0  0  0  0  0  0  0  0  0
    7.8717   -0.0016   24.7596 H   0  0  0  0  0  0  0  0  0  0  0  0
    4.3807    2.0116   17.4186 H   0  0  0  0  0  0  0  0  0  0  0  0
    9.5443   -4.5616   23.7817 H   0  0  0  0  0  0  0  0  0  0  0  0
    7.1921   -1.8821   26.1908 H   0  0  0  0  0  0  0  0  0  0  0  0
   14.8373   -2.4744   24.6949 H   0  0  0  0  0  0  0  0  0  0  0  0
   12.7839   -0.2174   21.6515 H   0  0  0  0  0  0  0  0  0  0  0  0
    7.0605   -6.2832   26.1807 H   0  0  0  0  0  0  0  0  0  0  0  0
    6.3097   -5.2191   24.9437 H   0  0  0  0  0  0  0  0  0  0  0  0
    7.8751   -6.0303   24.6000 H   0  0  0  0  0  0  0  0  0  0  0  0
    7.9293   -5.3239   27.8125 H   0  0  0  0  0  0  0  0  0  0  0  0
    9.3965   -4.3505   27.4572 H   0  0  0  0  0  0  0  0  0  0  0  0
    7.8395   -3.5300   27.8168 H   0  0  0  0  0  0  0  0  0  0  0  0
   10.4369    1.3080   24.0233 H   0  0  0  0  0  0  0  0  0  0  0  0
   11.0815    1.3384   22.3997 H   0  0  0  0  0  0  0  0  0  0  0  0
   10.5413   -0.9955   22.0233 H   0  0  0  0  0  0  0  0  0  0  0  0
    6.7486    0.4313   16.8331 H   0  0  0  0  0  0  0  0  0  0  0  0
    8.0757   -1.6162   21.0774 H   0  0  0  0  0  0  0  0  0  0  0  0
  1  2  1  0  0  0  0
  1  4  2  0  0  0  0
  2  8  2  0  0  0  0
  3  5  2  0  0  0  0
  3 11  1  0  0  0  0
  4 13  1  0  0  0  0
  5 15  1  0  0  0  0
  6  9  2  0  0  0  0
  6 14  1  0  0  0  0
  7 10  1  0  0  0  0
  7 14  2  0  0  0  0
  8 16  1  0  0  0  0
  9 17  1  0  0  0  0
 10 17  2  0  0  0  0
 11 18  2  0  0  0  0
 12 15  2  0  0  0  0
 12 18  1  0  0  0  0
 13 16  2  0  0  0  0
 13 19  1  0  0  0  0
 14 24  1  0  0  0  0
 15 23  1  0  0  0  0
 16 26  1  0  0  0  0
 17 28  1  0  0  0  0
 18 30  1  0  0  0  0
 19 25  2  0  0  0  0
 19 27  1  0  0  0  0
 20 24  1  0  0  0  0
 20 27  1  0  0  0  0
 20 29  2  0  0  0  0
 21 28  1  0  0  0  0
 22 28  1  0  0  0  0
 23 24  1  6  0  0  0
 25 26  1  0  0  0  0
  1 31  1  0  0  0  0
  2 32  1  0  0  0  0
  3 33  1  0  0  0  0
  4 34  1  0  0  0  0
  5 35  1  0  0  0  0
  6 36  1  0  0  0  0
  7 37  1  0  0  0  0
  8 38  1  0  0  0  0
  9 39  1  0  0  0  0
 10 40  1  0  0  0  0
 11 41  1  0  0  0  0
 12 42  1  0  0  0  0
 21 43  1  0  0  0  0
 21 44  1  0  0  0  0
 21 45  1  0  0  0  0
 22 46  1  0  0  0  0
 22 47  1  0  0  0  0
 22 48  1  0  0  0  0
 23 49  1  0  0  0  0
 23 50  1  0  0  0  0
 24 51  1  0  0  0  0
 26 52  1  0  0  0  0
 27 53  1  0  0  0  0
M  END
> <clash_score>
0

> <docking_score>
-6.201977729797363

> <overlap_score>
0.9340411424636841

$$$$
BENZO_228_1
  -OEChem-08222022453D

 52 55  0     1  0  0  0  0  0999 V2000
    4.2460    1.7520   20.8250 C   0  0  0  0  0  0  0  0  0  0  0  0
    3.8860    2.1050   19.5250 C   0  0  0  0  0  0  0  0  0  0  0  0
    5.3890    1.0010   21.0690 C   0  0  0  0  0  0  0  0  0  0  0  0
    9.5890   -2.4950   23.2210 C   0  0  0  0  0  0  0  0  0  0  0  0
    8.2550   -1.0010   24.5520 C   0  0  0  0  0  0  0  0  0  0  0  0
    4.6610    1.7170   18.4380 C   0  0  0  0  0  0  0  0  0  0  0  0
    9.1890   -3.5540   24.0140 C   0  0  0  0  0  0  0  0  0  0  0  0
    7.8700   -2.0610   25.3550 C   0  0  0  0  0  0  0  0  0  0  0  0
   13.1058   -0.2791   23.5772 C   0  0  0  0  0  0  0  0  0  0  0  0
   14.1974   -0.7534   22.8836 C   0  0  0  0  0  0  0  0  0  0  0  0
   12.3642   -0.0940   21.3822 C   0  0  0  0  0  0  0  0  0  0  0  0
    6.1460    0.6070   19.9750 C   0  0  0  0  0  0  0  0  0  0  0  0
    9.1280   -1.2090   23.4870 C   0  0  0  0  0  0  0  0  0  0  0  0
   12.0437    0.1027   22.7075 C   0  0  0  0  0  0  0  0  0  0  0  0
    5.7970    0.9500   18.6730 C   0  0  0  0  0  0  0  0  0  0  0  0
    8.3450   -3.3440   25.0980 C   0  0  0  0  0  0  0  0  0  0  0  0
    7.2710   -0.1460   19.8310 C   0  0  0  0  0  0  0  0  0  0  0  0
    8.2015   -4.5555   27.2978 C   0  0  0  0  0  0  0  0  0  0  0  0
    9.0430    0.2380   21.4940 C   0  0  0  0  0  0  0  0  0  0  0  0
    7.8874   -6.0860   29.2889 C   0  0  0  0  0  0  0  0  0  0  0  0
   10.7220    0.6590   23.1850 C   0  0  0  0  0  0  0  0  0  0  0  0
    7.6339   -5.8719   27.8075 C   0  0  0  0  0  0  0  0  0  0  0  0
    9.5820   -0.1080   22.7000 C   0  0  1  0  0  0  0  0  0  0  0  0
    7.5840   -0.2700   18.5160 N   0  0  0  0  0  0  0  0  0  0  0  0
    6.7100    0.3850   17.8100 N   0  0  0  0  0  0  0  0  0  0  0  0
    7.9771   -4.4057   25.9197 N   0  0  0  0  0  0  0  0  0  0  0  0
    8.0950   -0.7700   20.8440 N   0  0  0  0  0  0  0  0  0  0  0  0
    8.7725   -3.7627   28.0395 O   0  0  0  0  0  0  0  0  0  0  0  0
    9.2950    1.3000   20.9480 O   0  0  0  0  0  0  0  0  0  0  0  0
   13.9398   -0.7369   21.1908 S   0  0  0  0  0  0  0  0  0  0  0  0
    3.6223    2.0725   21.6574 H   0  0  0  0  0  0  0  0  0  0  0  0
    2.9864    2.6933   19.3609 H   0  0  0  0  0  0  0  0  0  0  0  0
    5.6689    0.7392   22.0836 H   0  0  0  0  0  0  0  0  0  0  0  0
   10.2695   -2.6718   22.3873 H   0  0  0  0  0  0  0  0  0  0  0  0
    7.8712   -0.0014   24.7587 H   0  0  0  0  0  0  0  0  0  0  0  0
    4.3807    2.0116   17.4186 H   0  0  0  0  0  0  0  0  0  0  0  0
    9.5431   -4.5618   23.7801 H   0  0  0  0  0  0  0  0  0  0  0  0
    7.1923   -1.8823   26.1912 H   0  0  0  0  0  0  0  0  0  0  0  0
   13.0750   -0.2107   24.6573 H   0  0  0  0  0  0  0  0  0  0  0  0
   15.1341   -1.1080   23.2899 H   0  0  0  0  0  0  0  0  0  0  0  0
   11.7521    0.1087   20.5143 H   0  0  0  0  0  0  0  0  0  0  0  0
    8.9600   -6.0803   29.5092 H   0  0  0  0  0  0  0  0  0  0  0  0
    7.4774   -7.0483   29.6105 H   0  0  0  0  0  0  0  0  0  0  0  0
    7.4179   -5.2974   29.8861 H   0  0  0  0  0  0  0  0  0  0  0  0
   10.7266    0.7141   24.2815 H   0  0  0  0  0  0  0  0  0  0  0  0
   10.6502    1.7003   22.8412 H   0  0  0  0  0  0  0  0  0  0  0  0
    6.5547   -5.8822   27.6162 H   0  0  0  0  0  0  0  0  0  0  0  0
    8.0877   -6.6903   27.2368 H   0  0  0  0  0  0  0  0  0  0  0  0
    8.7027    0.7972   23.4026 H   0  0  0  0  0  0  0  0  0  0  0  0
    6.7486    0.4313   16.8331 H   0  0  0  0  0  0  0  0  0  0  0  0
    7.4775   -5.1799   25.4668 H   0  0  0  0  0  0  0  0  0  0  0  0
    8.0757   -1.6162   21.0774 H   0  0  0  0  0  0  0  0  0  0  0  0
  1  2  1  0  0  0  0
  1  3  2  0  0  0  0
  2  6  2  0  0  0  0
  3 12  1  0  0  0  0
  4  7  2  0  0  0  0
  4 13  1  0  0  0  0
  5  8  1  0  0  0  0
  5 13  2  0  0  0  0
  6 15  1  0  0  0  0
  7 16  1  0  0  0  0
  8 16  2  0  0  0  0
  9 10  2  0  0  0  0
  9 14  1  0  0  0  0
 10 30  1  0  0  0  0
 11 14  2  0  0  0  0
 11 30  1  0  0  0  0
 12 15  2  0  0  0  0
 12 17  1  0  0  0  0
 13 23  1  0  0  0  0
 14 21  1  0  0  0  0
 15 25  1  0  0  0  0
 16 26  1  0  0  0  0
 17 24  2  0  0  0  0
 17 27  1  0  0  0  0
 18 22  1  0  0  0  0
 18 26  1  0  0  0  0
 18 28  2  0  0  0  0
 19 23  1  0  0  0  0
 19 27  1  0  0  0  0
 19 29  2  0  0  0  0
 20 22  1  0  0  0  0
 21 23  1  1  0  0  0
 24 25  1  0  0  0  0
  1 31  1  0  0  0  0
  2 32  1  0  0  0  0
  3 33  1  0  0  0  0
  4 34  1  0  0  0  0
  5 35  1  0  0  0  0
  6 36  1  0  0  0  0
  7 37  1  0  0  0  0
  8 38  1  0  0  0  0
  9 39  1  0  0  0  0
 10 40  1  0  0  0  0
 11 41  1  0  0  0  0
 20 42  1  0  0  0  0
 20 43  1  0  0  0  0
 20 44  1  0  0  0  0
 21 45  1  0  0  0  0
 21 46  1  0  0  0  0
 22 47  1  0  0  0  0
 22 48  1  0  0  0  0
 23 49  1  0  0  0  0
 25 50  1  0  0  0  0
 26 51  1  0  0  0  0
 27 52  1  0  0  0  0
M  END
> <clash_score>
0

> <docking_score>
-6.5718793869018555

> <overlap_score>
0.9602542519569397

$$$$
BENZO_228_2
  -OEChem-08222022453D

 52 55  0     1  0  0  0  0  0999 V2000
    4.2460    1.7520   20.8250 C   0  0  0  0  0  0  0  0  0  0  0  0
    3.8860    2.1050   19.5250 C   0  0  0  0  0  0  0  0  0  0  0  0
    5.3890    1.0010   21.0690 C   0  0  0  0  0  0  0  0  0  0  0  0
    9.5890   -2.4950   23.2210 C   0  0  0  0  0  0  0  0  0  0  0  0
    8.2550   -1.0010   24.5520 C   0  0  0  0  0  0  0  0  0  0  0  0
    4.6610    1.7170   18.4380 C   0  0  0  0  0  0  0  0  0  0  0  0
    9.1890   -3.5540   24.0140 C   0  0  0  0  0  0  0  0  0  0  0  0
    7.8700   -2.0610   25.3550 C   0  0  0  0  0  0  0  0  0  0  0  0
   12.0393    0.1762   25.3640 C   0  0  0  0  0  0  0  0  0  0  0  0
   12.9049   -0.7459   25.9099 C   0  0  0  0  0  0  0  0  0  0  0  0
   12.2520   -1.3384   23.6137 C   0  0  0  0  0  0  0  0  0  0  0  0
    6.1460    0.6070   19.9750 C   0  0  0  0  0  0  0  0  0  0  0  0
    9.1280   -1.2090   23.4870 C   0  0  0  0  0  0  0  0  0  0  0  0
   11.6609   -0.1670   24.0339 C   0  0  0  0  0  0  0  0  0  0  0  0
    5.7970    0.9500   18.6730 C   0  0  0  0  0  0  0  0  0  0  0  0
    8.3450   -3.3440   25.0980 C   0  0  0  0  0  0  0  0  0  0  0  0
    7.2710   -0.1460   19.8310 C   0  0  0  0  0  0  0  0  0  0  0  0
    7.1408   -4.3816   27.0476 C   0  0  0  0  0  0  0  0  0  0  0  0
    9.0430    0.2380   21.4940 C   0  0  0  0  0  0  0  0  0  0  0  0
    8.0771   -6.0679   28.6863 C   0  0  0  0  0  0  0  0  0  0  0  0
   10.7220    0.6590   23.1850 C   0  0  0  0  0  0  0  0  0  0  0  0
    7.0010   -5.7681   27.6582 C   0  0  0  0  0  0  0  0  0  0  0  0
    9.5820   -0.1080   22.7000 C   0  0  2  0  0  0  0  0  0  0  0  0
    7.5840   -0.2700   18.5160 N   0  0  0  0  0  0  0  0  0  0  0  0
    6.7100    0.3850   17.8100 N   0  0  0  0  0  0  0  0  0  0  0  0
    7.9771   -4.4057   25.9197 N   0  0  0  0  0  0  0  0  0  0  0  0
    8.0950   -0.7700   20.8440 N   0  0  0  0  0  0  0  0  0  0  0  0
    6.5731   -3.4024   27.5203 O   0  0  0  0  0  0  0  0  0  0  0  0
    9.2950    1.3000   20.9480 O   0  0  0  0  0  0  0  0  0  0  0  0
   13.2582   -2.0191   24.8206 S   0  0  0  0  0  0  0  0  0  0  0  0
    3.6223    2.0725   21.6574 H   0  0  0  0  0  0  0  0  0  0  0  0
    2.9864    2.6933   19.3609 H   0  0  0  0  0  0  0  0  0  0  0  0
    5.6689    0.7392   22.0836 H   0  0  0  0  0  0  0  0  0  0  0  0
   10.2695   -2.6718   22.3873 H   0  0  0  0  0  0  0  0  0  0  0  0
    7.8712   -0.0014   24.7587 H   0  0  0  0  0  0  0  0  0  0  0  0
    4.3807    2.0116   17.4186 H   0  0  0  0  0  0  0  0  0  0  0  0
    9.5431   -4.5618   23.7801 H   0  0  0  0  0  0  0  0  0  0  0  0
    7.1923   -1.8823   26.1912 H   0  0  0  0  0  0  0  0  0  0  0  0
   11.6967    1.0541   25.8970 H   0  0  0  0  0  0  0  0  0  0  0  0
   13.3474   -0.7326   26.8960 H   0  0  0  0  0  0  0  0  0  0  0  0
   12.1448   -1.8296   22.6565 H   0  0  0  0  0  0  0  0  0  0  0  0
    9.0755   -6.0008   28.2417 H   0  0  0  0  0  0  0  0  0  0  0  0
    7.9491   -7.0775   29.0887 H   0  0  0  0  0  0  0  0  0  0  0  0
    8.0326   -5.3593   29.5200 H   0  0  0  0  0  0  0  0  0  0  0  0
   10.3958    1.5383   23.7557 H   0  0  0  0  0  0  0  0  0  0  0  0
   11.2964    1.0584   22.3376 H   0  0  0  0  0  0  0  0  0  0  0  0
    6.0143   -5.8423   28.1297 H   0  0  0  0  0  0  0  0  0  0  0  0
    7.0489   -6.5093   26.8521 H   0  0  0  0  0  0  0  0  0  0  0  0
   10.5413   -0.9955   22.0233 H   0  0  0  0  0  0  0  0  0  0  0  0
    6.7486    0.4313   16.8331 H   0  0  0  0  0  0  0  0  0  0  0  0
    8.3620   -5.3254   25.6748 H   0  0  0  0  0  0  0  0  0  0  0  0
    8.0757   -1.6162   21.0774 H   0  0  0  0  0  0  0  0  0  0  0  0
  1  2  1  0  0  0  0
  1  3  2  0  0  0  0
  2  6  2  0  0  0  0
  3 12  1  0  0  0  0
  4  7  2  0  0  0  0
  4 13  1  0  0  0  0
  5  8  1  0  0  0  0
  5 13  2  0  0  0  0
  6 15  1  0  0  0  0
  7 16  1  0  0  0  0
  8 16  2  0  0  0  0
  9 10  2  0  0  0  0
  9 14  1  0  0  0  0
 10 30  1  0  0  0  0
 11 14  2  0  0  0  0
 11 30  1  0  0  0  0
 12 15  2  0  0  0  0
 12 17  1  0  0  0  0
 13 23  1  0  0  0  0
 14 21  1  0  0  0  0
 15 25  1  0  0  0  0
 16 26  1  0  0  0  0
 17 24  2  0  0  0  0
 17 27  1  0  0  0  0
 18 22  1  0  0  0  0
 18 26  1  0  0  0  0
 18 28  2  0  0  0  0
 19 23  1  0  0  0  0
 19 27  1  0  0  0  0
 19 29  2  0  0  0  0
 20 22  1  0  0  0  0
 21 23  1  6  0  0  0
 24 25  1  0  0  0  0
  1 31  1  0  0  0  0
  2 32  1  0  0  0  0
  3 33  1  0  0  0  0
  4 34  1  0  0  0  0
  5 35  1  0  0  0  0
  6 36  1  0  0  0  0
  7 37  1  0  0  0  0
  8 38  1  0  0  0  0
  9 39  1  0  0  0  0
 10 40  1  0  0  0  0
 11 41  1  0  0  0  0
 20 42  1  0  0  0  0
 20 43  1  0  0  0  0
 20 44  1  0  0  0  0
 21 45  1  0  0  0  0
 21 46  1  0  0  0  0
 22 47  1  0  0  0  0
 22 48  1  0  0  0  0
 23 49  1  0  0  0  0
 25 50  1  0  0  0  0
 26 51  1  0  0  0  0
 27 52  1  0  0  0  0
M  END
> <clash_score>
0

> <docking_score>
-4.358938694000244

> <overlap_score>
0.8939405083656311

$$$$
BENZO_233_1
  -OEChem-08222022453D

 60 64  0     1  0  0  0  0  0999 V2000
   14.0446   -1.7964   24.3813 C   0  0  0  0  0  0  0  0  0  0  0  0
    4.2460    1.7520   20.8250 C   0  0  0  0  0  0  0  0  0  0  0  0
   13.0634   -1.4503   25.3102 C   0  0  0  0  0  0  0  0  0  0  0  0
   13.9484   -1.3461   23.0646 C   0  0  0  0  0  0  0  0  0  0  0  0
    3.8860    2.1050   19.5250 C   0  0  0  0  0  0  0  0  0  0  0  0
    5.3890    1.0010   21.0690 C   0  0  0  0  0  0  0  0  0  0  0  0
   11.9858   -0.6540   24.9225 C   0  0  0  0  0  0  0  0  0  0  0  0
   12.8708   -0.5498   22.6769 C   0  0  0  0  0  0  0  0  0  0  0  0
    9.5890   -2.4950   23.2210 C   0  0  0  0  0  0  0  0  0  0  0  0
    8.2550   -1.0010   24.5520 C   0  0  0  0  0  0  0  0  0  0  0  0
    4.6610    1.7170   18.4380 C   0  0  0  0  0  0  0  0  0  0  0  0
    9.1890   -3.5540   24.0140 C   0  0  0  0  0  0  0  0  0  0  0  0
    7.8700   -2.0610   25.3550 C   0  0  0  0  0  0  0  0  0  0  0  0
    6.1460    0.6070   19.9750 C   0  0  0  0  0  0  0  0  0  0  0  0
   11.8895   -0.2037   23.6058 C   0  0  0  0  0  0  0  0  0  0  0  0
    9.1280   -1.2090   23.4870 C   0  0  0  0  0  0  0  0  0  0  0  0
    5.7970    0.9500   18.6730 C   0  0  0  0  0  0  0  0  0  0  0  0
    8.3450   -3.3440   25.0980 C   0  0  0  0  0  0  0  0  0  0  0  0
    7.2710   -0.1460   19.8310 C   0  0  0  0  0  0  0  0  0  0  0  0
    9.0430    0.2380   21.4940 C   0  0  0  0  0  0  0  0  0  0  0  0
    7.9496   -4.9537   28.7345 C   0  0  0  0  0  0  0  0  0  0  0  0
    6.8919   -4.0607   28.0818 C   0  0  0  0  0  0  0  0  0  0  0  0
    9.2470   -4.9693   27.9230 C   0  0  0  0  0  0  0  0  0  0  0  0
    6.6889   -4.4385   26.6147 C   0  0  0  0  0  0  0  0  0  0  0  0
    8.9871   -5.3207   26.4549 C   0  0  0  0  0  0  0  0  0  0  0  0
   10.7220    0.6590   23.1850 C   0  0  0  0  0  0  0  0  0  0  0  0
    9.5820   -0.1080   22.7000 C   0  0  1  0  0  0  0  0  0  0  0  0
    7.5840   -0.2700   18.5160 N   0  0  0  0  0  0  0  0  0  0  0  0
    6.7100    0.3850   17.8100 N   0  0  0  0  0  0  0  0  0  0  0  0
    7.9769   -4.4027   25.9163 N   0  0  0  0  0  0  0  0  0  0  0  0
    8.0950   -0.7700   20.8440 N   0  0  0  0  0  0  0  0  0  0  0  0
    9.2950    1.3000   20.9480 O   0  0  0  0  0  0  0  0  0  0  0  0
   14.8843   -2.4154   24.6836 H   0  0  0  0  0  0  0  0  0  0  0  0
    3.6223    2.0725   21.6574 H   0  0  0  0  0  0  0  0  0  0  0  0
   13.1388   -1.8000   26.3358 H   0  0  0  0  0  0  0  0  0  0  0  0
   14.7127   -1.6145   22.3413 H   0  0  0  0  0  0  0  0  0  0  0  0
    2.9864    2.6933   19.3609 H   0  0  0  0  0  0  0  0  0  0  0  0
    5.6689    0.7392   22.0836 H   0  0  0  0  0  0  0  0  0  0  0  0
   11.2259   -0.3895   25.6531 H   0  0  0  0  0  0  0  0  0  0  0  0
   12.8039   -0.2037   21.6488 H   0  0  0  0  0  0  0  0  0  0  0  0
   10.2684   -2.6719   22.3867 H   0  0  0  0  0  0  0  0  0  0  0  0
    7.8717   -0.0016   24.7596 H   0  0  0  0  0  0  0  0  0  0  0  0
    4.3807    2.0116   17.4186 H   0  0  0  0  0  0  0  0  0  0  0  0
    9.5443   -4.5616   23.7817 H   0  0  0  0  0  0  0  0  0  0  0  0
    7.1921   -1.8821   26.1908 H   0  0  0  0  0  0  0  0  0  0  0  0
    8.1558   -4.5961   29.7550 H   0  0  0  0  0  0  0  0  0  0  0  0
    7.5611   -5.9778   28.8324 H   0  0  0  0  0  0  0  0  0  0  0  0
    5.9459   -4.1594   28.6209 H   0  0  0  0  0  0  0  0  0  0  0  0
    7.2011   -3.0160   28.1536 H   0  0  0  0  0  0  0  0  0  0  0  0
    9.7290   -3.9880   27.9846 H   0  0  0  0  0  0  0  0  0  0  0  0
    9.9437   -5.6964   28.3562 H   0  0  0  0  0  0  0  0  0  0  0  0
    6.2543   -5.4402   26.5659 H   0  0  0  0  0  0  0  0  0  0  0  0
    5.9909   -3.7397   26.1451 H   0  0  0  0  0  0  0  0  0  0  0  0
    9.9128   -5.2367   25.8843 H   0  0  0  0  0  0  0  0  0  0  0  0
    8.6365   -6.3517   26.3987 H   0  0  0  0  0  0  0  0  0  0  0  0
   10.4315    1.3089   24.0208 H   0  0  0  0  0  0  0  0  0  0  0  0
   11.0719    1.3385   22.3955 H   0  0  0  0  0  0  0  0  0  0  0  0
   10.5438   -0.9939   22.0202 H   0  0  0  0  0  0  0  0  0  0  0  0
    6.7486    0.4313   16.8331 H   0  0  0  0  0  0  0  0  0  0  0  0
    8.0917   -1.6083   21.0911 H   0  0  0  0  0  0  0  0  0  0  0  0
  1  3  1  0  0  0  0
  1  4  2  0  0  0  0
  2  5  1  0  0  0  0
  2  6  2  0  0  0  0
  3  7  2  0  0  0  0
  4  8  1  0  0  0  0
  5 11  2  0  0  0  0
  6 14  1  0  0  0  0
  7 15  1  0  0  0  0
  8 15  2  0  0  0  0
  9 12  2  0  0  0  0
  9 16  1  0  0  0  0
 10 13  1  0  0  0  0
 10 16  2  0  0  0  0
 11 17  1  0  0  0  0
 12 18  1  0  0  0  0
 13 18  2  0  0  0  0
 14 17  2  0  0  0  0
 14 19  1  0  0  0  0
 15 26  1  0  0  0  0
 16 27  1  0  0  0  0
 17 29  1  0  0  0  0
 18 30  1  0  0  0  0
 19 28  2  0  0  0  0
 19 31  1  0  0  0  0
 20 27  1  1  0  0  0
 20 31  1  0  0  0  0
 20 32  2  0  0  0  0
 21 22  1  0  0  0  0
 21 23  1  0  0  0  0
 22 24  1  0  0  0  0
 23 25  1  0  0  0  0
 24 30  1  0  0  0  0
 25 30  1  0  0  0  0
 26 27  1  0  0  0  0
 28 29  1  0  0  0  0
  1 33  1  0  0  0  0
  2 34  1  0  0  0  0
  3 35  1  0  0  0  0
  4 36  1  0  0  0  0
  5 37  1  0  0  0  0
  6 38  1  0  0  0  0
  7 39  1  0  0  0  0
  8 40  1  0  0  0  0
  9 41  1  0  0  0  0
 10 42  1  0  0  0  0
 11 43  1  0  0  0  0
 12 44  1  0  0  0  0
 13 45  1  0  0  0  0
 21 46  1  0  0  0  0
 21 47  1  0  0  0  0
 22 48  1  0  0  0  0
 22 49  1  0  0  0  0
 23 50  1  0  0  0  0
 23 51  1  0  0  0  0
 24 52  1  0  0  0  0
 24 53  1  0  0  0  0
 25 54  1  0  0  0  0
 25 55  1  0  0  0  0
 26 56  1  0  0  0  0
 26 57  1  0  0  0  0
 27 58  1  0  0  0  0
 29 59  1  0  0  0  0
 31 60  1  0  0  0  0
M  END
> <clash_score>
0

> <docking_score>
-7.629537582397461

> <overlap_score>
0.9715715050697327

$$$$
BENZO_233_2
  -OEChem-08222022453D

 60 64  0     1  0  0  0  0  0999 V2000
   14.5084   -0.8935   21.8609 C   0  0  0  0  0  0  0  0  0  0  0  0
    4.2460    1.7520   20.8250 C   0  0  0  0  0  0  0  0  0  0  0  0
   14.4162   -0.2303   23.0845 C   0  0  0  0  0  0  0  0  0  0  0  0
   13.3727   -1.0531   21.0668 C   0  0  0  0  0  0  0  0  0  0  0  0
    3.8860    2.1050   19.5250 C   0  0  0  0  0  0  0  0  0  0  0  0
    5.3890    1.0010   21.0690 C   0  0  0  0  0  0  0  0  0  0  0  0
   13.1884    0.2733   23.5141 C   0  0  0  0  0  0  0  0  0  0  0  0
   12.1449   -0.5495   21.4964 C   0  0  0  0  0  0  0  0  0  0  0  0
    9.5890   -2.4950   23.2210 C   0  0  0  0  0  0  0  0  0  0  0  0
    8.2550   -1.0010   24.5520 C   0  0  0  0  0  0  0  0  0  0  0  0
    4.6610    1.7170   18.4380 C   0  0  0  0  0  0  0  0  0  0  0  0
    9.1890   -3.5540   24.0140 C   0  0  0  0  0  0  0  0  0  0  0  0
    7.8700   -2.0610   25.3550 C   0  0  0  0  0  0  0  0  0  0  0  0
    6.1460    0.6070   19.9750 C   0  0  0  0  0  0  0  0  0  0  0  0
   12.0528    0.1138   22.7200 C   0  0  0  0  0  0  0  0  0  0  0  0
    9.1280   -1.2090   23.4870 C   0  0  0  0  0  0  0  0  0  0  0  0
    5.7970    0.9500   18.6730 C   0  0  0  0  0  0  0  0  0  0  0  0
    8.3450   -3.3440   25.0980 C   0  0  0  0  0  0  0  0  0  0  0  0
    7.2710   -0.1460   19.8310 C   0  0  0  0  0  0  0  0  0  0  0  0
    9.0430    0.2380   21.4940 C   0  0  0  0  0  0  0  0  0  0  0  0
    7.9496   -4.9537   28.7345 C   0  0  0  0  0  0  0  0  0  0  0  0
    6.8919   -4.0607   28.0818 C   0  0  0  0  0  0  0  0  0  0  0  0
    9.2470   -4.9693   27.9230 C   0  0  0  0  0  0  0  0  0  0  0  0
    6.6889   -4.4385   26.6147 C   0  0  0  0  0  0  0  0  0  0  0  0
    8.9871   -5.3207   26.4549 C   0  0  0  0  0  0  0  0  0  0  0  0
   10.7220    0.6590   23.1850 C   0  0  0  0  0  0  0  0  0  0  0  0
    9.5820   -0.1080   22.7000 C   0  0  2  0  0  0  0  0  0  0  0  0
    7.5840   -0.2700   18.5160 N   0  0  0  0  0  0  0  0  0  0  0  0
    6.7100    0.3850   17.8100 N   0  0  0  0  0  0  0  0  0  0  0  0
    7.9769   -4.4027   25.9163 N   0  0  0  0  0  0  0  0  0  0  0  0
    8.0950   -0.7700   20.8440 N   0  0  0  0  0  0  0  0  0  0  0  0
    9.2950    1.3000   20.9480 O   0  0  0  0  0  0  0  0  0  0  0  0
   15.4647   -1.2844   21.5259 H   0  0  0  0  0  0  0  0  0  0  0  0
    3.6223    2.0725   21.6574 H   0  0  0  0  0  0  0  0  0  0  0  0
   15.3006   -0.1050   23.7024 H   0  0  0  0  0  0  0  0  0  0  0  0
   13.4443   -1.5684   20.1136 H   0  0  0  0  0  0  0  0  0  0  0  0
    2.9864    2.6933   19.3609 H   0  0  0  0  0  0  0  0  0  0  0  0
    5.6689    0.7392   22.0836 H   0  0  0  0  0  0  0  0  0  0  0  0
   13.1260    0.7885   24.4690 H   0  0  0  0  0  0  0  0  0  0  0  0
   11.2654   -0.6786   20.8711 H   0  0  0  0  0  0  0  0  0  0  0  0
   10.2684   -2.6719   22.3867 H   0  0  0  0  0  0  0  0  0  0  0  0
    7.8717   -0.0016   24.7596 H   0  0  0  0  0  0  0  0  0  0  0  0
    4.3807    2.0116   17.4186 H   0  0  0  0  0  0  0  0  0  0  0  0
    9.5443   -4.5616   23.7817 H   0  0  0  0  0  0  0  0  0  0  0  0
    7.1921   -1.8821   26.1908 H   0  0  0  0  0  0  0  0  0  0  0  0
    8.1558   -4.5961   29.7550 H   0  0  0  0  0  0  0  0  0  0  0  0
    7.5611   -5.9778   28.8324 H   0  0  0  0  0  0  0  0  0  0  0  0
    5.9459   -4.1594   28.6209 H   0  0  0  0  0  0  0  0  0  0  0  0
    7.2011   -3.0160   28.1536 H   0  0  0  0  0  0  0  0  0  0  0  0
    9.7290   -3.9880   27.9846 H   0  0  0  0  0  0  0  0  0  0  0  0
    9.9437   -5.6964   28.3562 H   0  0  0  0  0  0  0  0  0  0  0  0
    6.2543   -5.4402   26.5659 H   0  0  0  0  0  0  0  0  0  0  0  0
    5.9909   -3.7397   26.1451 H   0  0  0  0  0  0  0  0  0  0  0  0
    9.9128   -5.2367   25.8843 H   0  0  0  0  0  0  0  0  0  0  0  0
    8.6365   -6.3517   26.3987 H   0  0  0  0  0  0  0  0  0  0  0  0
   10.7177    0.7189   24.2812 H   0  0  0  0  0  0  0  0  0  0  0  0
   10.6426    1.6980   22.8361 H   0  0  0  0  0  0  0  0  0  0  0  0
    8.7036    0.8022   23.4008 H   0  0  0  0  0  0  0  0  0  0  0  0
    6.7486    0.4313   16.8331 H   0  0  0  0  0  0  0  0  0  0  0  0
    8.0917   -1.6083   21.0911 H   0  0  0  0  0  0  0  0  0  0  0  0
  1  3  1  0  0  0  0
  1  4  2  0  0  0  0
  2  5  1  0  0  0  0
  2  6  2  0  0  0  0
  3  7  2  0  0  0  0
  4  8  1  0  0  0  0
  5 11  2  0  0  0  0
  6 14  1  0  0  0  0
  7 15  1  0  0  0  0
  8 15  2  0  0  0  0
  9 12  2  0  0  0  0
  9 16  1  0  0  0  0
 10 13  1  0  0  0  0
 10 16  2  0  0  0  0
 11 17  1  0  0  0  0
 12 18  1  0  0  0  0
 13 18  2  0  0  0  0
 14 17  2  0  0  0  0
 14 19  1  0  0  0  0
 15 26  1  0  0  0  0
 16 27  1  0  0  0  0
 17 29  1  0  0  0  0
 18 30  1  0  0  0  0
 19 28  2  0  0  0  0
 19 31  1  0  0  0  0
 20 27  1  6  0  0  0
 20 31  1  0  0  0  0
 20 32  2  0  0  0  0
 21 22  1  0  0  0  0
 21 23  1  0  0  0  0
 22 24  1  0  0  0  0
 23 25  1  0  0  0  0
 24 30  1  0  0  0  0
 25 30  1  0  0  0  0
 26 27  1  0  0  0  0
 28 29  1  0  0  0  0
  1 33  1  0  0  0  0
  2 34  1  0  0  0  0
  3 35  1  0  0  0  0
  4 36  1  0  0  0  0
  5 37  1  0  0  0  0
  6 38  1  0  0  0  0
  7 39  1  0  0  0  0
  8 40  1  0  0  0  0
  9 41  1  0  0  0  0
 10 42  1  0  0  0  0
 11 43  1  0  0  0  0
 12 44  1  0  0  0  0
 13 45  1  0  0  0  0
 21 46  1  0  0  0  0
 21 47  1  0  0  0  0
 22 48  1  0  0  0  0
 22 49  1  0  0  0  0
 23 50  1  0  0  0  0
 23 51  1  0  0  0  0
 24 52  1  0  0  0  0
 24 53  1  0  0  0  0
 25 54  1  0  0  0  0
 25 55  1  0  0  0  0
 26 56  1  0  0  0  0
 26 57  1  0  0  0  0
 27 58  1  0  0  0  0
 29 59  1  0  0  0  0
 31 60  1  0  0  0  0
M  END
> <clash_score>
0

> <docking_score>
-7.006338119506836

> <overlap_score>
0.9501305818557739

$$$$
BENZO_230_1
  -OEChem-08222022453D

 55 58  0     1  0  0  0  0  0999 V2000
    4.2460    1.7520   20.8250 C   0  0  0  0  0  0  0  0  0  0  0  0
    3.8860    2.1050   19.5250 C   0  0  0  0  0  0  0  0  0  0  0  0
   13.8165    0.0398   21.0674 C   0  0  0  0  0  0  0  0  0  0  0  0
    5.3890    1.0010   21.0690 C   0  0  0  0  0  0  0  0  0  0  0  0
   12.5963    0.5519   21.5081 C   0  0  0  0  0  0  0  0  0  0  0  0
    9.5890   -2.4950   23.2210 C   0  0  0  0  0  0  0  0  0  0  0  0
    8.2550   -1.0010   24.5520 C   0  0  0  0  0  0  0  0  0  0  0  0
    4.6610    1.7170   18.4380 C   0  0  0  0  0  0  0  0  0  0  0  0
    9.1890   -3.5540   24.0140 C   0  0  0  0  0  0  0  0  0  0  0  0
    7.8700   -2.0610   25.3550 C   0  0  0  0  0  0  0  0  0  0  0  0
   14.4843   -0.9216   21.8261 C   0  0  0  0  0  0  0  0  0  0  0  0
   12.7115   -0.8586   23.4663 C   0  0  0  0  0  0  0  0  0  0  0  0
    6.1460    0.6070   19.9750 C   0  0  0  0  0  0  0  0  0  0  0  0
    9.1280   -1.2090   23.4870 C   0  0  0  0  0  0  0  0  0  0  0  0
   12.0437    0.1027   22.7075 C   0  0  0  0  0  0  0  0  0  0  0  0
    5.7970    0.9500   18.6730 C   0  0  0  0  0  0  0  0  0  0  0  0
    8.3450   -3.3440   25.0980 C   0  0  0  0  0  0  0  0  0  0  0  0
   13.9318   -1.3708   23.0255 C   0  0  0  0  0  0  0  0  0  0  0  0
    7.2710   -0.1460   19.8310 C   0  0  0  0  0  0  0  0  0  0  0  0
    8.2015   -4.5555   27.2978 C   0  0  0  0  0  0  0  0  0  0  0  0
    9.0430    0.2380   21.4940 C   0  0  0  0  0  0  0  0  0  0  0  0
    7.8874   -6.0860   29.2889 C   0  0  0  0  0  0  0  0  0  0  0  0
   10.7220    0.6590   23.1850 C   0  0  0  0  0  0  0  0  0  0  0  0
    7.6339   -5.8719   27.8075 C   0  0  0  0  0  0  0  0  0  0  0  0
    9.5820   -0.1080   22.7000 C   0  0  1  0  0  0  0  0  0  0  0  0
    7.5840   -0.2700   18.5160 N   0  0  0  0  0  0  0  0  0  0  0  0
    6.7100    0.3850   17.8100 N   0  0  0  0  0  0  0  0  0  0  0  0
    7.9771   -4.4057   25.9197 N   0  0  0  0  0  0  0  0  0  0  0  0
    8.0950   -0.7700   20.8440 N   0  0  0  0  0  0  0  0  0  0  0  0
    8.7725   -3.7627   28.0395 O   0  0  0  0  0  0  0  0  0  0  0  0
    9.2950    1.3000   20.9480 O   0  0  0  0  0  0  0  0  0  0  0  0
   14.7567   -2.5560   23.9617 Cl  0  0  0  0  0  0  0  0  0  0  0  0
    3.6223    2.0725   21.6574 H   0  0  0  0  0  0  0  0  0  0  0  0
    2.9864    2.6933   19.3609 H   0  0  0  0  0  0  0  0  0  0  0  0
   14.2465    0.3899   20.1334 H   0  0  0  0  0  0  0  0  0  0  0  0
    5.6689    0.7392   22.0836 H   0  0  0  0  0  0  0  0  0  0  0  0
   12.0830    1.3007   20.9105 H   0  0  0  0  0  0  0  0  0  0  0  0
   10.2695   -2.6718   22.3873 H   0  0  0  0  0  0  0  0  0  0  0  0
    7.8712   -0.0014   24.7587 H   0  0  0  0  0  0  0  0  0  0  0  0
    4.3807    2.0116   17.4186 H   0  0  0  0  0  0  0  0  0  0  0  0
    9.5431   -4.5618   23.7801 H   0  0  0  0  0  0  0  0  0  0  0  0
    7.1923   -1.8823   26.1912 H   0  0  0  0  0  0  0  0  0  0  0  0
   15.4348   -1.3117   21.4704 H   0  0  0  0  0  0  0  0  0  0  0  0
   12.2763   -1.2059   24.4005 H   0  0  0  0  0  0  0  0  0  0  0  0
    8.9600   -6.0803   29.5092 H   0  0  0  0  0  0  0  0  0  0  0  0
    7.4774   -7.0483   29.6105 H   0  0  0  0  0  0  0  0  0  0  0  0
    7.4179   -5.2974   29.8861 H   0  0  0  0  0  0  0  0  0  0  0  0
   10.7266    0.7141   24.2815 H   0  0  0  0  0  0  0  0  0  0  0  0
   10.6502    1.7003   22.8412 H   0  0  0  0  0  0  0  0  0  0  0  0
    6.5547   -5.8822   27.6162 H   0  0  0  0  0  0  0  0  0  0  0  0
    8.0877   -6.6903   27.2368 H   0  0  0  0  0  0  0  0  0  0  0  0
    8.7027    0.7972   23.4026 H   0  0  0  0  0  0  0  0  0  0  0  0
    6.7486    0.4313   16.8331 H   0  0  0  0  0  0  0  0  0  0  0  0
    7.4775   -5.1799   25.4668 H   0  0  0  0  0  0  0  0  0  0  0  0
    8.0757   -1.6162   21.0774 H   0  0  0  0  0  0  0  0  0  0  0  0
  1  2  1  0  0  0  0
  1  4  2  0  0  0  0
  2  8  2  0  0  0  0
  3  5  2  0  0  0  0
  3 11  1  0  0  0  0
  4 13  1  0  0  0  0
  5 15  1  0  0  0  0
  6  9  2  0  0  0  0
  6 14  1  0  0  0  0
  7 10  1  0  0  0  0
  7 14  2  0  0  0  0
  8 16  1  0  0  0  0
  9 17  1  0  0  0  0
 10 17  2  0  0  0  0
 11 18  2  0  0  0  0
 12 15  2  0  0  0  0
 12 18  1  0  0  0  0
 13 16  2  0  0  0  0
 13 19  1  0  0  0  0
 14 25  1  0  0  0  0
 15 23  1  0  0  0  0
 16 27  1  0  0  0  0
 17 28  1  0  0  0  0
 18 32  1  0  0  0  0
 19 26  2  0  0  0  0
 19 29  1  0  0  0  0
 20 24  1  0  0  0  0
 20 28  1  0  0  0  0
 20 30  2  0  0  0  0
 21 25  1  0  0  0  0
 21 29  1  0  0  0  0
 21 31  2  0  0  0  0
 22 24  1  0  0  0  0
 23 25  1  1  0  0  0
 26 27  1  0  0  0  0
  1 33  1  0  0  0  0
  2 34  1  0  0  0  0
  3 35  1  0  0  0  0
  4 36  1  0  0  0  0
  5 37  1  0  0  0  0
  6 38  1  0  0  0  0
  7 39  1  0  0  0  0
  8 40  1  0  0  0  0
  9 41  1  0  0  0  0
 10 42  1  0  0  0  0
 11 43  1  0  0  0  0
 12 44  1  0  0  0  0
 22 45  1  0  0  0  0
 22 46  1  0  0  0  0
 22 47  1  0  0  0  0
 23 48  1  0  0  0  0
 23 49  1  0  0  0  0
 24 50  1  0  0  0  0
 24 51  1  0  0  0  0
 25 52  1  0  0  0  0
 27 53  1  0  0  0  0
 28 54  1  0  0  0  0
 29 55  1  0  0  0  0
M  END
> <clash_score>
0

> <docking_score>
-5.9599504470825195

> <overlap_score>
0.9779985547065735

$$$$
BENZO_230_2
  -OEChem-08222022453D

 55 58  0     1  0  0  0  0  0999 V2000
    4.2460    1.7520   20.8250 C   0  0  0  0  0  0  0  0  0  0  0  0
    3.8860    2.1050   19.5250 C   0  0  0  0  0  0  0  0  0  0  0  0
   13.0334   -1.4851   25.3072 C   0  0  0  0  0  0  0  0  0  0  0  0
    5.3890    1.0010   21.0690 C   0  0  0  0  0  0  0  0  0  0  0  0
   11.9669   -0.6739   24.9199 C   0  0  0  0  0  0  0  0  0  0  0  0
    9.5890   -2.4950   23.2210 C   0  0  0  0  0  0  0  0  0  0  0  0
    8.2550   -1.0010   24.5520 C   0  0  0  0  0  0  0  0  0  0  0  0
    4.6610    1.7170   18.4380 C   0  0  0  0  0  0  0  0  0  0  0  0
    9.1890   -3.5540   24.0140 C   0  0  0  0  0  0  0  0  0  0  0  0
    7.8700   -2.0610   25.3550 C   0  0  0  0  0  0  0  0  0  0  0  0
   14.0118   -1.8413   24.3790 C   0  0  0  0  0  0  0  0  0  0  0  0
   12.8570   -0.5751   22.6760 C   0  0  0  0  0  0  0  0  0  0  0  0
    6.1460    0.6070   19.9750 C   0  0  0  0  0  0  0  0  0  0  0  0
    9.1280   -1.2090   23.4870 C   0  0  0  0  0  0  0  0  0  0  0  0
   11.8786   -0.2190   23.6043 C   0  0  0  0  0  0  0  0  0  0  0  0
    5.7970    0.9500   18.6730 C   0  0  0  0  0  0  0  0  0  0  0  0
    8.3450   -3.3440   25.0980 C   0  0  0  0  0  0  0  0  0  0  0  0
   13.9236   -1.3863   23.0634 C   0  0  0  0  0  0  0  0  0  0  0  0
    7.2710   -0.1460   19.8310 C   0  0  0  0  0  0  0  0  0  0  0  0
    7.6593   -4.3758   27.2873 C   0  0  0  0  0  0  0  0  0  0  0  0
    9.0430    0.2380   21.4940 C   0  0  0  0  0  0  0  0  0  0  0  0
    8.4365   -6.7636   27.6037 C   0  0  0  0  0  0  0  0  0  0  0  0
   10.7220    0.6590   23.1850 C   0  0  0  0  0  0  0  0  0  0  0  0
    7.3104   -5.7647   27.8012 C   0  0  0  0  0  0  0  0  0  0  0  0
    9.5820   -0.1080   22.7000 C   0  0  2  0  0  0  0  0  0  0  0  0
    7.5840   -0.2700   18.5160 N   0  0  0  0  0  0  0  0  0  0  0  0
    6.7100    0.3850   17.8100 N   0  0  0  0  0  0  0  0  0  0  0  0
    7.9771   -4.4057   25.9197 N   0  0  0  0  0  0  0  0  0  0  0  0
    8.0950   -0.7700   20.8440 N   0  0  0  0  0  0  0  0  0  0  0  0
    7.6483   -3.3902   28.0174 O   0  0  0  0  0  0  0  0  0  0  0  0
    9.2950    1.3000   20.9480 O   0  0  0  0  0  0  0  0  0  0  0  0
   15.1303   -1.8270   21.9183 Cl  0  0  0  0  0  0  0  0  0  0  0  0
    3.6223    2.0725   21.6574 H   0  0  0  0  0  0  0  0  0  0  0  0
    2.9864    2.6933   19.3609 H   0  0  0  0  0  0  0  0  0  0  0  0
   13.1017   -1.8393   26.3318 H   0  0  0  0  0  0  0  0  0  0  0  0
    5.6689    0.7392   22.0836 H   0  0  0  0  0  0  0  0  0  0  0  0
   11.2091   -0.4015   25.6498 H   0  0  0  0  0  0  0  0  0  0  0  0
   10.2695   -2.6718   22.3873 H   0  0  0  0  0  0  0  0  0  0  0  0
    7.8712   -0.0014   24.7587 H   0  0  0  0  0  0  0  0  0  0  0  0
    4.3807    2.0116   17.4186 H   0  0  0  0  0  0  0  0  0  0  0  0
    9.5431   -4.5618   23.7801 H   0  0  0  0  0  0  0  0  0  0  0  0
    7.1923   -1.8823   26.1912 H   0  0  0  0  0  0  0  0  0  0  0  0
   14.8373   -2.4744   24.6949 H   0  0  0  0  0  0  0  0  0  0  0  0
   12.7839   -0.2174   21.6515 H   0  0  0  0  0  0  0  0  0  0  0  0
    8.6970   -6.8581   26.5443 H   0  0  0  0  0  0  0  0  0  0  0  0
    8.1395   -7.7503   27.9721 H   0  0  0  0  0  0  0  0  0  0  0  0
    9.3366   -6.4533   28.1444 H   0  0  0  0  0  0  0  0  0  0  0  0
   10.4369    1.3080   24.0233 H   0  0  0  0  0  0  0  0  0  0  0  0
   11.0815    1.3384   22.3997 H   0  0  0  0  0  0  0  0  0  0  0  0
    7.0709   -5.6903   28.8682 H   0  0  0  0  0  0  0  0  0  0  0  0
    6.4146   -6.1149   27.2756 H   0  0  0  0  0  0  0  0  0  0  0  0
   10.5413   -0.9955   22.0233 H   0  0  0  0  0  0  0  0  0  0  0  0
    6.7486    0.4313   16.8331 H   0  0  0  0  0  0  0  0  0  0  0  0
    7.9295   -5.3300   25.4752 H   0  0  0  0  0  0  0  0  0  0  0  0
    8.0757   -1.6162   21.0774 H   0  0  0  0  0  0  0  0  0  0  0  0
  1  2  1  0  0  0  0
  1  4  2  0  0  0  0
  2  8  2  0  0  0  0
  3  5  2  0  0  0  0
  3 11  1  0  0  0  0
  4 13  1  0  0  0  0
  5 15  1  0  0  0  0
  6  9  2  0  0  0  0
  6 14  1  0  0  0  0
  7 10  1  0  0  0  0
  7 14  2  0  0  0  0
  8 16  1  0  0  0  0
  9 17  1  0  0  0  0
 10 17  2  0  0  0  0
 11 18  2  0  0  0  0
 12 15  2  0  0  0  0
 12 18  1  0  0  0  0
 13 16  2  0  0  0  0
 13 19  1  0  0  0  0
 14 25  1  0  0  0  0
 15 23  1  0  0  0  0
 16 27  1  0  0  0  0
 17 28  1  0  0  0  0
 18 32  1  0  0  0  0
 19 26  2  0  0  0  0
 19 29  1  0  0  0  0
 20 24  1  0  0  0  0
 20 28  1  0  0  0  0
 20 30  2  0  0  0  0
 21 25  1  0  0  0  0
 21 29  1  0  0  0  0
 21 31  2  0  0  0  0
 22 24  1  0  0  0  0
 23 25  1  6  0  0  0
 26 27  1  0  0  0  0
  1 33  1  0  0  0  0
  2 34  1  0  0  0  0
  3 35  1  0  0  0  0
  4 36  1  0  0  0  0
  5 37  1  0  0  0  0
  6 38  1  0  0  0  0
  7 39  1  0  0  0  0
  8 40  1  0  0  0  0
  9 41  1  0  0  0  0
 10 42  1  0  0  0  0
 11 43  1  0  0  0  0
 12 44  1  0  0  0  0
 22 45  1  0  0  0  0
 22 46  1  0  0  0  0
 22 47  1  0  0  0  0
 23 48  1  0  0  0  0
 23 49  1  0  0  0  0
 24 50  1  0  0  0  0
 24 51  1  0  0  0  0
 25 52  1  0  0  0  0
 27 53  1  0  0  0  0
 28 54  1  0  0  0  0
 29 55  1  0  0  0  0
M  END
> <clash_score>
0

> <docking_score>
-5.969893455505371

> <overlap_score>
0.9731093645095825

$$$$
BENZO_232_1
  -OEChem-08222022453D

 57 61  0     1  0  0  0  0  0999 V2000
    4.2460    1.7520   20.8250 C   0  0  0  0  0  0  0  0  0  0  0  0
    3.8860    2.1050   19.5250 C   0  0  0  0  0  0  0  0  0  0  0  0
    5.3890    1.0010   21.0690 C   0  0  0  0  0  0  0  0  0  0  0  0
    9.5890   -2.4950   23.2210 C   0  0  0  0  0  0  0  0  0  0  0  0
    8.2550   -1.0010   24.5520 C   0  0  0  0  0  0  0  0  0  0  0  0
    4.6610    1.7170   18.4380 C   0  0  0  0  0  0  0  0  0  0  0  0
    9.1890   -3.5540   24.0140 C   0  0  0  0  0  0  0  0  0  0  0  0
    7.8700   -2.0610   25.3550 C   0  0  0  0  0  0  0  0  0  0  0  0
   12.0564    0.2022   25.3592 C   0  0  0  0  0  0  0  0  0  0  0  0
   12.9336   -0.7085   25.9059 C   0  0  0  0  0  0  0  0  0  0  0  0
   12.2727   -1.3216   23.6174 C   0  0  0  0  0  0  0  0  0  0  0  0
    6.1460    0.6070   19.9750 C   0  0  0  0  0  0  0  0  0  0  0  0
    9.1280   -1.2090   23.4870 C   0  0  0  0  0  0  0  0  0  0  0  0
   11.6734   -0.1530   24.0335 C   0  0  0  0  0  0  0  0  0  0  0  0
    5.7970    0.9500   18.6730 C   0  0  0  0  0  0  0  0  0  0  0  0
    8.3450   -3.3440   25.0980 C   0  0  0  0  0  0  0  0  0  0  0  0
    7.2710   -0.1460   19.8310 C   0  0  0  0  0  0  0  0  0  0  0  0
    9.0430    0.2380   21.4940 C   0  0  0  0  0  0  0  0  0  0  0  0
    7.9496   -4.9537   28.7345 C   0  0  0  0  0  0  0  0  0  0  0  0
    6.8919   -4.0607   28.0818 C   0  0  0  0  0  0  0  0  0  0  0  0
    9.2470   -4.9693   27.9230 C   0  0  0  0  0  0  0  0  0  0  0  0
    6.6889   -4.4385   26.6147 C   0  0  0  0  0  0  0  0  0  0  0  0
    8.9871   -5.3207   26.4549 C   0  0  0  0  0  0  0  0  0  0  0  0
   10.7220    0.6590   23.1850 C   0  0  0  0  0  0  0  0  0  0  0  0
    9.5820   -0.1080   22.7000 C   0  0  1  0  0  0  0  0  0  0  0  0
    7.5840   -0.2700   18.5160 N   0  0  0  0  0  0  0  0  0  0  0  0
    6.7100    0.3850   17.8100 N   0  0  0  0  0  0  0  0  0  0  0  0
    7.9769   -4.4027   25.9163 N   0  0  0  0  0  0  0  0  0  0  0  0
    8.0950   -0.7700   20.8440 N   0  0  0  0  0  0  0  0  0  0  0  0
    9.2950    1.3000   20.9480 O   0  0  0  0  0  0  0  0  0  0  0  0
   13.2921   -1.9853   24.8226 S   0  0  0  0  0  0  0  0  0  0  0  0
    3.6223    2.0725   21.6574 H   0  0  0  0  0  0  0  0  0  0  0  0
    2.9864    2.6933   19.3609 H   0  0  0  0  0  0  0  0  0  0  0  0
    5.6689    0.7392   22.0836 H   0  0  0  0  0  0  0  0  0  0  0  0
   10.2684   -2.6719   22.3867 H   0  0  0  0  0  0  0  0  0  0  0  0
    7.8717   -0.0016   24.7596 H   0  0  0  0  0  0  0  0  0  0  0  0
    4.3807    2.0116   17.4186 H   0  0  0  0  0  0  0  0  0  0  0  0
    9.5443   -4.5616   23.7817 H   0  0  0  0  0  0  0  0  0  0  0  0
    7.1921   -1.8821   26.1908 H   0  0  0  0  0  0  0  0  0  0  0  0
   11.7089    1.0804   25.8886 H   0  0  0  0  0  0  0  0  0  0  0  0
   13.3816   -0.6847   26.8892 H   0  0  0  0  0  0  0  0  0  0  0  0
   12.1644   -1.8199   22.6640 H   0  0  0  0  0  0  0  0  0  0  0  0
    8.1558   -4.5961   29.7550 H   0  0  0  0  0  0  0  0  0  0  0  0
    7.5611   -5.9778   28.8324 H   0  0  0  0  0  0  0  0  0  0  0  0
    5.9459   -4.1594   28.6209 H   0  0  0  0  0  0  0  0  0  0  0  0
    7.2011   -3.0160   28.1536 H   0  0  0  0  0  0  0  0  0  0  0  0
    9.7290   -3.9880   27.9846 H   0  0  0  0  0  0  0  0  0  0  0  0
    9.9437   -5.6964   28.3562 H   0  0  0  0  0  0  0  0  0  0  0  0
    6.2543   -5.4402   26.5659 H   0  0  0  0  0  0  0  0  0  0  0  0
    5.9909   -3.7397   26.1451 H   0  0  0  0  0  0  0  0  0  0  0  0
    9.9128   -5.2367   25.8843 H   0  0  0  0  0  0  0  0  0  0  0  0
    8.6365   -6.3517   26.3987 H   0  0  0  0  0  0  0  0  0  0  0  0
   10.3911    1.5389   23.7520 H   0  0  0  0  0  0  0  0  0  0  0  0
   11.2877    1.0581   22.3316 H   0  0  0  0  0  0  0  0  0  0  0  0
   10.5438   -0.9939   22.0202 H   0  0  0  0  0  0  0  0  0  0  0  0
    6.7486    0.4313   16.8331 H   0  0  0  0  0  0  0  0  0  0  0  0
    8.0917   -1.6083   21.0911 H   0  0  0  0  0  0  0  0  0  0  0  0
  1  2  1  0  0  0  0
  1  3  2  0  0  0  0
  2  6  2  0  0  0  0
  3 12  1  0  0  0  0
  4  7  2  0  0  0  0
  4 13  1  0  0  0  0
  5  8  1  0  0  0  0
  5 13  2  0  0  0  0
  6 15  1  0  0  0  0
  7 16  1  0  0  0  0
  8 16  2  0  0  0  0
  9 10  2  0  0  0  0
  9 14  1  0  0  0  0
 10 31  1  0  0  0  0
 11 14  2  0  0  0  0
 11 31  1  0  0  0  0
 12 15  2  0  0  0  0
 12 17  1  0  0  0  0
 13 25  1  0  0  0  0
 14 24  1  0  0  0  0
 15 27  1  0  0  0  0
 16 28  1  0  0  0  0
 17 26  2  0  0  0  0
 17 29  1  0  0  0  0
 18 25  1  1  0  0  0
 18 29  1  0  0  0  0
 18 30  2  0  0  0  0
 19 20  1  0  0  0  0
 19 21  1  0  0  0  0
 20 22  1  0  0  0  0
 21 23  1  0  0  0  0
 22 28  1  0  0  0  0
 23 28  1  0  0  0  0
 24 25  1  0  0  0  0
 26 27  1  0  0  0  0
  1 32  1  0  0  0  0
  2 33  1  0  0  0  0
  3 34  1  0  0  0  0
  4 35  1  0  0  0  0
  5 36  1  0  0  0  0
  6 37  1  0  0  0  0
  7 38  1  0  0  0  0
  8 39  1  0  0  0  0
  9 40  1  0  0  0  0
 10 41  1  0  0  0  0
 11 42  1  0  0  0  0
 19 43  1  0  0  0  0
 19 44  1  0  0  0  0
 20 45  1  0  0  0  0
 20 46  1  0  0  0  0
 21 47  1  0  0  0  0
 21 48  1  0  0  0  0
 22 49  1  0  0  0  0
 22 50  1  0  0  0  0
 23 51  1  0  0  0  0
 23 52  1  0  0  0  0
 24 53  1  0  0  0  0
 24 54  1  0  0  0  0
 25 55  1  0  0  0  0
 27 56  1  0  0  0  0
 29 57  1  0  0  0  0
M  END
> <clash_score>
0

> <docking_score>
-5.437902450561523

> <overlap_score>
0.9137670397758484

$$$$
BENZO_232_2
  -OEChem-08222022453D

 57 61  0     1  0  0  0  0  0999 V2000
    4.2460    1.7520   20.8250 C   0  0  0  0  0  0  0  0  0  0  0  0
    3.8860    2.1050   19.5250 C   0  0  0  0  0  0  0  0  0  0  0  0
    5.3890    1.0010   21.0690 C   0  0  0  0  0  0  0  0  0  0  0  0
    9.5890   -2.4950   23.2210 C   0  0  0  0  0  0  0  0  0  0  0  0
    8.2550   -1.0010   24.5520 C   0  0  0  0  0  0  0  0  0  0  0  0
    4.6610    1.7170   18.4380 C   0  0  0  0  0  0  0  0  0  0  0  0
    9.1890   -3.5540   24.0140 C   0  0  0  0  0  0  0  0  0  0  0  0
    7.8700   -2.0610   25.3550 C   0  0  0  0  0  0  0  0  0  0  0  0
   13.1119   -0.2538   23.5994 C   0  0  0  0  0  0  0  0  0  0  0  0
   14.2134   -0.7202   22.9163 C   0  0  0  0  0  0  0  0  0  0  0  0
   12.3853   -0.0855   21.3980 C   0  0  0  0  0  0  0  0  0  0  0  0
    6.1460    0.6070   19.9750 C   0  0  0  0  0  0  0  0  0  0  0  0
    9.1280   -1.2090   23.4870 C   0  0  0  0  0  0  0  0  0  0  0  0
   12.0528    0.1138   22.7200 C   0  0  0  0  0  0  0  0  0  0  0  0
    5.7970    0.9500   18.6730 C   0  0  0  0  0  0  0  0  0  0  0  0
    8.3450   -3.3440   25.0980 C   0  0  0  0  0  0  0  0  0  0  0  0
    7.2710   -0.1460   19.8310 C   0  0  0  0  0  0  0  0  0  0  0  0
    9.0430    0.2380   21.4940 C   0  0  0  0  0  0  0  0  0  0  0  0
    7.9496   -4.9537   28.7345 C   0  0  0  0  0  0  0  0  0  0  0  0
    6.8919   -4.0607   28.0818 C   0  0  0  0  0  0  0  0  0  0  0  0
    9.2470   -4.9693   27.9230 C   0  0  0  0  0  0  0  0  0  0  0  0
    6.6889   -4.4385   26.6147 C   0  0  0  0  0  0  0  0  0  0  0  0
    8.9871   -5.3207   26.4549 C   0  0  0  0  0  0  0  0  0  0  0  0
   10.7220    0.6590   23.1850 C   0  0  0  0  0  0  0  0  0  0  0  0
    9.5820   -0.1080   22.7000 C   0  0  2  0  0  0  0  0  0  0  0  0
    7.5840   -0.2700   18.5160 N   0  0  0  0  0  0  0  0  0  0  0  0
    6.7100    0.3850   17.8100 N   0  0  0  0  0  0  0  0  0  0  0  0
    7.9769   -4.4027   25.9163 N   0  0  0  0  0  0  0  0  0  0  0  0
    8.0950   -0.7700   20.8440 N   0  0  0  0  0  0  0  0  0  0  0  0
    9.2950    1.3000   20.9480 O   0  0  0  0  0  0  0  0  0  0  0  0
   13.9685   -0.7136   21.2215 S   0  0  0  0  0  0  0  0  0  0  0  0
    3.6223    2.0725   21.6574 H   0  0  0  0  0  0  0  0  0  0  0  0
    2.9864    2.6933   19.3609 H   0  0  0  0  0  0  0  0  0  0  0  0
    5.6689    0.7392   22.0836 H   0  0  0  0  0  0  0  0  0  0  0  0
   10.2684   -2.6719   22.3867 H   0  0  0  0  0  0  0  0  0  0  0  0
    7.8717   -0.0016   24.7596 H   0  0  0  0  0  0  0  0  0  0  0  0
    4.3807    2.0116   17.4186 H   0  0  0  0  0  0  0  0  0  0  0  0
    9.5443   -4.5616   23.7817 H   0  0  0  0  0  0  0  0  0  0  0  0
    7.1921   -1.8821   26.1908 H   0  0  0  0  0  0  0  0  0  0  0  0
   13.0722   -0.1810   24.6790 H   0  0  0  0  0  0  0  0  0  0  0  0
   15.1504   -1.0638   23.3312 H   0  0  0  0  0  0  0  0  0  0  0  0
   11.7779    0.1074   20.5246 H   0  0  0  0  0  0  0  0  0  0  0  0
    8.1558   -4.5961   29.7550 H   0  0  0  0  0  0  0  0  0  0  0  0
    7.5611   -5.9778   28.8324 H   0  0  0  0  0  0  0  0  0  0  0  0
    5.9459   -4.1594   28.6209 H   0  0  0  0  0  0  0  0  0  0  0  0
    7.2011   -3.0160   28.1536 H   0  0  0  0  0  0  0  0  0  0  0  0
    9.7290   -3.9880   27.9846 H   0  0  0  0  0  0  0  0  0  0  0  0
    9.9437   -5.6964   28.3562 H   0  0  0  0  0  0  0  0  0  0  0  0
    6.2543   -5.4402   26.5659 H   0  0  0  0  0  0  0  0  0  0  0  0
    5.9909   -3.7397   26.1451 H   0  0  0  0  0  0  0  0  0  0  0  0
    9.9128   -5.2367   25.8843 H   0  0  0  0  0  0  0  0  0  0  0  0
    8.6365   -6.3517   26.3987 H   0  0  0  0  0  0  0  0  0  0  0  0
   10.7177    0.7189   24.2812 H   0  0  0  0  0  0  0  0  0  0  0  0
   10.6426    1.6980   22.8361 H   0  0  0  0  0  0  0  0  0  0  0  0
    8.7036    0.8022   23.4008 H   0  0  0  0  0  0  0  0  0  0  0  0
    6.7486    0.4313   16.8331 H   0  0  0  0  0  0  0  0  0  0  0  0
    8.0917   -1.6083   21.0911 H   0  0  0  0  0  0  0  0  0  0  0  0
  1  2  1  0  0  0  0
  1  3  2  0  0  0  0
  2  6  2  0  0  0  0
  3 12  1  0  0  0  0
  4  7  2  0  0  0  0
  4 13  1  0  0  0  0
  5  8  1  0  0  0  0
  5 13  2  0  0  0  0
  6 15  1  0  0  0  0
  7 16  1  0  0  0  0
  8 16  2  0  0  0  0
  9 10  2  0  0  0  0
  9 14  1  0  0  0  0
 10 31  1  0  0  0  0
 11 14  2  0  0  0  0
 11 31  1  0  0  0  0
 12 15  2  0  0  0  0
 12 17  1  0  0  0  0
 13 25  1  0  0  0  0
 14 24  1  0  0  0  0
 15 27  1  0  0  0  0
 16 28  1  0  0  0  0
 17 26  2  0  0  0  0
 17 29  1  0  0  0  0
 18 25  1  6  0  0  0
 18 29  1  0  0  0  0
 18 30  2  0  0  0  0
 19 20  1  0  0  0  0
 19 21  1  0  0  0  0
 20 22  1  0  0  0  0
 21 23  1  0  0  0  0
 22 28  1  0  0  0  0
 23 28  1  0  0  0  0
 24 25  1  0  0  0  0
 26 27  1  0  0  0  0
  1 32  1  0  0  0  0
  2 33  1  0  0  0  0
  3 34  1  0  0  0  0
  4 35  1  0  0  0  0
  5 36  1  0  0  0  0
  6 37  1  0  0  0  0
  7 38  1  0  0  0  0
  8 39  1  0  0  0  0
  9 40  1  0  0  0  0
 10 41  1  0  0  0  0
 11 42  1  0  0  0  0
 19 43  1  0  0  0  0
 19 44  1  0  0  0  0
 20 45  1  0  0  0  0
 20 46  1  0  0  0  0
 21 47  1  0  0  0  0
 21 48  1  0  0  0  0
 22 49  1  0  0  0  0
 22 50  1  0  0  0  0
 23 51  1  0  0  0  0
 23 52  1  0  0  0  0
 24 53  1  0  0  0  0
 24 54  1  0  0  0  0
 25 55  1  0  0  0  0
 27 56  1  0  0  0  0
 29 57  1  0  0  0  0
M  END
> <clash_score>
0

> <docking_score>
-6.78669548034668

> <overlap_score>
0.946659505367279

$$$$
BENZO_231_2
  -OEChem-08222022453D

 55 58  0     1  0  0  0  0  0999 V2000
    4.2460    1.7520   20.8250 C   0  0  0  0  0  0  0  0  0  0  0  0
    3.8860    2.1050   19.5250 C   0  0  0  0  0  0  0  0  0  0  0  0
    5.3890    1.0010   21.0690 C   0  0  0  0  0  0  0  0  0  0  0  0
    9.5890   -2.4950   23.2210 C   0  0  0  0  0  0  0  0  0  0  0  0
    8.2550   -1.0010   24.5520 C   0  0  0  0  0  0  0  0  0  0  0  0
    4.6610    1.7170   18.4380 C   0  0  0  0  0  0  0  0  0  0  0  0
    9.1890   -3.5540   24.0140 C   0  0  0  0  0  0  0  0  0  0  0  0
    7.8700   -2.0610   25.3550 C   0  0  0  0  0  0  0  0  0  0  0  0
   12.1294   -0.7684   24.8759 C   0  0  0  0  0  0  0  0  0  0  0  0
   12.9208   -0.6622   22.8272 C   0  0  0  0  0  0  0  0  0  0  0  0
    6.1460    0.6070   19.9750 C   0  0  0  0  0  0  0  0  0  0  0  0
    9.1280   -1.2090   23.4870 C   0  0  0  0  0  0  0  0  0  0  0  0
   11.8786   -0.2190   23.6043 C   0  0  0  0  0  0  0  0  0  0  0  0
    5.7970    0.9500   18.6730 C   0  0  0  0  0  0  0  0  0  0  0  0
    8.3450   -3.3440   25.0980 C   0  0  0  0  0  0  0  0  0  0  0  0
    7.2710   -0.1460   19.8310 C   0  0  0  0  0  0  0  0  0  0  0  0
    7.6593   -4.3758   27.2873 C   0  0  0  0  0  0  0  0  0  0  0  0
    9.0430    0.2380   21.4940 C   0  0  0  0  0  0  0  0  0  0  0  0
    8.4365   -6.7636   27.6037 C   0  0  0  0  0  0  0  0  0  0  0  0
   14.9196   -2.1033   23.2819 C   0  0  0  0  0  0  0  0  0  0  0  0
   10.7220    0.6590   23.1850 C   0  0  0  0  0  0  0  0  0  0  0  0
    7.3104   -5.7647   27.8012 C   0  0  0  0  0  0  0  0  0  0  0  0
    9.5820   -0.1080   22.7000 C   0  0  2  0  0  0  0  0  0  0  0  0
   13.2434   -1.5045   24.9090 N   0  0  0  0  0  0  0  0  0  0  0  0
    7.5840   -0.2700   18.5160 N   0  0  0  0  0  0  0  0  0  0  0  0
    6.7100    0.3850   17.8100 N   0  0  0  0  0  0  0  0  0  0  0  0
   13.7019   -1.4208   23.6485 N   0  0  0  0  0  0  0  0  0  0  0  0
    7.9771   -4.4057   25.9197 N   0  0  0  0  0  0  0  0  0  0  0  0
    8.0950   -0.7700   20.8440 N   0  0  0  0  0  0  0  0  0  0  0  0
    7.6483   -3.3902   28.0174 O   0  0  0  0  0  0  0  0  0  0  0  0
    9.2950    1.3000   20.9480 O   0  0  0  0  0  0  0  0  0  0  0  0
    3.6223    2.0725   21.6574 H   0  0  0  0  0  0  0  0  0  0  0  0
    2.9864    2.6933   19.3609 H   0  0  0  0  0  0  0  0  0  0  0  0
    5.6689    0.7392   22.0836 H   0  0  0  0  0  0  0  0  0  0  0  0
   10.2695   -2.6718   22.3873 H   0  0  0  0  0  0  0  0  0  0  0  0
    7.8712   -0.0014   24.7587 H   0  0  0  0  0  0  0  0  0  0  0  0
    4.3807    2.0116   17.4186 H   0  0  0  0  0  0  0  0  0  0  0  0
    9.5431   -4.5618   23.7801 H   0  0  0  0  0  0  0  0  0  0  0  0
    7.1923   -1.8823   26.1912 H   0  0  0  0  0  0  0  0  0  0  0  0
   11.5479   -0.6652   25.7811 H   0  0  0  0  0  0  0  0  0  0  0  0
   13.1664   -0.5073   21.7853 H   0  0  0  0  0  0  0  0  0  0  0  0
    8.6970   -6.8581   26.5443 H   0  0  0  0  0  0  0  0  0  0  0  0
    8.1395   -7.7503   27.9721 H   0  0  0  0  0  0  0  0  0  0  0  0
    9.3366   -6.4533   28.1444 H   0  0  0  0  0  0  0  0  0  0  0  0
   15.7545   -1.4186   23.4527 H   0  0  0  0  0  0  0  0  0  0  0  0
   15.0313   -3.0027   23.8939 H   0  0  0  0  0  0  0  0  0  0  0  0
   14.8693   -2.3913   22.2281 H   0  0  0  0  0  0  0  0  0  0  0  0
   10.4369    1.3080   24.0233 H   0  0  0  0  0  0  0  0  0  0  0  0
   11.0815    1.3384   22.3997 H   0  0  0  0  0  0  0  0  0  0  0  0
    7.0709   -5.6903   28.8682 H   0  0  0  0  0  0  0  0  0  0  0  0
    6.4146   -6.1149   27.2756 H   0  0  0  0  0  0  0  0  0  0  0  0
   10.5413   -0.9955   22.0233 H   0  0  0  0  0  0  0  0  0  0  0  0
    6.7486    0.4313   16.8331 H   0  0  0  0  0  0  0  0  0  0  0  0
    7.9295   -5.3300   25.4752 H   0  0  0  0  0  0  0  0  0  0  0  0
    8.0757   -1.6162   21.0774 H   0  0  0  0  0  0  0  0  0  0  0  0
  1  2  1  0  0  0  0
  1  3  2  0  0  0  0
  2  6  2  0  0  0  0
  3 11  1  0  0  0  0
  4  7  2  0  0  0  0
  4 12  1  0  0  0  0
  5  8  1  0  0  0  0
  5 12  2  0  0  0  0
  6 14  1  0  0  0  0
  7 15  1  0  0  0  0
  8 15  2  0  0  0  0
  9 13  1  0  0  0  0
  9 24  2  0  0  0  0
 10 13  2  0  0  0  0
 10 27  1  0  0  0  0
 11 14  2  0  0  0  0
 11 16  1  0  0  0  0
 12 23  1  0  0  0  0
 13 21  1  0  0  0  0
 14 26  1  0  0  0  0
 15 28  1  0  0  0  0
 16 25  2  0  0  0  0
 16 29  1  0  0  0  0
 17 22  1  0  0  0  0
 17 28  1  0  0  0  0
 17 30  2  0  0  0  0
 18 23  1  0  0  0  0
 18 29  1  0  0  0  0
 18 31  2  0  0  0  0
 19 22  1  0  0  0  0
 20 27  1  0  0  0  0
 21 23  1  6  0  0  0
 24 27  1  0  0  0  0
 25 26  1  0  0  0  0
  1 32  1  0  0  0  0
  2 33  1  0  0  0  0
  3 34  1  0  0  0  0
  4 35  1  0  0  0  0
  5 36  1  0  0  0  0
  6 37  1  0  0  0  0
  7 38  1  0  0  0  0
  8 39  1  0  0  0  0
  9 40  1  0  0  0  0
 10 41  1  0  0  0  0
 19 42  1  0  0  0  0
 19 43  1  0  0  0  0
 19 44  1  0  0  0  0
 20 45  1  0  0  0  0
 20 46  1  0  0  0  0
 20 47  1  0  0  0  0
 21 48  1  0  0  0  0
 21 49  1  0  0  0  0
 22 50  1  0  0  0  0
 22 51  1  0  0  0  0
 23 52  1  0  0  0  0
 26 53  1  0  0  0  0
 28 54  1  0  0  0  0
 29 55  1  0  0  0  0
M  END
> <clash_score>
0

> <docking_score>
-5.919180870056152

> <overlap_score>
0.9687347412109375

$$$$
BENZO_231_1
  -OEChem-08222022453D

 55 58  0     1  0  0  0  0  0999 V2000
    4.2460    1.7520   20.8250 C   0  0  0  0  0  0  0  0  0  0  0  0
    3.8860    2.1050   19.5250 C   0  0  0  0  0  0  0  0  0  0  0  0
    5.3890    1.0010   21.0690 C   0  0  0  0  0  0  0  0  0  0  0  0
    9.5890   -2.4950   23.2210 C   0  0  0  0  0  0  0  0  0  0  0  0
    8.2550   -1.0010   24.5520 C   0  0  0  0  0  0  0  0  0  0  0  0
    4.6610    1.7170   18.4380 C   0  0  0  0  0  0  0  0  0  0  0  0
    9.1890   -3.5540   24.0140 C   0  0  0  0  0  0  0  0  0  0  0  0
    7.8700   -2.0610   25.3550 C   0  0  0  0  0  0  0  0  0  0  0  0
   13.3358    0.5881   22.9844 C   0  0  0  0  0  0  0  0  0  0  0  0
   12.2530   -0.9934   21.9068 C   0  0  0  0  0  0  0  0  0  0  0  0
    6.1460    0.6070   19.9750 C   0  0  0  0  0  0  0  0  0  0  0  0
    9.1280   -1.2090   23.4870 C   0  0  0  0  0  0  0  0  0  0  0  0
   12.0437    0.1027   22.7075 C   0  0  0  0  0  0  0  0  0  0  0  0
    5.7970    0.9500   18.6730 C   0  0  0  0  0  0  0  0  0  0  0  0
    8.3450   -3.3440   25.0980 C   0  0  0  0  0  0  0  0  0  0  0  0
    7.2710   -0.1460   19.8310 C   0  0  0  0  0  0  0  0  0  0  0  0
    7.6593   -4.3758   27.2873 C   0  0  0  0  0  0  0  0  0  0  0  0
    9.0430    0.2380   21.4940 C   0  0  0  0  0  0  0  0  0  0  0  0
    6.9938   -5.7787   29.2859 C   0  0  0  0  0  0  0  0  0  0  0  0
   14.3107   -2.0972   20.9977 C   0  0  0  0  0  0  0  0  0  0  0  0
   10.7220    0.6590   23.1850 C   0  0  0  0  0  0  0  0  0  0  0  0
    7.3104   -5.7647   27.8012 C   0  0  0  0  0  0  0  0  0  0  0  0
    9.5820   -0.1080   22.7000 C   0  0  1  0  0  0  0  0  0  0  0  0
   14.2950   -0.1401   22.4067 N   0  0  0  0  0  0  0  0  0  0  0  0
    7.5840   -0.2700   18.5160 N   0  0  0  0  0  0  0  0  0  0  0  0
    6.7100    0.3850   17.8100 N   0  0  0  0  0  0  0  0  0  0  0  0
   13.6051   -1.0943   21.7588 N   0  0  0  0  0  0  0  0  0  0  0  0
    7.9771   -4.4057   25.9197 N   0  0  0  0  0  0  0  0  0  0  0  0
    8.0950   -0.7700   20.8440 N   0  0  0  0  0  0  0  0  0  0  0  0
    7.6483   -3.3902   28.0174 O   0  0  0  0  0  0  0  0  0  0  0  0
    9.2950    1.3000   20.9480 O   0  0  0  0  0  0  0  0  0  0  0  0
    3.6223    2.0725   21.6574 H   0  0  0  0  0  0  0  0  0  0  0  0
    2.9864    2.6933   19.3609 H   0  0  0  0  0  0  0  0  0  0  0  0
    5.6689    0.7392   22.0836 H   0  0  0  0  0  0  0  0  0  0  0  0
   10.2695   -2.6718   22.3873 H   0  0  0  0  0  0  0  0  0  0  0  0
    7.8712   -0.0014   24.7587 H   0  0  0  0  0  0  0  0  0  0  0  0
    4.3807    2.0116   17.4186 H   0  0  0  0  0  0  0  0  0  0  0  0
    9.5431   -4.5618   23.7801 H   0  0  0  0  0  0  0  0  0  0  0  0
    7.1923   -1.8823   26.1912 H   0  0  0  0  0  0  0  0  0  0  0  0
   13.6211    1.4413   23.5835 H   0  0  0  0  0  0  0  0  0  0  0  0
   11.5720   -1.6936   21.4423 H   0  0  0  0  0  0  0  0  0  0  0  0
    7.8426   -5.4120   29.8725 H   0  0  0  0  0  0  0  0  0  0  0  0
    6.7635   -6.7961   29.6168 H   0  0  0  0  0  0  0  0  0  0  0  0
    6.1312   -5.1426   29.5100 H   0  0  0  0  0  0  0  0  0  0  0  0
   14.4286   -1.7247   19.9767 H   0  0  0  0  0  0  0  0  0  0  0  0
   15.2879   -2.2795   21.4534 H   0  0  0  0  0  0  0  0  0  0  0  0
   13.7343   -3.0265   21.0026 H   0  0  0  0  0  0  0  0  0  0  0  0
   10.7266    0.7141   24.2815 H   0  0  0  0  0  0  0  0  0  0  0  0
   10.6502    1.7003   22.8412 H   0  0  0  0  0  0  0  0  0  0  0  0
    6.4454   -6.1358   27.2396 H   0  0  0  0  0  0  0  0  0  0  0  0
    8.1567   -6.4320   27.6014 H   0  0  0  0  0  0  0  0  0  0  0  0
    8.7027    0.7972   23.4026 H   0  0  0  0  0  0  0  0  0  0  0  0
    6.7486    0.4313   16.8331 H   0  0  0  0  0  0  0  0  0  0  0  0
    7.9295   -5.3300   25.4752 H   0  0  0  0  0  0  0  0  0  0  0  0
    8.0757   -1.6162   21.0774 H   0  0  0  0  0  0  0  0  0  0  0  0
  1  2  1  0  0  0  0
  1  3  2  0  0  0  0
  2  6  2  0  0  0  0
  3 11  1  0  0  0  0
  4  7  2  0  0  0  0
  4 12  1  0  0  0  0
  5  8  1  0  0  0  0
  5 12  2  0  0  0  0
  6 14  1  0  0  0  0
  7 15  1  0  0  0  0
  8 15  2  0  0  0  0
  9 13  1  0  0  0  0
  9 24  2  0  0  0  0
 10 13  2  0  0  0  0
 10 27  1  0  0  0  0
 11 14  2  0  0  0  0
 11 16  1  0  0  0  0
 12 23  1  0  0  0  0
 13 21  1  0  0  0  0
 14 26  1  0  0  0  0
 15 28  1  0  0  0  0
 16 25  2  0  0  0  0
 16 29  1  0  0  0  0
 17 22  1  0  0  0  0
 17 28  1  0  0  0  0
 17 30  2  0  0  0  0
 18 23  1  0  0  0  0
 18 29  1  0  0  0  0
 18 31  2  0  0  0  0
 19 22  1  0  0  0  0
 20 27  1  0  0  0  0
 21 23  1  1  0  0  0
 24 27  1  0  0  0  0
 25 26  1  0  0  0  0
  1 32  1  0  0  0  0
  2 33  1  0  0  0  0
  3 34  1  0  0  0  0
  4 35  1  0  0  0  0
  5 36  1  0  0  0  0
  6 37  1  0  0  0  0
  7 38  1  0  0  0  0
  8 39  1  0  0  0  0
  9 40  1  0  0  0  0
 10 41  1  0  0  0  0
 19 42  1  0  0  0  0
 19 43  1  0  0  0  0
 19 44  1  0  0  0  0
 20 45  1  0  0  0  0
 20 46  1  0  0  0  0
 20 47  1  0  0  0  0
 21 48  1  0  0  0  0
 21 49  1  0  0  0  0
 22 50  1  0  0  0  0
 22 51  1  0  0  0  0
 23 52  1  0  0  0  0
 26 53  1  0  0  0  0
 28 54  1  0  0  0  0
 29 55  1  0  0  0  0
M  END
> <clash_score>
0

> <docking_score>
-8.634760856628418

> <overlap_score>
0.9468130469322205

$$$$
BENZO_237_1
  -OEChem-08222022453D

 48 51  0     1  0  0  0  0  0999 V2000
   14.4830   -0.9237   21.8249 C   0  0  0  0  0  0  0  0  0  0  0  0
    4.2460    1.7520   20.8250 C   0  0  0  0  0  0  0  0  0  0  0  0
   13.9310   -1.3719   23.0248 C   0  0  0  0  0  0  0  0  0  0  0  0
   13.8154    0.0379   21.0662 C   0  0  0  0  0  0  0  0  0  0  0  0
    3.8860    2.1050   19.5250 C   0  0  0  0  0  0  0  0  0  0  0  0
    5.3890    1.0010   21.0690 C   0  0  0  0  0  0  0  0  0  0  0  0
   12.7114   -0.8588   23.4661 C   0  0  0  0  0  0  0  0  0  0  0  0
   12.5958    0.5510   21.5075 C   0  0  0  0  0  0  0  0  0  0  0  0
    9.1890   -3.5540   24.0140 C   0  0  0  0  0  0  0  0  0  0  0  0
    7.8700   -2.0610   25.3550 C   0  0  0  0  0  0  0  0  0  0  0  0
    9.5890   -2.4950   23.2210 C   0  0  0  0  0  0  0  0  0  0  0  0
    8.2550   -1.0010   24.5520 C   0  0  0  0  0  0  0  0  0  0  0  0
    4.6610    1.7170   18.4380 C   0  0  0  0  0  0  0  0  0  0  0  0
    6.1460    0.6070   19.9750 C   0  0  0  0  0  0  0  0  0  0  0  0
    8.3450   -3.3440   25.0980 C   0  0  0  0  0  0  0  0  0  0  0  0
   12.0437    0.1027   22.7075 C   0  0  0  0  0  0  0  0  0  0  0  0
    9.1280   -1.2090   23.4870 C   0  0  0  0  0  0  0  0  0  0  0  0
    5.7970    0.9500   18.6730 C   0  0  0  0  0  0  0  0  0  0  0  0
    7.2710   -0.1460   19.8310 C   0  0  0  0  0  0  0  0  0  0  0  0
    9.0430    0.2380   21.4940 C   0  0  0  0  0  0  0  0  0  0  0  0
    7.9517   -4.4787   25.9770 C   0  0  0  0  0  0  0  0  0  0  0  0
   10.7220    0.6590   23.1850 C   0  0  0  0  0  0  0  0  0  0  0  0
    9.5820   -0.1080   22.7000 C   0  0  1  0  0  0  0  0  0  0  0  0
    7.5840   -0.2700   18.5160 N   0  0  0  0  0  0  0  0  0  0  0  0
    6.7100    0.3850   17.8100 N   0  0  0  0  0  0  0  0  0  0  0  0
    8.0950   -0.7700   20.8440 N   0  0  0  0  0  0  0  0  0  0  0  0
    9.2950    1.3000   20.9480 O   0  0  0  0  0  0  0  0  0  0  0  0
   15.4334   -1.3223   21.4820 H   0  0  0  0  0  0  0  0  0  0  0  0
    3.6223    2.0725   21.6574 H   0  0  0  0  0  0  0  0  0  0  0  0
   14.4512   -2.1198   23.6162 H   0  0  0  0  0  0  0  0  0  0  0  0
   14.2455    0.3879   20.1325 H   0  0  0  0  0  0  0  0  0  0  0  0
    2.9864    2.6933   19.3609 H   0  0  0  0  0  0  0  0  0  0  0  0
    5.6689    0.7392   22.0836 H   0  0  0  0  0  0  0  0  0  0  0  0
   12.2887   -1.2141   24.4023 H   0  0  0  0  0  0  0  0  0  0  0  0
   12.0827    1.2998   20.9098 H   0  0  0  0  0  0  0  0  0  0  0  0
    9.5416   -4.5625   23.7818 H   0  0  0  0  0  0  0  0  0  0  0  0
    7.1926   -1.8847   26.1916 H   0  0  0  0  0  0  0  0  0  0  0  0
   10.2688   -2.6720   22.3870 H   0  0  0  0  0  0  0  0  0  0  0  0
    7.8705   -0.0015   24.7579 H   0  0  0  0  0  0  0  0  0  0  0  0
    4.3807    2.0116   17.4186 H   0  0  0  0  0  0  0  0  0  0  0  0
    8.6661   -4.5883   26.8021 H   0  0  0  0  0  0  0  0  0  0  0  0
    6.9508   -4.3263   26.4014 H   0  0  0  0  0  0  0  0  0  0  0  0
    7.9188   -5.4228   25.4175 H   0  0  0  0  0  0  0  0  0  0  0  0
   10.7266    0.7141   24.2815 H   0  0  0  0  0  0  0  0  0  0  0  0
   10.6502    1.7003   22.8412 H   0  0  0  0  0  0  0  0  0  0  0  0
    8.7027    0.7972   23.4026 H   0  0  0  0  0  0  0  0  0  0  0  0
    6.7486    0.4313   16.8331 H   0  0  0  0  0  0  0  0  0  0  0  0
    8.0757   -1.6162   21.0774 H   0  0  0  0  0  0  0  0  0  0  0  0
  1  3  1  0  0  0  0
  1  4  2  0  0  0  0
  2  5  1  0  0  0  0
  2  6  2  0  0  0  0
  3  7  2  0  0  0  0
  4  8  1  0  0  0  0
  5 13  2  0  0  0  0
  6 14  1  0  0  0  0
  7 16  1  0  0  0  0
  8 16  2  0  0  0  0
  9 11  2  0  0  0  0
  9 15  1  0  0  0  0
 10 12  1  0  0  0  0
 10 15  2  0  0  0  0
 11 17  1  0  0  0  0
 12 17  2  0  0  0  0
 13 18  1  0  0  0  0
 14 18  2  0  0  0  0
 14 19  1  0  0  0  0
 15 21  1  0  0  0  0
 16 22  1  0  0  0  0
 17 23  1  0  0  0  0
 18 25  1  0  0  0  0
 19 24  2  0  0  0  0
 19 26  1  0  0  0  0
 20 23  1  0  0  0  0
 20 26  1  0  0  0  0
 20 27  2  0  0  0  0
 22 23  1  1  0  0  0
 24 25  1  0  0  0  0
  1 28  1  0  0  0  0
  2 29  1  0  0  0  0
  3 30  1  0  0  0  0
  4 31  1  0  0  0  0
  5 32  1  0  0  0  0
  6 33  1  0  0  0  0
  7 34  1  0  0  0  0
  8 35  1  0  0  0  0
  9 36  1  0  0  0  0
 10 37  1  0  0  0  0
 11 38  1  0  0  0  0
 12 39  1  0  0  0  0
 13 40  1  0  0  0  0
 21 41  1  0  0  0  0
 21 42  1  0  0  0  0
 21 43  1  0  0  0  0
 22 44  1  0  0  0  0
 22 45  1  0  0  0  0
 23 46  1  0  0  0  0
 25 47  1  0  0  0  0
 26 48  1  0  0  0  0
M  END
> <clash_score>
0

> <docking_score>
-5.97261905670166

> <overlap_score>
0.869091272354126

$$$$
BENZO_237_2
  -OEChem-08222022453D

 48 51  0     1  0  0  0  0  0999 V2000
   14.0137   -1.8398   24.3768 C   0  0  0  0  0  0  0  0  0  0  0  0
    4.2460    1.7520   20.8250 C   0  0  0  0  0  0  0  0  0  0  0  0
   13.0361   -1.4844   25.3061 C   0  0  0  0  0  0  0  0  0  0  0  0
   13.9239   -1.3848   23.0613 C   0  0  0  0  0  0  0  0  0  0  0  0
    3.8860    2.1050   19.5250 C   0  0  0  0  0  0  0  0  0  0  0  0
    5.3890    1.0010   21.0690 C   0  0  0  0  0  0  0  0  0  0  0  0
   11.9686   -0.6740   24.9198 C   0  0  0  0  0  0  0  0  0  0  0  0
   12.8563   -0.5744   22.6750 C   0  0  0  0  0  0  0  0  0  0  0  0
    9.1890   -3.5540   24.0140 C   0  0  0  0  0  0  0  0  0  0  0  0
    7.8700   -2.0610   25.3550 C   0  0  0  0  0  0  0  0  0  0  0  0
    9.5890   -2.4950   23.2210 C   0  0  0  0  0  0  0  0  0  0  0  0
    8.2550   -1.0010   24.5520 C   0  0  0  0  0  0  0  0  0  0  0  0
    4.6610    1.7170   18.4380 C   0  0  0  0  0  0  0  0  0  0  0  0
    6.1460    0.6070   19.9750 C   0  0  0  0  0  0  0  0  0  0  0  0
    8.3450   -3.3440   25.0980 C   0  0  0  0  0  0  0  0  0  0  0  0
   11.8786   -0.2190   23.6043 C   0  0  0  0  0  0  0  0  0  0  0  0
    9.1280   -1.2090   23.4870 C   0  0  0  0  0  0  0  0  0  0  0  0
    5.7970    0.9500   18.6730 C   0  0  0  0  0  0  0  0  0  0  0  0
    7.2710   -0.1460   19.8310 C   0  0  0  0  0  0  0  0  0  0  0  0
    9.0430    0.2380   21.4940 C   0  0  0  0  0  0  0  0  0  0  0  0
    7.9517   -4.4787   25.9770 C   0  0  0  0  0  0  0  0  0  0  0  0
   10.7220    0.6590   23.1850 C   0  0  0  0  0  0  0  0  0  0  0  0
    9.5820   -0.1080   22.7000 C   0  0  2  0  0  0  0  0  0  0  0  0
    7.5840   -0.2700   18.5160 N   0  0  0  0  0  0  0  0  0  0  0  0
    6.7100    0.3850   17.8100 N   0  0  0  0  0  0  0  0  0  0  0  0
    8.0950   -0.7700   20.8440 N   0  0  0  0  0  0  0  0  0  0  0  0
    9.2950    1.3000   20.9480 O   0  0  0  0  0  0  0  0  0  0  0  0
   14.8456   -2.4698   24.6781 H   0  0  0  0  0  0  0  0  0  0  0  0
    3.6223    2.0725   21.6574 H   0  0  0  0  0  0  0  0  0  0  0  0
   13.1065   -1.8377   26.3307 H   0  0  0  0  0  0  0  0  0  0  0  0
   14.6854   -1.6605   22.3378 H   0  0  0  0  0  0  0  0  0  0  0  0
    2.9864    2.6933   19.3609 H   0  0  0  0  0  0  0  0  0  0  0  0
    5.6689    0.7392   22.0836 H   0  0  0  0  0  0  0  0  0  0  0  0
   11.2114   -0.4022   25.6506 H   0  0  0  0  0  0  0  0  0  0  0  0
   12.7944   -0.2247   21.6479 H   0  0  0  0  0  0  0  0  0  0  0  0
    9.5416   -4.5625   23.7818 H   0  0  0  0  0  0  0  0  0  0  0  0
    7.1926   -1.8847   26.1916 H   0  0  0  0  0  0  0  0  0  0  0  0
   10.2688   -2.6720   22.3870 H   0  0  0  0  0  0  0  0  0  0  0  0
    7.8705   -0.0015   24.7579 H   0  0  0  0  0  0  0  0  0  0  0  0
    4.3807    2.0116   17.4186 H   0  0  0  0  0  0  0  0  0  0  0  0
    8.6661   -4.5883   26.8021 H   0  0  0  0  0  0  0  0  0  0  0  0
    6.9508   -4.3263   26.4014 H   0  0  0  0  0  0  0  0  0  0  0  0
    7.9188   -5.4228   25.4175 H   0  0  0  0  0  0  0  0  0  0  0  0
   10.4369    1.3080   24.0233 H   0  0  0  0  0  0  0  0  0  0  0  0
   11.0815    1.3384   22.3997 H   0  0  0  0  0  0  0  0  0  0  0  0
   10.5413   -0.9955   22.0233 H   0  0  0  0  0  0  0  0  0  0  0  0
    6.7486    0.4313   16.8331 H   0  0  0  0  0  0  0  0  0  0  0  0
    8.0757   -1.6162   21.0774 H   0  0  0  0  0  0  0  0  0  0  0  0
  1  3  1  0  0  0  0
  1  4  2  0  0  0  0
  2  5  1  0  0  0  0
  2  6  2  0  0  0  0
  3  7  2  0  0  0  0
  4  8  1  0  0  0  0
  5 13  2  0  0  0  0
  6 14  1  0  0  0  0
  7 16  1  0  0  0  0
  8 16  2  0  0  0  0
  9 11  2  0  0  0  0
  9 15  1  0  0  0  0
 10 12  1  0  0  0  0
 10 15  2  0  0  0  0
 11 17  1  0  0  0  0
 12 17  2  0  0  0  0
 13 18  1  0  0  0  0
 14 18  2  0  0  0  0
 14 19  1  0  0  0  0
 15 21  1  0  0  0  0
 16 22  1  0  0  0  0
 17 23  1  0  0  0  0
 18 25  1  0  0  0  0
 19 24  2  0  0  0  0
 19 26  1  0  0  0  0
 20 23  1  0  0  0  0
 20 26  1  0  0  0  0
 20 27  2  0  0  0  0
 22 23  1  6  0  0  0
 24 25  1  0  0  0  0
  1 28  1  0  0  0  0
  2 29  1  0  0  0  0
  3 30  1  0  0  0  0
  4 31  1  0  0  0  0
  5 32  1  0  0  0  0
  6 33  1  0  0  0  0
  7 34  1  0  0  0  0
  8 35  1  0  0  0  0
  9 36  1  0  0  0  0
 10 37  1  0  0  0  0
 11 38  1  0  0  0  0
 12 39  1  0  0  0  0
 13 40  1  0  0  0  0
 21 41  1  0  0  0  0
 21 42  1  0  0  0  0
 21 43  1  0  0  0  0
 22 44  1  0  0  0  0
 22 45  1  0  0  0  0
 23 46  1  0  0  0  0
 25 47  1  0  0  0  0
 26 48  1  0  0  0  0
M  END
> <clash_score>
0

> <docking_score>
-6.819191932678223

> <overlap_score>
0.8833889365196228

$$$$
BENZO_236_1
  -OEChem-08222022453D

 45 48  0     1  0  0  0  0  0999 V2000
    4.2460    1.7520   20.8250 C   0  0  0  0  0  0  0  0  0  0  0  0
    3.8860    2.1050   19.5250 C   0  0  0  0  0  0  0  0  0  0  0  0
    5.3890    1.0010   21.0690 C   0  0  0  0  0  0  0  0  0  0  0  0
    9.1890   -3.5540   24.0140 C   0  0  0  0  0  0  0  0  0  0  0  0
    7.8700   -2.0610   25.3550 C   0  0  0  0  0  0  0  0  0  0  0  0
    9.5890   -2.4950   23.2210 C   0  0  0  0  0  0  0  0  0  0  0  0
    8.2550   -1.0010   24.5520 C   0  0  0  0  0  0  0  0  0  0  0  0
    4.6610    1.7170   18.4380 C   0  0  0  0  0  0  0  0  0  0  0  0
   13.1058   -0.2791   23.5772 C   0  0  0  0  0  0  0  0  0  0  0  0
   14.1974   -0.7534   22.8836 C   0  0  0  0  0  0  0  0  0  0  0  0
   12.3642   -0.0940   21.3822 C   0  0  0  0  0  0  0  0  0  0  0  0
    6.1460    0.6070   19.9750 C   0  0  0  0  0  0  0  0  0  0  0  0
    8.3450   -3.3440   25.0980 C   0  0  0  0  0  0  0  0  0  0  0  0
    9.1280   -1.2090   23.4870 C   0  0  0  0  0  0  0  0  0  0  0  0
   12.0437    0.1027   22.7075 C   0  0  0  0  0  0  0  0  0  0  0  0
    5.7970    0.9500   18.6730 C   0  0  0  0  0  0  0  0  0  0  0  0
    7.2710   -0.1460   19.8310 C   0  0  0  0  0  0  0  0  0  0  0  0
    9.0430    0.2380   21.4940 C   0  0  0  0  0  0  0  0  0  0  0  0
    7.9517   -4.4787   25.9770 C   0  0  0  0  0  0  0  0  0  0  0  0
   10.7220    0.6590   23.1850 C   0  0  0  0  0  0  0  0  0  0  0  0
    9.5820   -0.1080   22.7000 C   0  0  1  0  0  0  0  0  0  0  0  0
    7.5840   -0.2700   18.5160 N   0  0  0  0  0  0  0  0  0  0  0  0
    6.7100    0.3850   17.8100 N   0  0  0  0  0  0  0  0  0  0  0  0
    8.0950   -0.7700   20.8440 N   0  0  0  0  0  0  0  0  0  0  0  0
    9.2950    1.3000   20.9480 O   0  0  0  0  0  0  0  0  0  0  0  0
   13.9398   -0.7369   21.1908 S   0  0  0  0  0  0  0  0  0  0  0  0
    3.6223    2.0725   21.6574 H   0  0  0  0  0  0  0  0  0  0  0  0
    2.9864    2.6933   19.3609 H   0  0  0  0  0  0  0  0  0  0  0  0
    5.6689    0.7392   22.0836 H   0  0  0  0  0  0  0  0  0  0  0  0
    9.5416   -4.5625   23.7818 H   0  0  0  0  0  0  0  0  0  0  0  0
    7.1926   -1.8847   26.1916 H   0  0  0  0  0  0  0  0  0  0  0  0
   10.2688   -2.6720   22.3870 H   0  0  0  0  0  0  0  0  0  0  0  0
    7.8705   -0.0015   24.7579 H   0  0  0  0  0  0  0  0  0  0  0  0
    4.3807    2.0116   17.4186 H   0  0  0  0  0  0  0  0  0  0  0  0
   13.0750   -0.2107   24.6573 H   0  0  0  0  0  0  0  0  0  0  0  0
   15.1341   -1.1080   23.2899 H   0  0  0  0  0  0  0  0  0  0  0  0
   11.7521    0.1087   20.5143 H   0  0  0  0  0  0  0  0  0  0  0  0
    8.6661   -4.5883   26.8021 H   0  0  0  0  0  0  0  0  0  0  0  0
    6.9508   -4.3263   26.4014 H   0  0  0  0  0  0  0  0  0  0  0  0
    7.9188   -5.4228   25.4175 H   0  0  0  0  0  0  0  0  0  0  0  0
   10.7266    0.7141   24.2815 H   0  0  0  0  0  0  0  0  0  0  0  0
   10.6502    1.7003   22.8412 H   0  0  0  0  0  0  0  0  0  0  0  0
    8.7027    0.7972   23.4026 H   0  0  0  0  0  0  0  0  0  0  0  0
    6.7486    0.4313   16.8331 H   0  0  0  0  0  0  0  0  0  0  0  0
    8.0757   -1.6162   21.0774 H   0  0  0  0  0  0  0  0  0  0  0  0
  1  2  1  0  0  0  0
  1  3  2  0  0  0  0
  2  8  2  0  0  0  0
  3 12  1  0  0  0  0
  4  6  2  0  0  0  0
  4 13  1  0  0  0  0
  5  7  1  0  0  0  0
  5 13  2  0  0  0  0
  6 14  1  0  0  0  0
  7 14  2  0  0  0  0
  8 16  1  0  0  0  0
  9 10  2  0  0  0  0
  9 15  1  0  0  0  0
 10 26  1  0  0  0  0
 11 15  2  0  0  0  0
 11 26  1  0  0  0  0
 12 16  2  0  0  0  0
 12 17  1  0  0  0  0
 13 19  1  0  0  0  0
 14 21  1  0  0  0  0
 15 20  1  0  0  0  0
 16 23  1  0  0  0  0
 17 22  2  0  0  0  0
 17 24  1  0  0  0  0
 18 21  1  0  0  0  0
 18 24  1  0  0  0  0
 18 25  2  0  0  0  0
 20 21  1  1  0  0  0
 22 23  1  0  0  0  0
  1 27  1  0  0  0  0
  2 28  1  0  0  0  0
  3 29  1  0  0  0  0
  4 30  1  0  0  0  0
  5 31  1  0  0  0  0
  6 32  1  0  0  0  0
  7 33  1  0  0  0  0
  8 34  1  0  0  0  0
  9 35  1  0  0  0  0
 10 36  1  0  0  0  0
 11 37  1  0  0  0  0
 19 38  1  0  0  0  0
 19 39  1  0  0  0  0
 19 40  1  0  0  0  0
 20 41  1  0  0  0  0
 20 42  1  0  0  0  0
 21 43  1  0  0  0  0
 23 44  1  0  0  0  0
 24 45  1  0  0  0  0
M  END
> <clash_score>
0

> <docking_score>
-6.031747817993164

> <overlap_score>
0.8589656352996826

$$$$
BENZO_236_2
  -OEChem-08222022453D

 45 48  0     1  0  0  0  0  0999 V2000
    4.2460    1.7520   20.8250 C   0  0  0  0  0  0  0  0  0  0  0  0
    3.8860    2.1050   19.5250 C   0  0  0  0  0  0  0  0  0  0  0  0
    5.3890    1.0010   21.0690 C   0  0  0  0  0  0  0  0  0  0  0  0
    9.1890   -3.5540   24.0140 C   0  0  0  0  0  0  0  0  0  0  0  0
    7.8700   -2.0610   25.3550 C   0  0  0  0  0  0  0  0  0  0  0  0
    9.5890   -2.4950   23.2210 C   0  0  0  0  0  0  0  0  0  0  0  0
    8.2550   -1.0010   24.5520 C   0  0  0  0  0  0  0  0  0  0  0  0
    4.6610    1.7170   18.4380 C   0  0  0  0  0  0  0  0  0  0  0  0
   12.2697   -1.3786   23.5962 C   0  0  0  0  0  0  0  0  0  0  0  0
   13.0792   -1.9302   24.5647 C   0  0  0  0  0  0  0  0  0  0  0  0
   12.0282    0.1612   25.3205 C   0  0  0  0  0  0  0  0  0  0  0  0
    6.1460    0.6070   19.9750 C   0  0  0  0  0  0  0  0  0  0  0  0
    8.3450   -3.3440   25.0980 C   0  0  0  0  0  0  0  0  0  0  0  0
    9.1280   -1.2090   23.4870 C   0  0  0  0  0  0  0  0  0  0  0  0
   11.6609   -0.1670   24.0339 C   0  0  0  0  0  0  0  0  0  0  0  0
    5.7970    0.9500   18.6730 C   0  0  0  0  0  0  0  0  0  0  0  0
    7.2710   -0.1460   19.8310 C   0  0  0  0  0  0  0  0  0  0  0  0
    9.0430    0.2380   21.4940 C   0  0  0  0  0  0  0  0  0  0  0  0
    7.9517   -4.4787   25.9770 C   0  0  0  0  0  0  0  0  0  0  0  0
   10.7220    0.6590   23.1850 C   0  0  0  0  0  0  0  0  0  0  0  0
    9.5820   -0.1080   22.7000 C   0  0  2  0  0  0  0  0  0  0  0  0
    7.5840   -0.2700   18.5160 N   0  0  0  0  0  0  0  0  0  0  0  0
    6.7100    0.3850   17.8100 N   0  0  0  0  0  0  0  0  0  0  0  0
    8.0950   -0.7700   20.8440 N   0  0  0  0  0  0  0  0  0  0  0  0
    9.2950    1.3000   20.9480 O   0  0  0  0  0  0  0  0  0  0  0  0
   13.1030   -0.9887   25.9949 S   0  0  0  0  0  0  0  0  0  0  0  0
    3.6223    2.0725   21.6574 H   0  0  0  0  0  0  0  0  0  0  0  0
    2.9864    2.6933   19.3609 H   0  0  0  0  0  0  0  0  0  0  0  0
    5.6689    0.7392   22.0836 H   0  0  0  0  0  0  0  0  0  0  0  0
    9.5416   -4.5625   23.7818 H   0  0  0  0  0  0  0  0  0  0  0  0
    7.1926   -1.8847   26.1916 H   0  0  0  0  0  0  0  0  0  0  0  0
   10.2688   -2.6720   22.3870 H   0  0  0  0  0  0  0  0  0  0  0  0
    7.8705   -0.0015   24.7579 H   0  0  0  0  0  0  0  0  0  0  0  0
    4.3807    2.0116   17.4186 H   0  0  0  0  0  0  0  0  0  0  0  0
   12.1237   -1.8267   22.6214 H   0  0  0  0  0  0  0  0  0  0  0  0
   13.6572   -2.8413   24.5012 H   0  0  0  0  0  0  0  0  0  0  0  0
   11.7184    1.0194   25.9005 H   0  0  0  0  0  0  0  0  0  0  0  0
    8.6661   -4.5883   26.8021 H   0  0  0  0  0  0  0  0  0  0  0  0
    6.9508   -4.3263   26.4014 H   0  0  0  0  0  0  0  0  0  0  0  0
    7.9188   -5.4228   25.4175 H   0  0  0  0  0  0  0  0  0  0  0  0
   10.3958    1.5383   23.7557 H   0  0  0  0  0  0  0  0  0  0  0  0
   11.2964    1.0584   22.3376 H   0  0  0  0  0  0  0  0  0  0  0  0
   10.5413   -0.9955   22.0233 H   0  0  0  0  0  0  0  0  0  0  0  0
    6.7486    0.4313   16.8331 H   0  0  0  0  0  0  0  0  0  0  0  0
    8.0757   -1.6162   21.0774 H   0  0  0  0  0  0  0  0  0  0  0  0
  1  2  1  0  0  0  0
  1  3  2  0  0  0  0
  2  8  2  0  0  0  0
  3 12  1  0  0  0  0
  4  6  2  0  0  0  0
  4 13  1  0  0  0  0
  5  7  1  0  0  0  0
  5 13  2  0  0  0  0
  6 14  1  0  0  0  0
  7 14  2  0  0  0  0
  8 16  1  0  0  0  0
  9 10  2  0  0  0  0
  9 15  1  0  0  0  0
 10 26  1  0  0  0  0
 11 15  2  0  0  0  0
 11 26  1  0  0  0  0
 12 16  2  0  0  0  0
 12 17  1  0  0  0  0
 13 19  1  0  0  0  0
 14 21  1  0  0  0  0
 15 20  1  0  0  0  0
 16 23  1  0  0  0  0
 17 22  2  0  0  0  0
 17 24  1  0  0  0  0
 18 21  1  0  0  0  0
 18 24  1  0  0  0  0
 18 25  2  0  0  0  0
 20 21  1  6  0  0  0
 22 23  1  0  0  0  0
  1 27  1  0  0  0  0
  2 28  1  0  0  0  0
  3 29  1  0  0  0  0
  4 30  1  0  0  0  0
  5 31  1  0  0  0  0
  6 32  1  0  0  0  0
  7 33  1  0  0  0  0
  8 34  1  0  0  0  0
  9 35  1  0  0  0  0
 10 36  1  0  0  0  0
 11 37  1  0  0  0  0
 19 38  1  0  0  0  0
 19 39  1  0  0  0  0
 19 40  1  0  0  0  0
 20 41  1  0  0  0  0
 20 42  1  0  0  0  0
 21 43  1  0  0  0  0
 23 44  1  0  0  0  0
 24 45  1  0  0  0  0
M  END
> <clash_score>
0

> <docking_score>
-4.652673721313477

> <overlap_score>
0.8264034390449524

$$$$
BENZO_235_1
  -OEChem-08222022453D

 60 64  0     1  0  0  0  0  0999 V2000
    4.2460    1.7520   20.8250 C   0  0  0  0  0  0  0  0  0  0  0  0
    3.8860    2.1050   19.5250 C   0  0  0  0  0  0  0  0  0  0  0  0
    5.3890    1.0010   21.0690 C   0  0  0  0  0  0  0  0  0  0  0  0
    9.5890   -2.4950   23.2210 C   0  0  0  0  0  0  0  0  0  0  0  0
    8.2550   -1.0010   24.5520 C   0  0  0  0  0  0  0  0  0  0  0  0
    4.6610    1.7170   18.4380 C   0  0  0  0  0  0  0  0  0  0  0  0
    9.1890   -3.5540   24.0140 C   0  0  0  0  0  0  0  0  0  0  0  0
    7.8700   -2.0610   25.3550 C   0  0  0  0  0  0  0  0  0  0  0  0
   13.2924    0.1786   23.3840 C   0  0  0  0  0  0  0  0  0  0  0  0
   12.3227   -0.5596   21.5537 C   0  0  0  0  0  0  0  0  0  0  0  0
    6.1460    0.6070   19.9750 C   0  0  0  0  0  0  0  0  0  0  0  0
    9.1280   -1.2090   23.4870 C   0  0  0  0  0  0  0  0  0  0  0  0
   12.0528    0.1138   22.7200 C   0  0  0  0  0  0  0  0  0  0  0  0
    5.7970    0.9500   18.6730 C   0  0  0  0  0  0  0  0  0  0  0  0
    8.3450   -3.3440   25.0980 C   0  0  0  0  0  0  0  0  0  0  0  0
    7.2710   -0.1460   19.8310 C   0  0  0  0  0  0  0  0  0  0  0  0
    9.0430    0.2380   21.4940 C   0  0  0  0  0  0  0  0  0  0  0  0
    7.9496   -4.9537   28.7345 C   0  0  0  0  0  0  0  0  0  0  0  0
    6.8919   -4.0607   28.0818 C   0  0  0  0  0  0  0  0  0  0  0  0
    9.2470   -4.9693   27.9230 C   0  0  0  0  0  0  0  0  0  0  0  0
    6.6889   -4.4385   26.6147 C   0  0  0  0  0  0  0  0  0  0  0  0
    8.9871   -5.3207   26.4549 C   0  0  0  0  0  0  0  0  0  0  0  0
   14.4073   -1.5491   20.5768 C   0  0  0  0  0  0  0  0  0  0  0  0
   10.7220    0.6590   23.1850 C   0  0  0  0  0  0  0  0  0  0  0  0
    9.5820   -0.1080   22.7000 C   0  0  1  0  0  0  0  0  0  0  0  0
   14.2767   -0.4070   22.6967 N   0  0  0  0  0  0  0  0  0  0  0  0
    7.5840   -0.2700   18.5160 N   0  0  0  0  0  0  0  0  0  0  0  0
    6.7100    0.3850   17.8100 N   0  0  0  0  0  0  0  0  0  0  0  0
   13.6557   -0.8463   21.5888 N   0  0  0  0  0  0  0  0  0  0  0  0
    7.9769   -4.4027   25.9163 N   0  0  0  0  0  0  0  0  0  0  0  0
    8.0950   -0.7700   20.8440 N   0  0  0  0  0  0  0  0  0  0  0  0
    9.2950    1.3000   20.9480 O   0  0  0  0  0  0  0  0  0  0  0  0
    3.6223    2.0725   21.6574 H   0  0  0  0  0  0  0  0  0  0  0  0
    2.9864    2.6933   19.3609 H   0  0  0  0  0  0  0  0  0  0  0  0
    5.6689    0.7392   22.0836 H   0  0  0  0  0  0  0  0  0  0  0  0
   10.2684   -2.6719   22.3867 H   0  0  0  0  0  0  0  0  0  0  0  0
    7.8717   -0.0016   24.7596 H   0  0  0  0  0  0  0  0  0  0  0  0
    4.3807    2.0116   17.4186 H   0  0  0  0  0  0  0  0  0  0  0  0
    9.5443   -4.5616   23.7817 H   0  0  0  0  0  0  0  0  0  0  0  0
    7.1921   -1.8821   26.1908 H   0  0  0  0  0  0  0  0  0  0  0  0
   13.5219    0.6268   24.3404 H   0  0  0  0  0  0  0  0  0  0  0  0
   11.6952   -0.8530   20.7231 H   0  0  0  0  0  0  0  0  0  0  0  0
    8.1558   -4.5961   29.7550 H   0  0  0  0  0  0  0  0  0  0  0  0
    7.5611   -5.9778   28.8324 H   0  0  0  0  0  0  0  0  0  0  0  0
    5.9459   -4.1594   28.6209 H   0  0  0  0  0  0  0  0  0  0  0  0
    7.2011   -3.0160   28.1536 H   0  0  0  0  0  0  0  0  0  0  0  0
    9.7290   -3.9880   27.9846 H   0  0  0  0  0  0  0  0  0  0  0  0
    9.9437   -5.6964   28.3562 H   0  0  0  0  0  0  0  0  0  0  0  0
    6.2543   -5.4402   26.5659 H   0  0  0  0  0  0  0  0  0  0  0  0
    5.9909   -3.7397   26.1451 H   0  0  0  0  0  0  0  0  0  0  0  0
    9.9128   -5.2367   25.8843 H   0  0  0  0  0  0  0  0  0  0  0  0
    8.6365   -6.3517   26.3987 H   0  0  0  0  0  0  0  0  0  0  0  0
   14.7895   -0.8108   19.8669 H   0  0  0  0  0  0  0  0  0  0  0  0
   15.2329   -2.0907   21.0468 H   0  0  0  0  0  0  0  0  0  0  0  0
   13.7520   -2.2637   20.0711 H   0  0  0  0  0  0  0  0  0  0  0  0
   10.7177    0.7189   24.2812 H   0  0  0  0  0  0  0  0  0  0  0  0
   10.6426    1.6980   22.8361 H   0  0  0  0  0  0  0  0  0  0  0  0
    8.7036    0.8022   23.4008 H   0  0  0  0  0  0  0  0  0  0  0  0
    6.7486    0.4313   16.8331 H   0  0  0  0  0  0  0  0  0  0  0  0
    8.0917   -1.6083   21.0911 H   0  0  0  0  0  0  0  0  0  0  0  0
  1  2  1  0  0  0  0
  1  3  2  0  0  0  0
  2  6  2  0  0  0  0
  3 11  1  0  0  0  0
  4  7  2  0  0  0  0
  4 12  1  0  0  0  0
  5  8  1  0  0  0  0
  5 12  2  0  0  0  0
  6 14  1  0  0  0  0
  7 15  1  0  0  0  0
  8 15  2  0  0  0  0
  9 13  1  0  0  0  0
  9 26  2  0  0  0  0
 10 13  2  0  0  0  0
 10 29  1  0  0  0  0
 11 14  2  0  0  0  0
 11 16  1  0  0  0  0
 12 25  1  0  0  0  0
 13 24  1  0  0  0  0
 14 28  1  0  0  0  0
 15 30  1  0  0  0  0
 16 27  2  0  0  0  0
 16 31  1  0  0  0  0
 17 25  1  0  0  0  0
 17 31  1  0  0  0  0
 17 32  2  0  0  0  0
 18 19  1  0  0  0  0
 18 20  1  0  0  0  0
 19 21  1  0  0  0  0
 20 22  1  0  0  0  0
 21 30  1  0  0  0  0
 22 30  1  0  0  0  0
 23 29  1  0  0  0  0
 24 25  1  1  0  0  0
 26 29  1  0  0  0  0
 27 28  1  0  0  0  0
  1 33  1  0  0  0  0
  2 34  1  0  0  0  0
  3 35  1  0  0  0  0
  4 36  1  0  0  0  0
  5 37  1  0  0  0  0
  6 38  1  0  0  0  0
  7 39  1  0  0  0  0
  8 40  1  0  0  0  0
  9 41  1  0  0  0  0
 10 42  1  0  0  0  0
 18 43  1  0  0  0  0
 18 44  1  0  0  0  0
 19 45  1  0  0  0  0
 19 46  1  0  0  0  0
 20 47  1  0  0  0  0
 20 48  1  0  0  0  0
 21 49  1  0  0  0  0
 21 50  1  0  0  0  0
 22 51  1  0  0  0  0
 22 52  1  0  0  0  0
 23 53  1  0  0  0  0
 23 54  1  0  0  0  0
 23 55  1  0  0  0  0
 24 56  1  0  0  0  0
 24 57  1  0  0  0  0
 25 58  1  0  0  0  0
 28 59  1  0  0  0  0
 31 60  1  0  0  0  0
M  END
> <clash_score>
0

> <docking_score>
-8.158964157104492

> <overlap_score>
0.9499579668045044

$$$$
BENZO_235_2
  -OEChem-08222022453D

 60 64  0     1  0  0  0  0  0999 V2000
    4.2460    1.7520   20.8250 C   0  0  0  0  0  0  0  0  0  0  0  0
    3.8860    2.1050   19.5250 C   0  0  0  0  0  0  0  0  0  0  0  0
    5.3890    1.0010   21.0690 C   0  0  0  0  0  0  0  0  0  0  0  0
    9.5890   -2.4950   23.2210 C   0  0  0  0  0  0  0  0  0  0  0  0
    8.2550   -1.0010   24.5520 C   0  0  0  0  0  0  0  0  0  0  0  0
    4.6610    1.7170   18.4380 C   0  0  0  0  0  0  0  0  0  0  0  0
    9.1890   -3.5540   24.0140 C   0  0  0  0  0  0  0  0  0  0  0  0
    7.8700   -2.0610   25.3550 C   0  0  0  0  0  0  0  0  0  0  0  0
   12.1478   -0.7466   24.8788 C   0  0  0  0  0  0  0  0  0  0  0  0
   12.9365   -0.6363   22.8292 C   0  0  0  0  0  0  0  0  0  0  0  0
    6.1460    0.6070   19.9750 C   0  0  0  0  0  0  0  0  0  0  0  0
    9.1280   -1.2090   23.4870 C   0  0  0  0  0  0  0  0  0  0  0  0
   11.8895   -0.2037   23.6058 C   0  0  0  0  0  0  0  0  0  0  0  0
    5.7970    0.9500   18.6730 C   0  0  0  0  0  0  0  0  0  0  0  0
    8.3450   -3.3440   25.0980 C   0  0  0  0  0  0  0  0  0  0  0  0
    7.2710   -0.1460   19.8310 C   0  0  0  0  0  0  0  0  0  0  0  0
    9.0430    0.2380   21.4940 C   0  0  0  0  0  0  0  0  0  0  0  0
    7.9496   -4.9537   28.7345 C   0  0  0  0  0  0  0  0  0  0  0  0
    6.8919   -4.0607   28.0818 C   0  0  0  0  0  0  0  0  0  0  0  0
    9.2470   -4.9693   27.9230 C   0  0  0  0  0  0  0  0  0  0  0  0
    6.6889   -4.4385   26.6147 C   0  0  0  0  0  0  0  0  0  0  0  0
    8.9871   -5.3207   26.4549 C   0  0  0  0  0  0  0  0  0  0  0  0
   14.9529   -2.0519   23.2864 C   0  0  0  0  0  0  0  0  0  0  0  0
   10.7220    0.6590   23.1850 C   0  0  0  0  0  0  0  0  0  0  0  0
    9.5820   -0.1080   22.7000 C   0  0  2  0  0  0  0  0  0  0  0  0
   13.2706   -1.4691   24.9131 N   0  0  0  0  0  0  0  0  0  0  0  0
    7.5840   -0.2700   18.5160 N   0  0  0  0  0  0  0  0  0  0  0  0
    6.7100    0.3850   17.8100 N   0  0  0  0  0  0  0  0  0  0  0  0
   13.7272   -1.3833   23.6520 N   0  0  0  0  0  0  0  0  0  0  0  0
    7.9769   -4.4027   25.9163 N   0  0  0  0  0  0  0  0  0  0  0  0
    8.0950   -0.7700   20.8440 N   0  0  0  0  0  0  0  0  0  0  0  0
    9.2950    1.3000   20.9480 O   0  0  0  0  0  0  0  0  0  0  0  0
    3.6223    2.0725   21.6574 H   0  0  0  0  0  0  0  0  0  0  0  0
    2.9864    2.6933   19.3609 H   0  0  0  0  0  0  0  0  0  0  0  0
    5.6689    0.7392   22.0836 H   0  0  0  0  0  0  0  0  0  0  0  0
   10.2684   -2.6719   22.3867 H   0  0  0  0  0  0  0  0  0  0  0  0
    7.8717   -0.0016   24.7596 H   0  0  0  0  0  0  0  0  0  0  0  0
    4.3807    2.0116   17.4186 H   0  0  0  0  0  0  0  0  0  0  0  0
    9.5443   -4.5616   23.7817 H   0  0  0  0  0  0  0  0  0  0  0  0
    7.1921   -1.8821   26.1908 H   0  0  0  0  0  0  0  0  0  0  0  0
   11.5656   -0.6480   25.7841 H   0  0  0  0  0  0  0  0  0  0  0  0
   13.1794   -0.4813   21.7867 H   0  0  0  0  0  0  0  0  0  0  0  0
    8.1558   -4.5961   29.7550 H   0  0  0  0  0  0  0  0  0  0  0  0
    7.5611   -5.9778   28.8324 H   0  0  0  0  0  0  0  0  0  0  0  0
    5.9459   -4.1594   28.6209 H   0  0  0  0  0  0  0  0  0  0  0  0
    7.2011   -3.0160   28.1536 H   0  0  0  0  0  0  0  0  0  0  0  0
    9.7290   -3.9880   27.9846 H   0  0  0  0  0  0  0  0  0  0  0  0
    9.9437   -5.6964   28.3562 H   0  0  0  0  0  0  0  0  0  0  0  0
    6.2543   -5.4402   26.5659 H   0  0  0  0  0  0  0  0  0  0  0  0
    5.9909   -3.7397   26.1451 H   0  0  0  0  0  0  0  0  0  0  0  0
    9.9128   -5.2367   25.8843 H   0  0  0  0  0  0  0  0  0  0  0  0
    8.6365   -6.3517   26.3987 H   0  0  0  0  0  0  0  0  0  0  0  0
   15.7795   -1.3567   23.4548 H   0  0  0  0  0  0  0  0  0  0  0  0
   15.0760   -2.9481   23.9008 H   0  0  0  0  0  0  0  0  0  0  0  0
   14.9053   -2.3433   22.2334 H   0  0  0  0  0  0  0  0  0  0  0  0
   10.4315    1.3089   24.0208 H   0  0  0  0  0  0  0  0  0  0  0  0
   11.0719    1.3385   22.3955 H   0  0  0  0  0  0  0  0  0  0  0  0
   10.5438   -0.9939   22.0202 H   0  0  0  0  0  0  0  0  0  0  0  0
    6.7486    0.4313   16.8331 H   0  0  0  0  0  0  0  0  0  0  0  0
    8.0917   -1.6083   21.0911 H   0  0  0  0  0  0  0  0  0  0  0  0
  1  2  1  0  0  0  0
  1  3  2  0  0  0  0
  2  6  2  0  0  0  0
  3 11  1  0  0  0  0
  4  7  2  0  0  0  0
  4 12  1  0  0  0  0
  5  8  1  0  0  0  0
  5 12  2  0  0  0  0
  6 14  1  0  0  0  0
  7 15  1  0  0  0  0
  8 15  2  0  0  0  0
  9 13  1  0  0  0  0
  9 26  2  0  0  0  0
 10 13  2  0  0  0  0
 10 29  1  0  0  0  0
 11 14  2  0  0  0  0
 11 16  1  0  0  0  0
 12 25  1  0  0  0  0
 13 24  1  0  0  0  0
 14 28  1  0  0  0  0
 15 30  1  0  0  0  0
 16 27  2  0  0  0  0
 16 31  1  0  0  0  0
 17 25  1  0  0  0  0
 17 31  1  0  0  0  0
 17 32  2  0  0  0  0
 18 19  1  0  0  0  0
 18 20  1  0  0  0  0
 19 21  1  0  0  0  0
 20 22  1  0  0  0  0
 21 30  1  0  0  0  0
 22 30  1  0  0  0  0
 23 29  1  0  0  0  0
 24 25  1  6  0  0  0
 26 29  1  0  0  0  0
 27 28  1  0  0  0  0
  1 33  1  0  0  0  0
  2 34  1  0  0  0  0
  3 35  1  0  0  0  0
  4 36  1  0  0  0  0
  5 37  1  0  0  0  0
  6 38  1  0  0  0  0
  7 39  1  0  0  0  0
  8 40  1  0  0  0  0
  9 41  1  0  0  0  0
 10 42  1  0  0  0  0
 18 43  1  0  0  0  0
 18 44  1  0  0  0  0
 19 45  1  0  0  0  0
 19 46  1  0  0  0  0
 20 47  1  0  0  0  0
 20 48  1  0  0  0  0
 21 49  1  0  0  0  0
 21 50  1  0  0  0  0
 22 51  1  0  0  0  0
 22 52  1  0  0  0  0
 23 53  1  0  0  0  0
 23 54  1  0  0  0  0
 23 55  1  0  0  0  0
 24 56  1  0  0  0  0
 24 57  1  0  0  0  0
 25 58  1  0  0  0  0
 28 59  1  0  0  0  0
 31 60  1  0  0  0  0
M  END
> <clash_score>
0

> <docking_score>
-6.688664436340332

> <overlap_score>
0.9732677340507507

$$$$
BENZO_234_2
  -OEChem-08222022453D

 60 64  0     1  0  0  0  0  0999 V2000
    4.2460    1.7520   20.8250 C   0  0  0  0  0  0  0  0  0  0  0  0
    3.8860    2.1050   19.5250 C   0  0  0  0  0  0  0  0  0  0  0  0
   13.3731   -1.0509   21.0656 C   0  0  0  0  0  0  0  0  0  0  0  0
    5.3890    1.0010   21.0690 C   0  0  0  0  0  0  0  0  0  0  0  0
   12.1451   -0.5485   21.4959 C   0  0  0  0  0  0  0  0  0  0  0  0
    9.5890   -2.4950   23.2210 C   0  0  0  0  0  0  0  0  0  0  0  0
    8.2550   -1.0010   24.5520 C   0  0  0  0  0  0  0  0  0  0  0  0
    4.6610    1.7170   18.4380 C   0  0  0  0  0  0  0  0  0  0  0  0
    9.1890   -3.5540   24.0140 C   0  0  0  0  0  0  0  0  0  0  0  0
    7.8700   -2.0610   25.3550 C   0  0  0  0  0  0  0  0  0  0  0  0
   14.5088   -0.8912   21.8596 C   0  0  0  0  0  0  0  0  0  0  0  0
   13.1885    0.2735   23.5140 C   0  0  0  0  0  0  0  0  0  0  0  0
    6.1460    0.6070   19.9750 C   0  0  0  0  0  0  0  0  0  0  0  0
    9.1280   -1.2090   23.4870 C   0  0  0  0  0  0  0  0  0  0  0  0
   12.0528    0.1138   22.7200 C   0  0  0  0  0  0  0  0  0  0  0  0
    5.7970    0.9500   18.6730 C   0  0  0  0  0  0  0  0  0  0  0  0
    8.3450   -3.3440   25.0980 C   0  0  0  0  0  0  0  0  0  0  0  0
   14.4165   -0.2290   23.0837 C   0  0  0  0  0  0  0  0  0  0  0  0
    7.2710   -0.1460   19.8310 C   0  0  0  0  0  0  0  0  0  0  0  0
    9.0430    0.2380   21.4940 C   0  0  0  0  0  0  0  0  0  0  0  0
    7.9496   -4.9537   28.7345 C   0  0  0  0  0  0  0  0  0  0  0  0
    6.8919   -4.0607   28.0818 C   0  0  0  0  0  0  0  0  0  0  0  0
    9.2470   -4.9693   27.9230 C   0  0  0  0  0  0  0  0  0  0  0  0
    6.6889   -4.4385   26.6147 C   0  0  0  0  0  0  0  0  0  0  0  0
    8.9871   -5.3207   26.4549 C   0  0  0  0  0  0  0  0  0  0  0  0
   10.7220    0.6590   23.1850 C   0  0  0  0  0  0  0  0  0  0  0  0
    9.5820   -0.1080   22.7000 C   0  0  2  0  0  0  0  0  0  0  0  0
    7.5840   -0.2700   18.5160 N   0  0  0  0  0  0  0  0  0  0  0  0
    6.7100    0.3850   17.8100 N   0  0  0  0  0  0  0  0  0  0  0  0
    7.9769   -4.4027   25.9163 N   0  0  0  0  0  0  0  0  0  0  0  0
    8.0950   -0.7700   20.8440 N   0  0  0  0  0  0  0  0  0  0  0  0
    9.2950    1.3000   20.9480 O   0  0  0  0  0  0  0  0  0  0  0  0
   15.8183   -0.0312   24.0623 Cl  0  0  0  0  0  0  0  0  0  0  0  0
    3.6223    2.0725   21.6574 H   0  0  0  0  0  0  0  0  0  0  0  0
    2.9864    2.6933   19.3609 H   0  0  0  0  0  0  0  0  0  0  0  0
   13.4446   -1.5664   20.1122 H   0  0  0  0  0  0  0  0  0  0  0  0
    5.6689    0.7392   22.0836 H   0  0  0  0  0  0  0  0  0  0  0  0
   11.2654   -0.6774   20.8707 H   0  0  0  0  0  0  0  0  0  0  0  0
   10.2684   -2.6719   22.3867 H   0  0  0  0  0  0  0  0  0  0  0  0
    7.8717   -0.0016   24.7596 H   0  0  0  0  0  0  0  0  0  0  0  0
    4.3807    2.0116   17.4186 H   0  0  0  0  0  0  0  0  0  0  0  0
    9.5443   -4.5616   23.7817 H   0  0  0  0  0  0  0  0  0  0  0  0
    7.1921   -1.8821   26.1908 H   0  0  0  0  0  0  0  0  0  0  0  0
   15.4594   -1.2877   21.5114 H   0  0  0  0  0  0  0  0  0  0  0  0
   13.1112    0.7902   24.4679 H   0  0  0  0  0  0  0  0  0  0  0  0
    8.1558   -4.5961   29.7550 H   0  0  0  0  0  0  0  0  0  0  0  0
    7.5611   -5.9778   28.8324 H   0  0  0  0  0  0  0  0  0  0  0  0
    5.9459   -4.1594   28.6209 H   0  0  0  0  0  0  0  0  0  0  0  0
    7.2011   -3.0160   28.1536 H   0  0  0  0  0  0  0  0  0  0  0  0
    9.7290   -3.9880   27.9846 H   0  0  0  0  0  0  0  0  0  0  0  0
    9.9437   -5.6964   28.3562 H   0  0  0  0  0  0  0  0  0  0  0  0
    6.2543   -5.4402   26.5659 H   0  0  0  0  0  0  0  0  0  0  0  0
    5.9909   -3.7397   26.1451 H   0  0  0  0  0  0  0  0  0  0  0  0
    9.9128   -5.2367   25.8843 H   0  0  0  0  0  0  0  0  0  0  0  0
    8.6365   -6.3517   26.3987 H   0  0  0  0  0  0  0  0  0  0  0  0
   10.7177    0.7189   24.2812 H   0  0  0  0  0  0  0  0  0  0  0  0
   10.6426    1.6980   22.8361 H   0  0  0  0  0  0  0  0  0  0  0  0
    8.7036    0.8022   23.4008 H   0  0  0  0  0  0  0  0  0  0  0  0
    6.7486    0.4313   16.8331 H   0  0  0  0  0  0  0  0  0  0  0  0
    8.0917   -1.6083   21.0911 H   0  0  0  0  0  0  0  0  0  0  0  0
  1  2  1  0  0  0  0
  1  4  2  0  0  0  0
  2  8  2  0  0  0  0
  3  5  2  0  0  0  0
  3 11  1  0  0  0  0
  4 13  1  0  0  0  0
  5 15  1  0  0  0  0
  6  9  2  0  0  0  0
  6 14  1  0  0  0  0
  7 10  1  0  0  0  0
  7 14  2  0  0  0  0
  8 16  1  0  0  0  0
  9 17  1  0  0  0  0
 10 17  2  0  0  0  0
 11 18  2  0  0  0  0
 12 15  2  0  0  0  0
 12 18  1  0  0  0  0
 13 16  2  0  0  0  0
 13 19  1  0  0  0  0
 14 27  1  0  0  0  0
 15 26  1  0  0  0  0
 16 29  1  0  0  0  0
 17 30  1  0  0  0  0
 18 33  1  0  0  0  0
 19 28  2  0  0  0  0
 19 31  1  0  0  0  0
 20 27  1  6  0  0  0
 20 31  1  0  0  0  0
 20 32  2  0  0  0  0
 21 22  1  0  0  0  0
 21 23  1  0  0  0  0
 22 24  1  0  0  0  0
 23 25  1  0  0  0  0
 24 30  1  0  0  0  0
 25 30  1  0  0  0  0
 26 27  1  0  0  0  0
 28 29  1  0  0  0  0
  1 34  1  0  0  0  0
  2 35  1  0  0  0  0
  3 36  1  0  0  0  0
  4 37  1  0  0  0  0
  5 38  1  0  0  0  0
  6 39  1  0  0  0  0
  7 40  1  0  0  0  0
  8 41  1  0  0  0  0
  9 42  1  0  0  0  0
 10 43  1  0  0  0  0
 11 44  1  0  0  0  0
 12 45  1  0  0  0  0
 21 46  1  0  0  0  0
 21 47  1  0  0  0  0
 22 48  1  0  0  0  0
 22 49  1  0  0  0  0
 23 50  1  0  0  0  0
 23 51  1  0  0  0  0
 24 52  1  0  0  0  0
 24 53  1  0  0  0  0
 25 54  1  0  0  0  0
 25 55  1  0  0  0  0
 26 56  1  0  0  0  0
 26 57  1  0  0  0  0
 27 58  1  0  0  0  0
 29 59  1  0  0  0  0
 31 60  1  0  0  0  0
M  END
> <clash_score>
1.4705834064312366

> <docking_score>
-6.164571762084961

> <overlap_score>
0.9515371322631836

$$$$
BENZO_234_1
  -OEChem-08222022453D

 60 64  0     1  0  0  0  0  0999 V2000
    4.2460    1.7520   20.8250 C   0  0  0  0  0  0  0  0  0  0  0  0
    3.8860    2.1050   19.5250 C   0  0  0  0  0  0  0  0  0  0  0  0
   13.0607   -1.4512   25.3114 C   0  0  0  0  0  0  0  0  0  0  0  0
    5.3890    1.0010   21.0690 C   0  0  0  0  0  0  0  0  0  0  0  0
   11.9842   -0.6540   24.9226 C   0  0  0  0  0  0  0  0  0  0  0  0
    9.5890   -2.4950   23.2210 C   0  0  0  0  0  0  0  0  0  0  0  0
    8.2550   -1.0010   24.5520 C   0  0  0  0  0  0  0  0  0  0  0  0
    4.6610    1.7170   18.4380 C   0  0  0  0  0  0  0  0  0  0  0  0
    9.1890   -3.5540   24.0140 C   0  0  0  0  0  0  0  0  0  0  0  0
    7.8700   -2.0610   25.3550 C   0  0  0  0  0  0  0  0  0  0  0  0
   14.0427   -1.7979   24.3834 C   0  0  0  0  0  0  0  0  0  0  0  0
   12.8715   -0.5505   22.6778 C   0  0  0  0  0  0  0  0  0  0  0  0
    6.1460    0.6070   19.9750 C   0  0  0  0  0  0  0  0  0  0  0  0
    9.1280   -1.2090   23.4870 C   0  0  0  0  0  0  0  0  0  0  0  0
   11.8895   -0.2037   23.6058 C   0  0  0  0  0  0  0  0  0  0  0  0
    5.7970    0.9500   18.6730 C   0  0  0  0  0  0  0  0  0  0  0  0
    8.3450   -3.3440   25.0980 C   0  0  0  0  0  0  0  0  0  0  0  0
   13.9481   -1.3476   23.0666 C   0  0  0  0  0  0  0  0  0  0  0  0
    7.2710   -0.1460   19.8310 C   0  0  0  0  0  0  0  0  0  0  0  0
    9.0430    0.2380   21.4940 C   0  0  0  0  0  0  0  0  0  0  0  0
    7.9496   -4.9537   28.7345 C   0  0  0  0  0  0  0  0  0  0  0  0
    6.8919   -4.0607   28.0818 C   0  0  0  0  0  0  0  0  0  0  0  0
    9.2470   -4.9693   27.9230 C   0  0  0  0  0  0  0  0  0  0  0  0
    6.6889   -4.4385   26.6147 C   0  0  0  0  0  0  0  0  0  0  0  0
    8.9871   -5.3207   26.4549 C   0  0  0  0  0  0  0  0  0  0  0  0
   10.7220    0.6590   23.1850 C   0  0  0  0  0  0  0  0  0  0  0  0
    9.5820   -0.1080   22.7000 C   0  0  1  0  0  0  0  0  0  0  0  0
    7.5840   -0.2700   18.5160 N   0  0  0  0  0  0  0  0  0  0  0  0
    6.7100    0.3850   17.8100 N   0  0  0  0  0  0  0  0  0  0  0  0
    7.9769   -4.4027   25.9163 N   0  0  0  0  0  0  0  0  0  0  0  0
    8.0950   -0.7700   20.8440 N   0  0  0  0  0  0  0  0  0  0  0  0
    9.2950    1.3000   20.9480 O   0  0  0  0  0  0  0  0  0  0  0  0
   15.1593   -1.7768   21.9219 Cl  0  0  0  0  0  0  0  0  0  0  0  0
    3.6223    2.0725   21.6574 H   0  0  0  0  0  0  0  0  0  0  0  0
    2.9864    2.6933   19.3609 H   0  0  0  0  0  0  0  0  0  0  0  0
   13.1340   -1.8017   26.3368 H   0  0  0  0  0  0  0  0  0  0  0  0
    5.6689    0.7392   22.0836 H   0  0  0  0  0  0  0  0  0  0  0  0
   11.2236   -0.3888   25.6524 H   0  0  0  0  0  0  0  0  0  0  0  0
   10.2684   -2.6719   22.3867 H   0  0  0  0  0  0  0  0  0  0  0  0
    7.8717   -0.0016   24.7596 H   0  0  0  0  0  0  0  0  0  0  0  0
    4.3807    2.0116   17.4186 H   0  0  0  0  0  0  0  0  0  0  0  0
    9.5443   -4.5616   23.7817 H   0  0  0  0  0  0  0  0  0  0  0  0
    7.1921   -1.8821   26.1908 H   0  0  0  0  0  0  0  0  0  0  0  0
   14.8761   -2.4201   24.7005 H   0  0  0  0  0  0  0  0  0  0  0  0
   12.7934   -0.1965   21.6525 H   0  0  0  0  0  0  0  0  0  0  0  0
    8.1558   -4.5961   29.7550 H   0  0  0  0  0  0  0  0  0  0  0  0
    7.5611   -5.9778   28.8324 H   0  0  0  0  0  0  0  0  0  0  0  0
    5.9459   -4.1594   28.6209 H   0  0  0  0  0  0  0  0  0  0  0  0
    7.2011   -3.0160   28.1536 H   0  0  0  0  0  0  0  0  0  0  0  0
    9.7290   -3.9880   27.9846 H   0  0  0  0  0  0  0  0  0  0  0  0
    9.9437   -5.6964   28.3562 H   0  0  0  0  0  0  0  0  0  0  0  0
    6.2543   -5.4402   26.5659 H   0  0  0  0  0  0  0  0  0  0  0  0
    5.9909   -3.7397   26.1451 H   0  0  0  0  0  0  0  0  0  0  0  0
    9.9128   -5.2367   25.8843 H   0  0  0  0  0  0  0  0  0  0  0  0
    8.6365   -6.3517   26.3987 H   0  0  0  0  0  0  0  0  0  0  0  0
   10.4315    1.3089   24.0208 H   0  0  0  0  0  0  0  0  0  0  0  0
   11.0719    1.3385   22.3955 H   0  0  0  0  0  0  0  0  0  0  0  0
   10.5438   -0.9939   22.0202 H   0  0  0  0  0  0  0  0  0  0  0  0
    6.7486    0.4313   16.8331 H   0  0  0  0  0  0  0  0  0  0  0  0
    8.0917   -1.6083   21.0911 H   0  0  0  0  0  0  0  0  0  0  0  0
  1  2  1  0  0  0  0
  1  4  2  0  0  0  0
  2  8  2  0  0  0  0
  3  5  2  0  0  0  0
  3 11  1  0  0  0  0
  4 13  1  0  0  0  0
  5 15  1  0  0  0  0
  6  9  2  0  0  0  0
  6 14  1  0  0  0  0
  7 10  1  0  0  0  0
  7 14  2  0  0  0  0
  8 16  1  0  0  0  0
  9 17  1  0  0  0  0
 10 17  2  0  0  0  0
 11 18  2  0  0  0  0
 12 15  2  0  0  0  0
 12 18  1  0  0  0  0
 13 16  2  0  0  0  0
 13 19  1  0  0  0  0
 14 27  1  0  0  0  0
 15 26  1  0  0  0  0
 16 29  1  0  0  0  0
 17 30  1  0  0  0  0
 18 33  1  0  0  0  0
 19 28  2  0  0  0  0
 19 31  1  0  0  0  0
 20 27  1  1  0  0  0
 20 31  1  0  0  0  0
 20 32  2  0  0  0  0
 21 22  1  0  0  0  0
 21 23  1  0  0  0  0
 22 24  1  0  0  0  0
 23 25  1  0  0  0  0
 24 30  1  0  0  0  0
 25 30  1  0  0  0  0
 26 27  1  0  0  0  0
 28 29  1  0  0  0  0
  1 34  1  0  0  0  0
  2 35  1  0  0  0  0
  3 36  1  0  0  0  0
  4 37  1  0  0  0  0
  5 38  1  0  0  0  0
  6 39  1  0  0  0  0
  7 40  1  0  0  0  0
  8 41  1  0  0  0  0
  9 42  1  0  0  0  0
 10 43  1  0  0  0  0
 11 44  1  0  0  0  0
 12 45  1  0  0  0  0
 21 46  1  0  0  0  0
 21 47  1  0  0  0  0
 22 48  1  0  0  0  0
 22 49  1  0  0  0  0
 23 50  1  0  0  0  0
 23 51  1  0  0  0  0
 24 52  1  0  0  0  0
 24 53  1  0  0  0  0
 25 54  1  0  0  0  0
 25 55  1  0  0  0  0
 26 56  1  0  0  0  0
 26 57  1  0  0  0  0
 27 58  1  0  0  0  0
 29 59  1  0  0  0  0
 31 60  1  0  0  0  0
M  END
> <clash_score>
0

> <docking_score>
-6.758713722229004

> <overlap_score>
0.9773684144020081

$$$$
BENZO_238_1
  -OEChem-08222022453D

 48 51  0     1  0  0  0  0  0999 V2000
    4.2460    1.7520   20.8250 C   0  0  0  0  0  0  0  0  0  0  0  0
    3.8860    2.1050   19.5250 C   0  0  0  0  0  0  0  0  0  0  0  0
   13.8165    0.0398   21.0674 C   0  0  0  0  0  0  0  0  0  0  0  0
    5.3890    1.0010   21.0690 C   0  0  0  0  0  0  0  0  0  0  0  0
   12.5963    0.5519   21.5081 C   0  0  0  0  0  0  0  0  0  0  0  0
    9.1890   -3.5540   24.0140 C   0  0  0  0  0  0  0  0  0  0  0  0
    7.8700   -2.0610   25.3550 C   0  0  0  0  0  0  0  0  0  0  0  0
    9.5890   -2.4950   23.2210 C   0  0  0  0  0  0  0  0  0  0  0  0
    8.2550   -1.0010   24.5520 C   0  0  0  0  0  0  0  0  0  0  0  0
    4.6610    1.7170   18.4380 C   0  0  0  0  0  0  0  0  0  0  0  0
   14.4843   -0.9216   21.8261 C   0  0  0  0  0  0  0  0  0  0  0  0
   12.7115   -0.8586   23.4663 C   0  0  0  0  0  0  0  0  0  0  0  0
    6.1460    0.6070   19.9750 C   0  0  0  0  0  0  0  0  0  0  0  0
    8.3450   -3.3440   25.0980 C   0  0  0  0  0  0  0  0  0  0  0  0
    9.1280   -1.2090   23.4870 C   0  0  0  0  0  0  0  0  0  0  0  0
   12.0437    0.1027   22.7075 C   0  0  0  0  0  0  0  0  0  0  0  0
    5.7970    0.9500   18.6730 C   0  0  0  0  0  0  0  0  0  0  0  0
   13.9318   -1.3708   23.0255 C   0  0  0  0  0  0  0  0  0  0  0  0
    7.2710   -0.1460   19.8310 C   0  0  0  0  0  0  0  0  0  0  0  0
    9.0430    0.2380   21.4940 C   0  0  0  0  0  0  0  0  0  0  0  0
    7.9517   -4.4787   25.9770 C   0  0  0  0  0  0  0  0  0  0  0  0
   10.7220    0.6590   23.1850 C   0  0  0  0  0  0  0  0  0  0  0  0
    9.5820   -0.1080   22.7000 C   0  0  1  0  0  0  0  0  0  0  0  0
    7.5840   -0.2700   18.5160 N   0  0  0  0  0  0  0  0  0  0  0  0
    6.7100    0.3850   17.8100 N   0  0  0  0  0  0  0  0  0  0  0  0
    8.0950   -0.7700   20.8440 N   0  0  0  0  0  0  0  0  0  0  0  0
    9.2950    1.3000   20.9480 O   0  0  0  0  0  0  0  0  0  0  0  0
   14.7567   -2.5560   23.9617 Cl  0  0  0  0  0  0  0  0  0  0  0  0
    3.6223    2.0725   21.6574 H   0  0  0  0  0  0  0  0  0  0  0  0
    2.9864    2.6933   19.3609 H   0  0  0  0  0  0  0  0  0  0  0  0
   14.2465    0.3899   20.1334 H   0  0  0  0  0  0  0  0  0  0  0  0
    5.6689    0.7392   22.0836 H   0  0  0  0  0  0  0  0  0  0  0  0
   12.0830    1.3007   20.9105 H   0  0  0  0  0  0  0  0  0  0  0  0
    9.5416   -4.5625   23.7818 H   0  0  0  0  0  0  0  0  0  0  0  0
    7.1926   -1.8847   26.1916 H   0  0  0  0  0  0  0  0  0  0  0  0
   10.2688   -2.6720   22.3870 H   0  0  0  0  0  0  0  0  0  0  0  0
    7.8705   -0.0015   24.7579 H   0  0  0  0  0  0  0  0  0  0  0  0
    4.3807    2.0116   17.4186 H   0  0  0  0  0  0  0  0  0  0  0  0
   15.4348   -1.3117   21.4704 H   0  0  0  0  0  0  0  0  0  0  0  0
   12.2763   -1.2059   24.4005 H   0  0  0  0  0  0  0  0  0  0  0  0
    8.6661   -4.5883   26.8021 H   0  0  0  0  0  0  0  0  0  0  0  0
    6.9508   -4.3263   26.4014 H   0  0  0  0  0  0  0  0  0  0  0  0
    7.9188   -5.4228   25.4175 H   0  0  0  0  0  0  0  0  0  0  0  0
   10.7266    0.7141   24.2815 H   0  0  0  0  0  0  0  0  0  0  0  0
   10.6502    1.7003   22.8412 H   0  0  0  0  0  0  0  0  0  0  0  0
    8.7027    0.7972   23.4026 H   0  0  0  0  0  0  0  0  0  0  0  0
    6.7486    0.4313   16.8331 H   0  0  0  0  0  0  0  0  0  0  0  0
    8.0757   -1.6162   21.0774 H   0  0  0  0  0  0  0  0  0  0  0  0
  1  2  1  0  0  0  0
  1  4  2  0  0  0  0
  2 10  2  0  0  0  0
  3  5  2  0  0  0  0
  3 11  1  0  0  0  0
  4 13  1  0  0  0  0
  5 16  1  0  0  0  0
  6  8  2  0  0  0  0
  6 14  1  0  0  0  0
  7  9  1  0  0  0  0
  7 14  2  0  0  0  0
  8 15  1  0  0  0  0
  9 15  2  0  0  0  0
 10 17  1  0  0  0  0
 11 18  2  0  0  0  0
 12 16  2  0  0  0  0
 12 18  1  0  0  0  0
 13 17  2  0  0  0  0
 13 19  1  0  0  0  0
 14 21  1  0  0  0  0
 15 23  1  0  0  0  0
 16 22  1  0  0  0  0
 17 25  1  0  0  0  0
 18 28  1  0  0  0  0
 19 24  2  0  0  0  0
 19 26  1  0  0  0  0
 20 23  1  0  0  0  0
 20 26  1  0  0  0  0
 20 27  2  0  0  0  0
 22 23  1  1  0  0  0
 24 25  1  0  0  0  0
  1 29  1  0  0  0  0
  2 30  1  0  0  0  0
  3 31  1  0  0  0  0
  4 32  1  0  0  0  0
  5 33  1  0  0  0  0
  6 34  1  0  0  0  0
  7 35  1  0  0  0  0
  8 36  1  0  0  0  0
  9 37  1  0  0  0  0
 10 38  1  0  0  0  0
 11 39  1  0  0  0  0
 12 40  1  0  0  0  0
 21 41  1  0  0  0  0
 21 42  1  0  0  0  0
 21 43  1  0  0  0  0
 22 44  1  0  0  0  0
 22 45  1  0  0  0  0
 23 46  1  0  0  0  0
 25 47  1  0  0  0  0
 26 48  1  0  0  0  0
M  END
> <clash_score>
0

> <docking_score>
-5.419817924499512

> <overlap_score>
0.8771753311157227

$$$$
BENZO_238_2
  -OEChem-08222022453D

 48 51  0     1  0  0  0  0  0999 V2000
    4.2460    1.7520   20.8250 C   0  0  0  0  0  0  0  0  0  0  0  0
    3.8860    2.1050   19.5250 C   0  0  0  0  0  0  0  0  0  0  0  0
   13.0334   -1.4851   25.3072 C   0  0  0  0  0  0  0  0  0  0  0  0
    5.3890    1.0010   21.0690 C   0  0  0  0  0  0  0  0  0  0  0  0
   11.9669   -0.6739   24.9199 C   0  0  0  0  0  0  0  0  0  0  0  0
    9.1890   -3.5540   24.0140 C   0  0  0  0  0  0  0  0  0  0  0  0
    7.8700   -2.0610   25.3550 C   0  0  0  0  0  0  0  0  0  0  0  0
    9.5890   -2.4950   23.2210 C   0  0  0  0  0  0  0  0  0  0  0  0
    8.2550   -1.0010   24.5520 C   0  0  0  0  0  0  0  0  0  0  0  0
    4.6610    1.7170   18.4380 C   0  0  0  0  0  0  0  0  0  0  0  0
   14.0118   -1.8413   24.3790 C   0  0  0  0  0  0  0  0  0  0  0  0
   12.8570   -0.5751   22.6760 C   0  0  0  0  0  0  0  0  0  0  0  0
    6.1460    0.6070   19.9750 C   0  0  0  0  0  0  0  0  0  0  0  0
    8.3450   -3.3440   25.0980 C   0  0  0  0  0  0  0  0  0  0  0  0
    9.1280   -1.2090   23.4870 C   0  0  0  0  0  0  0  0  0  0  0  0
   11.8786   -0.2190   23.6043 C   0  0  0  0  0  0  0  0  0  0  0  0
    5.7970    0.9500   18.6730 C   0  0  0  0  0  0  0  0  0  0  0  0
   13.9236   -1.3863   23.0634 C   0  0  0  0  0  0  0  0  0  0  0  0
    7.2710   -0.1460   19.8310 C   0  0  0  0  0  0  0  0  0  0  0  0
    9.0430    0.2380   21.4940 C   0  0  0  0  0  0  0  0  0  0  0  0
    7.9517   -4.4787   25.9770 C   0  0  0  0  0  0  0  0  0  0  0  0
   10.7220    0.6590   23.1850 C   0  0  0  0  0  0  0  0  0  0  0  0
    9.5820   -0.1080   22.7000 C   0  0  2  0  0  0  0  0  0  0  0  0
    7.5840   -0.2700   18.5160 N   0  0  0  0  0  0  0  0  0  0  0  0
    6.7100    0.3850   17.8100 N   0  0  0  0  0  0  0  0  0  0  0  0
    8.0950   -0.7700   20.8440 N   0  0  0  0  0  0  0  0  0  0  0  0
    9.2950    1.3000   20.9480 O   0  0  0  0  0  0  0  0  0  0  0  0
   15.1303   -1.8270   21.9183 Cl  0  0  0  0  0  0  0  0  0  0  0  0
    3.6223    2.0725   21.6574 H   0  0  0  0  0  0  0  0  0  0  0  0
    2.9864    2.6933   19.3609 H   0  0  0  0  0  0  0  0  0  0  0  0
   13.1017   -1.8393   26.3318 H   0  0  0  0  0  0  0  0  0  0  0  0
    5.6689    0.7392   22.0836 H   0  0  0  0  0  0  0  0  0  0  0  0
   11.2091   -0.4015   25.6498 H   0  0  0  0  0  0  0  0  0  0  0  0
    9.5416   -4.5625   23.7818 H   0  0  0  0  0  0  0  0  0  0  0  0
    7.1926   -1.8847   26.1916 H   0  0  0  0  0  0  0  0  0  0  0  0
   10.2688   -2.6720   22.3870 H   0  0  0  0  0  0  0  0  0  0  0  0
    7.8705   -0.0015   24.7579 H   0  0  0  0  0  0  0  0  0  0  0  0
    4.3807    2.0116   17.4186 H   0  0  0  0  0  0  0  0  0  0  0  0
   14.8373   -2.4744   24.6949 H   0  0  0  0  0  0  0  0  0  0  0  0
   12.7839   -0.2174   21.6515 H   0  0  0  0  0  0  0  0  0  0  0  0
    8.6661   -4.5883   26.8021 H   0  0  0  0  0  0  0  0  0  0  0  0
    6.9508   -4.3263   26.4014 H   0  0  0  0  0  0  0  0  0  0  0  0
    7.9188   -5.4228   25.4175 H   0  0  0  0  0  0  0  0  0  0  0  0
   10.4369    1.3080   24.0233 H   0  0  0  0  0  0  0  0  0  0  0  0
   11.0815    1.3384   22.3997 H   0  0  0  0  0  0  0  0  0  0  0  0
   10.5413   -0.9955   22.0233 H   0  0  0  0  0  0  0  0  0  0  0  0
    6.7486    0.4313   16.8331 H   0  0  0  0  0  0  0  0  0  0  0  0
    8.0757   -1.6162   21.0774 H   0  0  0  0  0  0  0  0  0  0  0  0
  1  2  1  0  0  0  0
  1  4  2  0  0  0  0
  2 10  2  0  0  0  0
  3  5  2  0  0  0  0
  3 11  1  0  0  0  0
  4 13  1  0  0  0  0
  5 16  1  0  0  0  0
  6  8  2  0  0  0  0
  6 14  1  0  0  0  0
  7  9  1  0  0  0  0
  7 14  2  0  0  0  0
  8 15  1  0  0  0  0
  9 15  2  0  0  0  0
 10 17  1  0  0  0  0
 11 18  2  0  0  0  0
 12 16  2  0  0  0  0
 12 18  1  0  0  0  0
 13 17  2  0  0  0  0
 13 19  1  0  0  0  0
 14 21  1  0  0  0  0
 15 23  1  0  0  0  0
 16 22  1  0  0  0  0
 17 25  1  0  0  0  0
 18 28  1  0  0  0  0
 19 24  2  0  0  0  0
 19 26  1  0  0  0  0
 20 23  1  0  0  0  0
 20 26  1  0  0  0  0
 20 27  2  0  0  0  0
 22 23  1  6  0  0  0
 24 25  1  0  0  0  0
  1 29  1  0  0  0  0
  2 30  1  0  0  0  0
  3 31  1  0  0  0  0
  4 32  1  0  0  0  0
  5 33  1  0  0  0  0
  6 34  1  0  0  0  0
  7 35  1  0  0  0  0
  8 36  1  0  0  0  0
  9 37  1  0  0  0  0
 10 38  1  0  0  0  0
 11 39  1  0  0  0  0
 12 40  1  0  0  0  0
 21 41  1  0  0  0  0
 21 42  1  0  0  0  0
 21 43  1  0  0  0  0
 22 44  1  0  0  0  0
 22 45  1  0  0  0  0
 23 46  1  0  0  0  0
 25 47  1  0  0  0  0
 26 48  1  0  0  0  0
M  END
> <clash_score>
0

> <docking_score>
-5.940098762512207

> <overlap_score>
0.8895042538642883

$$$$
BENZO_239_1
  -OEChem-08222022453D

 48 51  0     1  0  0  0  0  0999 V2000
    4.2460    1.7520   20.8250 C   0  0  0  0  0  0  0  0  0  0  0  0
    3.8860    2.1050   19.5250 C   0  0  0  0  0  0  0  0  0  0  0  0
    5.3890    1.0010   21.0690 C   0  0  0  0  0  0  0  0  0  0  0  0
    9.1890   -3.5540   24.0140 C   0  0  0  0  0  0  0  0  0  0  0  0
    7.8700   -2.0610   25.3550 C   0  0  0  0  0  0  0  0  0  0  0  0
    9.5890   -2.4950   23.2210 C   0  0  0  0  0  0  0  0  0  0  0  0
    8.2550   -1.0010   24.5520 C   0  0  0  0  0  0  0  0  0  0  0  0
    4.6610    1.7170   18.4380 C   0  0  0  0  0  0  0  0  0  0  0  0
   12.7477    0.4352   21.5346 C   0  0  0  0  0  0  0  0  0  0  0  0
   12.8294   -0.8403   23.3239 C   0  0  0  0  0  0  0  0  0  0  0  0
    6.1460    0.6070   19.9750 C   0  0  0  0  0  0  0  0  0  0  0  0
    8.3450   -3.3440   25.0980 C   0  0  0  0  0  0  0  0  0  0  0  0
    9.1280   -1.2090   23.4870 C   0  0  0  0  0  0  0  0  0  0  0  0
   12.0437    0.1027   22.7075 C   0  0  0  0  0  0  0  0  0  0  0  0
    5.7970    0.9500   18.6730 C   0  0  0  0  0  0  0  0  0  0  0  0
    7.2710   -0.1460   19.8310 C   0  0  0  0  0  0  0  0  0  0  0  0
    9.0430    0.2380   21.4940 C   0  0  0  0  0  0  0  0  0  0  0  0
    7.9517   -4.4787   25.9770 C   0  0  0  0  0  0  0  0  0  0  0  0
   15.0234   -1.9028   22.7442 C   0  0  0  0  0  0  0  0  0  0  0  0
   10.7220    0.6590   23.1850 C   0  0  0  0  0  0  0  0  0  0  0  0
    9.5820   -0.1080   22.7000 C   0  0  1  0  0  0  0  0  0  0  0  0
   13.8926   -0.2416   21.4111 N   0  0  0  0  0  0  0  0  0  0  0  0
    7.5840   -0.2700   18.5160 N   0  0  0  0  0  0  0  0  0  0  0  0
    6.7100    0.3850   17.8100 N   0  0  0  0  0  0  0  0  0  0  0  0
   13.9141   -1.0086   22.5144 N   0  0  0  0  0  0  0  0  0  0  0  0
    8.0950   -0.7700   20.8440 N   0  0  0  0  0  0  0  0  0  0  0  0
    9.2950    1.3000   20.9480 O   0  0  0  0  0  0  0  0  0  0  0  0
    3.6223    2.0725   21.6574 H   0  0  0  0  0  0  0  0  0  0  0  0
    2.9864    2.6933   19.3609 H   0  0  0  0  0  0  0  0  0  0  0  0
    5.6689    0.7392   22.0836 H   0  0  0  0  0  0  0  0  0  0  0  0
    9.5416   -4.5625   23.7818 H   0  0  0  0  0  0  0  0  0  0  0  0
    7.1926   -1.8847   26.1916 H   0  0  0  0  0  0  0  0  0  0  0  0
   10.2688   -2.6720   22.3870 H   0  0  0  0  0  0  0  0  0  0  0  0
    7.8705   -0.0015   24.7579 H   0  0  0  0  0  0  0  0  0  0  0  0
    4.3807    2.0116   17.4186 H   0  0  0  0  0  0  0  0  0  0  0  0
   12.4767    1.1426   20.7637 H   0  0  0  0  0  0  0  0  0  0  0  0
   12.7125   -1.3913   24.2472 H   0  0  0  0  0  0  0  0  0  0  0  0
    8.6661   -4.5883   26.8021 H   0  0  0  0  0  0  0  0  0  0  0  0
    6.9508   -4.3263   26.4014 H   0  0  0  0  0  0  0  0  0  0  0  0
    7.9188   -5.4228   25.4175 H   0  0  0  0  0  0  0  0  0  0  0  0
   14.7824   -2.8646   22.2839 H   0  0  0  0  0  0  0  0  0  0  0  0
   15.9289   -1.4818   22.2983 H   0  0  0  0  0  0  0  0  0  0  0  0
   15.1758   -2.0203   23.8207 H   0  0  0  0  0  0  0  0  0  0  0  0
   10.7266    0.7141   24.2815 H   0  0  0  0  0  0  0  0  0  0  0  0
   10.6502    1.7003   22.8412 H   0  0  0  0  0  0  0  0  0  0  0  0
    8.7027    0.7972   23.4026 H   0  0  0  0  0  0  0  0  0  0  0  0
    6.7486    0.4313   16.8331 H   0  0  0  0  0  0  0  0  0  0  0  0
    8.0757   -1.6162   21.0774 H   0  0  0  0  0  0  0  0  0  0  0  0
  1  2  1  0  0  0  0
  1  3  2  0  0  0  0
  2  8  2  0  0  0  0
  3 11  1  0  0  0  0
  4  6  2  0  0  0  0
  4 12  1  0  0  0  0
  5  7  1  0  0  0  0
  5 12  2  0  0  0  0
  6 13  1  0  0  0  0
  7 13  2  0  0  0  0
  8 15  1  0  0  0  0
  9 14  1  0  0  0  0
  9 22  2  0  0  0  0
 10 14  2  0  0  0  0
 10 25  1  0  0  0  0
 11 15  2  0  0  0  0
 11 16  1  0  0  0  0
 12 18  1  0  0  0  0
 13 21  1  0  0  0  0
 14 20  1  0  0  0  0
 15 24  1  0  0  0  0
 16 23  2  0  0  0  0
 16 26  1  0  0  0  0
 17 21  1  0  0  0  0
 17 26  1  0  0  0  0
 17 27  2  0  0  0  0
 19 25  1  0  0  0  0
 20 21  1  1  0  0  0
 22 25  1  0  0  0  0
 23 24  1  0  0  0  0
  1 28  1  0  0  0  0
  2 29  1  0  0  0  0
  3 30  1  0  0  0  0
  4 31  1  0  0  0  0
  5 32  1  0  0  0  0
  6 33  1  0  0  0  0
  7 34  1  0  0  0  0
  8 35  1  0  0  0  0
  9 36  1  0  0  0  0
 10 37  1  0  0  0  0
 18 38  1  0  0  0  0
 18 39  1  0  0  0  0
 18 40  1  0  0  0  0
 19 41  1  0  0  0  0
 19 42  1  0  0  0  0
 19 43  1  0  0  0  0
 20 44  1  0  0  0  0
 20 45  1  0  0  0  0
 21 46  1  0  0  0  0
 24 47  1  0  0  0  0
 26 48  1  0  0  0  0
M  END
> <clash_score>
0

> <docking_score>
-4.781764507293701

> <overlap_score>
0.8710413575172424

$$$$
BENZO_239_2
  -OEChem-08222022453D

 48 51  0     1  0  0  0  0  0999 V2000
    4.2460    1.7520   20.8250 C   0  0  0  0  0  0  0  0  0  0  0  0
    3.8860    2.1050   19.5250 C   0  0  0  0  0  0  0  0  0  0  0  0
    5.3890    1.0010   21.0690 C   0  0  0  0  0  0  0  0  0  0  0  0
    9.1890   -3.5540   24.0140 C   0  0  0  0  0  0  0  0  0  0  0  0
    7.8700   -2.0610   25.3550 C   0  0  0  0  0  0  0  0  0  0  0  0
    9.5890   -2.4950   23.2210 C   0  0  0  0  0  0  0  0  0  0  0  0
    8.2550   -1.0010   24.5520 C   0  0  0  0  0  0  0  0  0  0  0  0
    4.6610    1.7170   18.4380 C   0  0  0  0  0  0  0  0  0  0  0  0
   12.1294   -0.7684   24.8759 C   0  0  0  0  0  0  0  0  0  0  0  0
   12.9208   -0.6622   22.8272 C   0  0  0  0  0  0  0  0  0  0  0  0
    6.1460    0.6070   19.9750 C   0  0  0  0  0  0  0  0  0  0  0  0
    8.3450   -3.3440   25.0980 C   0  0  0  0  0  0  0  0  0  0  0  0
    9.1280   -1.2090   23.4870 C   0  0  0  0  0  0  0  0  0  0  0  0
   11.8786   -0.2190   23.6043 C   0  0  0  0  0  0  0  0  0  0  0  0
    5.7970    0.9500   18.6730 C   0  0  0  0  0  0  0  0  0  0  0  0
    7.2710   -0.1460   19.8310 C   0  0  0  0  0  0  0  0  0  0  0  0
    9.0430    0.2380   21.4940 C   0  0  0  0  0  0  0  0  0  0  0  0
    7.9517   -4.4787   25.9770 C   0  0  0  0  0  0  0  0  0  0  0  0
   14.9196   -2.1033   23.2819 C   0  0  0  0  0  0  0  0  0  0  0  0
   10.7220    0.6590   23.1850 C   0  0  0  0  0  0  0  0  0  0  0  0
    9.5820   -0.1080   22.7000 C   0  0  2  0  0  0  0  0  0  0  0  0
   13.2434   -1.5045   24.9090 N   0  0  0  0  0  0  0  0  0  0  0  0
    7.5840   -0.2700   18.5160 N   0  0  0  0  0  0  0  0  0  0  0  0
    6.7100    0.3850   17.8100 N   0  0  0  0  0  0  0  0  0  0  0  0
   13.7019   -1.4208   23.6485 N   0  0  0  0  0  0  0  0  0  0  0  0
    8.0950   -0.7700   20.8440 N   0  0  0  0  0  0  0  0  0  0  0  0
    9.2950    1.3000   20.9480 O   0  0  0  0  0  0  0  0  0  0  0  0
    3.6223    2.0725   21.6574 H   0  0  0  0  0  0  0  0  0  0  0  0
    2.9864    2.6933   19.3609 H   0  0  0  0  0  0  0  0  0  0  0  0
    5.6689    0.7392   22.0836 H   0  0  0  0  0  0  0  0  0  0  0  0
    9.5416   -4.5625   23.7818 H   0  0  0  0  0  0  0  0  0  0  0  0
    7.1926   -1.8847   26.1916 H   0  0  0  0  0  0  0  0  0  0  0  0
   10.2688   -2.6720   22.3870 H   0  0  0  0  0  0  0  0  0  0  0  0
    7.8705   -0.0015   24.7579 H   0  0  0  0  0  0  0  0  0  0  0  0
    4.3807    2.0116   17.4186 H   0  0  0  0  0  0  0  0  0  0  0  0
   11.5479   -0.6652   25.7811 H   0  0  0  0  0  0  0  0  0  0  0  0
   13.1664   -0.5073   21.7853 H   0  0  0  0  0  0  0  0  0  0  0  0
    8.6661   -4.5883   26.8021 H   0  0  0  0  0  0  0  0  0  0  0  0
    6.9508   -4.3263   26.4014 H   0  0  0  0  0  0  0  0  0  0  0  0
    7.9188   -5.4228   25.4175 H   0  0  0  0  0  0  0  0  0  0  0  0
   15.7545   -1.4186   23.4527 H   0  0  0  0  0  0  0  0  0  0  0  0
   15.0313   -3.0027   23.8939 H   0  0  0  0  0  0  0  0  0  0  0  0
   14.8693   -2.3913   22.2281 H   0  0  0  0  0  0  0  0  0  0  0  0
   10.4369    1.3080   24.0233 H   0  0  0  0  0  0  0  0  0  0  0  0
   11.0815    1.3384   22.3997 H   0  0  0  0  0  0  0  0  0  0  0  0
   10.5413   -0.9955   22.0233 H   0  0  0  0  0  0  0  0  0  0  0  0
    6.7486    0.4313   16.8331 H   0  0  0  0  0  0  0  0  0  0  0  0
    8.0757   -1.6162   21.0774 H   0  0  0  0  0  0  0  0  0  0  0  0
  1  2  1  0  0  0  0
  1  3  2  0  0  0  0
  2  8  2  0  0  0  0
  3 11  1  0  0  0  0
  4  6  2  0  0  0  0
  4 12  1  0  0  0  0
  5  7  1  0  0  0  0
  5 12  2  0  0  0  0
  6 13  1  0  0  0  0
  7 13  2  0  0  0  0
  8 15  1  0  0  0  0
  9 14  1  0  0  0  0
  9 22  2  0  0  0  0
 10 14  2  0  0  0  0
 10 25  1  0  0  0  0
 11 15  2  0  0  0  0
 11 16  1  0  0  0  0
 12 18  1  0  0  0  0
 13 21  1  0  0  0  0
 14 20  1  0  0  0  0
 15 24  1  0  0  0  0
 16 23  2  0  0  0  0
 16 26  1  0  0  0  0
 17 21  1  0  0  0  0
 17 26  1  0  0  0  0
 17 27  2  0  0  0  0
 19 25  1  0  0  0  0
 20 21  1  6  0  0  0
 22 25  1  0  0  0  0
 23 24  1  0  0  0  0
  1 28  1  0  0  0  0
  2 29  1  0  0  0  0
  3 30  1  0  0  0  0
  4 31  1  0  0  0  0
  5 32  1  0  0  0  0
  6 33  1  0  0  0  0
  7 34  1  0  0  0  0
  8 35  1  0  0  0  0
  9 36  1  0  0  0  0
 10 37  1  0  0  0  0
 18 38  1  0  0  0  0
 18 39  1  0  0  0  0
 18 40  1  0  0  0  0
 19 41  1  0  0  0  0
 19 42  1  0  0  0  0
 19 43  1  0  0  0  0
 20 44  1  0  0  0  0
 20 45  1  0  0  0  0
 21 46  1  0  0  0  0
 24 47  1  0  0  0  0
 26 48  1  0  0  0  0
M  END
> <clash_score>
0

> <docking_score>
-5.8893890380859375

> <overlap_score>
0.8850176930427551

$$$$
BENZO_241_1
  -OEChem-08222022453D

 49 52  0     1  0  0  0  0  0999 V2000
   14.4830   -0.9237   21.8249 C   0  0  0  0  0  0  0  0  0  0  0  0
    4.2460    1.7520   20.8250 C   0  0  0  0  0  0  0  0  0  0  0  0
   13.9310   -1.3719   23.0248 C   0  0  0  0  0  0  0  0  0  0  0  0
   13.8154    0.0379   21.0662 C   0  0  0  0  0  0  0  0  0  0  0  0
    3.8860    2.1050   19.5250 C   0  0  0  0  0  0  0  0  0  0  0  0
    5.3890    1.0010   21.0690 C   0  0  0  0  0  0  0  0  0  0  0  0
   12.7114   -0.8588   23.4661 C   0  0  0  0  0  0  0  0  0  0  0  0
   12.5958    0.5510   21.5075 C   0  0  0  0  0  0  0  0  0  0  0  0
    9.5890   -2.4950   23.2210 C   0  0  0  0  0  0  0  0  0  0  0  0
    8.2550   -1.0010   24.5520 C   0  0  0  0  0  0  0  0  0  0  0  0
    4.6610    1.7170   18.4380 C   0  0  0  0  0  0  0  0  0  0  0  0
    9.1890   -3.5540   24.0140 C   0  0  0  0  0  0  0  0  0  0  0  0
    7.8700   -2.0610   25.3550 C   0  0  0  0  0  0  0  0  0  0  0  0
    6.1460    0.6070   19.9750 C   0  0  0  0  0  0  0  0  0  0  0  0
   12.0437    0.1027   22.7075 C   0  0  0  0  0  0  0  0  0  0  0  0
    9.1280   -1.2090   23.4870 C   0  0  0  0  0  0  0  0  0  0  0  0
    5.7970    0.9500   18.6730 C   0  0  0  0  0  0  0  0  0  0  0  0
    8.3450   -3.3440   25.0980 C   0  0  0  0  0  0  0  0  0  0  0  0
    7.2710   -0.1460   19.8310 C   0  0  0  0  0  0  0  0  0  0  0  0
    9.0430    0.2380   21.4940 C   0  0  0  0  0  0  0  0  0  0  0  0
    7.1165   -4.0859   26.9913 C   0  0  0  0  0  0  0  0  0  0  0  0
   10.7220    0.6590   23.1850 C   0  0  0  0  0  0  0  0  0  0  0  0
    9.5820   -0.1080   22.7000 C   0  0  1  0  0  0  0  0  0  0  0  0
    7.5840   -0.2700   18.5160 N   0  0  0  0  0  0  0  0  0  0  0  0
    6.7100    0.3850   17.8100 N   0  0  0  0  0  0  0  0  0  0  0  0
    8.0950   -0.7700   20.8440 N   0  0  0  0  0  0  0  0  0  0  0  0
    9.2950    1.3000   20.9480 O   0  0  0  0  0  0  0  0  0  0  0  0
    7.9856   -4.3803   25.8987 O   0  0  0  0  0  0  0  0  0  0  0  0
   15.4334   -1.3223   21.4820 H   0  0  0  0  0  0  0  0  0  0  0  0
    3.6223    2.0725   21.6574 H   0  0  0  0  0  0  0  0  0  0  0  0
   14.4512   -2.1198   23.6162 H   0  0  0  0  0  0  0  0  0  0  0  0
   14.2455    0.3879   20.1325 H   0  0  0  0  0  0  0  0  0  0  0  0
    2.9864    2.6933   19.3609 H   0  0  0  0  0  0  0  0  0  0  0  0
    5.6689    0.7392   22.0836 H   0  0  0  0  0  0  0  0  0  0  0  0
   12.2887   -1.2141   24.4023 H   0  0  0  0  0  0  0  0  0  0  0  0
   12.0827    1.2998   20.9098 H   0  0  0  0  0  0  0  0  0  0  0  0
   10.2677   -2.6721   22.3861 H   0  0  0  0  0  0  0  0  0  0  0  0
    7.8705   -0.0015   24.7586 H   0  0  0  0  0  0  0  0  0  0  0  0
    4.3807    2.0116   17.4186 H   0  0  0  0  0  0  0  0  0  0  0  0
    9.5403   -4.5634   23.7844 H   0  0  0  0  0  0  0  0  0  0  0  0
    7.1918   -1.8874   26.1909 H   0  0  0  0  0  0  0  0  0  0  0  0
    6.9092   -5.0018   27.5500 H   0  0  0  0  0  0  0  0  0  0  0  0
    6.1847   -3.6589   26.6121 H   0  0  0  0  0  0  0  0  0  0  0  0
    7.6049   -3.3632   27.6492 H   0  0  0  0  0  0  0  0  0  0  0  0
   10.7266    0.7141   24.2815 H   0  0  0  0  0  0  0  0  0  0  0  0
   10.6502    1.7003   22.8412 H   0  0  0  0  0  0  0  0  0  0  0  0
    8.7027    0.7972   23.4026 H   0  0  0  0  0  0  0  0  0  0  0  0
    6.7486    0.4313   16.8331 H   0  0  0  0  0  0  0  0  0  0  0  0
    8.0757   -1.6162   21.0774 H   0  0  0  0  0  0  0  0  0  0  0  0
  1  3  1  0  0  0  0
  1  4  2  0  0  0  0
  2  5  1  0  0  0  0
  2  6  2  0  0  0  0
  3  7  2  0  0  0  0
  4  8  1  0  0  0  0
  5 11  2  0  0  0  0
  6 14  1  0  0  0  0
  7 15  1  0  0  0  0
  8 15  2  0  0  0  0
  9 12  2  0  0  0  0
  9 16  1  0  0  0  0
 10 13  1  0  0  0  0
 10 16  2  0  0  0  0
 11 17  1  0  0  0  0
 12 18  1  0  0  0  0
 13 18  2  0  0  0  0
 14 17  2  0  0  0  0
 14 19  1  0  0  0  0
 15 22  1  0  0  0  0
 16 23  1  0  0  0  0
 17 25  1  0  0  0  0
 18 28  1  0  0  0  0
 19 24  2  0  0  0  0
 19 26  1  0  0  0  0
 20 23  1  0  0  0  0
 20 26  1  0  0  0  0
 20 27  2  0  0  0  0
 21 28  1  0  0  0  0
 22 23  1  1  0  0  0
 24 25  1  0  0  0  0
  1 29  1  0  0  0  0
  2 30  1  0  0  0  0
  3 31  1  0  0  0  0
  4 32  1  0  0  0  0
  5 33  1  0  0  0  0
  6 34  1  0  0  0  0
  7 35  1  0  0  0  0
  8 36  1  0  0  0  0
  9 37  1  0  0  0  0
 10 38  1  0  0  0  0
 11 39  1  0  0  0  0
 12 40  1  0  0  0  0
 13 41  1  0  0  0  0
 21 42  1  0  0  0  0
 21 43  1  0  0  0  0
 21 44  1  0  0  0  0
 22 45  1  0  0  0  0
 22 46  1  0  0  0  0
 23 47  1  0  0  0  0
 25 48  1  0  0  0  0
 26 49  1  0  0  0  0
M  END
> <clash_score>
0

> <docking_score>
-5.5114030838012695

> <overlap_score>
0.8887311816215515

$$$$
BENZO_241_2
  -OEChem-08222022453D

 49 52  0     1  0  0  0  0  0999 V2000
   14.0137   -1.8398   24.3768 C   0  0  0  0  0  0  0  0  0  0  0  0
    4.2460    1.7520   20.8250 C   0  0  0  0  0  0  0  0  0  0  0  0
   13.0361   -1.4844   25.3061 C   0  0  0  0  0  0  0  0  0  0  0  0
   13.9239   -1.3848   23.0613 C   0  0  0  0  0  0  0  0  0  0  0  0
    3.8860    2.1050   19.5250 C   0  0  0  0  0  0  0  0  0  0  0  0
    5.3890    1.0010   21.0690 C   0  0  0  0  0  0  0  0  0  0  0  0
   11.9686   -0.6740   24.9198 C   0  0  0  0  0  0  0  0  0  0  0  0
   12.8563   -0.5744   22.6750 C   0  0  0  0  0  0  0  0  0  0  0  0
    9.5890   -2.4950   23.2210 C   0  0  0  0  0  0  0  0  0  0  0  0
    8.2550   -1.0010   24.5520 C   0  0  0  0  0  0  0  0  0  0  0  0
    4.6610    1.7170   18.4380 C   0  0  0  0  0  0  0  0  0  0  0  0
    9.1890   -3.5540   24.0140 C   0  0  0  0  0  0  0  0  0  0  0  0
    7.8700   -2.0610   25.3550 C   0  0  0  0  0  0  0  0  0  0  0  0
    6.1460    0.6070   19.9750 C   0  0  0  0  0  0  0  0  0  0  0  0
   11.8786   -0.2190   23.6043 C   0  0  0  0  0  0  0  0  0  0  0  0
    9.1280   -1.2090   23.4870 C   0  0  0  0  0  0  0  0  0  0  0  0
    5.7970    0.9500   18.6730 C   0  0  0  0  0  0  0  0  0  0  0  0
    8.3450   -3.3440   25.0980 C   0  0  0  0  0  0  0  0  0  0  0  0
    7.2710   -0.1460   19.8310 C   0  0  0  0  0  0  0  0  0  0  0  0
    9.0430    0.2380   21.4940 C   0  0  0  0  0  0  0  0  0  0  0  0
    8.5107   -5.6661   25.5721 C   0  0  0  0  0  0  0  0  0  0  0  0
   10.7220    0.6590   23.1850 C   0  0  0  0  0  0  0  0  0  0  0  0
    9.5820   -0.1080   22.7000 C   0  0  2  0  0  0  0  0  0  0  0  0
    7.5840   -0.2700   18.5160 N   0  0  0  0  0  0  0  0  0  0  0  0
    6.7100    0.3850   17.8100 N   0  0  0  0  0  0  0  0  0  0  0  0
    8.0950   -0.7700   20.8440 N   0  0  0  0  0  0  0  0  0  0  0  0
    9.2950    1.3000   20.9480 O   0  0  0  0  0  0  0  0  0  0  0  0
    7.9856   -4.3803   25.8987 O   0  0  0  0  0  0  0  0  0  0  0  0
   14.8456   -2.4698   24.6781 H   0  0  0  0  0  0  0  0  0  0  0  0
    3.6223    2.0725   21.6574 H   0  0  0  0  0  0  0  0  0  0  0  0
   13.1065   -1.8377   26.3307 H   0  0  0  0  0  0  0  0  0  0  0  0
   14.6854   -1.6605   22.3378 H   0  0  0  0  0  0  0  0  0  0  0  0
    2.9864    2.6933   19.3609 H   0  0  0  0  0  0  0  0  0  0  0  0
    5.6689    0.7392   22.0836 H   0  0  0  0  0  0  0  0  0  0  0  0
   11.2114   -0.4022   25.6506 H   0  0  0  0  0  0  0  0  0  0  0  0
   12.7944   -0.2247   21.6479 H   0  0  0  0  0  0  0  0  0  0  0  0
   10.2677   -2.6721   22.3861 H   0  0  0  0  0  0  0  0  0  0  0  0
    7.8705   -0.0015   24.7586 H   0  0  0  0  0  0  0  0  0  0  0  0
    4.3807    2.0116   17.4186 H   0  0  0  0  0  0  0  0  0  0  0  0
    9.5403   -4.5634   23.7844 H   0  0  0  0  0  0  0  0  0  0  0  0
    7.1918   -1.8874   26.1909 H   0  0  0  0  0  0  0  0  0  0  0  0
    8.1446   -6.4033   26.2908 H   0  0  0  0  0  0  0  0  0  0  0  0
    9.6029   -5.6309   25.5943 H   0  0  0  0  0  0  0  0  0  0  0  0
    8.1774   -5.9418   24.5689 H   0  0  0  0  0  0  0  0  0  0  0  0
   10.4369    1.3080   24.0233 H   0  0  0  0  0  0  0  0  0  0  0  0
   11.0815    1.3384   22.3997 H   0  0  0  0  0  0  0  0  0  0  0  0
   10.5413   -0.9955   22.0233 H   0  0  0  0  0  0  0  0  0  0  0  0
    6.7486    0.4313   16.8331 H   0  0  0  0  0  0  0  0  0  0  0  0
    8.0757   -1.6162   21.0774 H   0  0  0  0  0  0  0  0  0  0  0  0
  1  3  1  0  0  0  0
  1  4  2  0  0  0  0
  2  5  1  0  0  0  0
  2  6  2  0  0  0  0
  3  7  2  0  0  0  0
  4  8  1  0  0  0  0
  5 11  2  0  0  0  0
  6 14  1  0  0  0  0
  7 15  1  0  0  0  0
  8 15  2  0  0  0  0
  9 12  2  0  0  0  0
  9 16  1  0  0  0  0
 10 13  1  0  0  0  0
 10 16  2  0  0  0  0
 11 17  1  0  0  0  0
 12 18  1  0  0  0  0
 13 18  2  0  0  0  0
 14 17  2  0  0  0  0
 14 19  1  0  0  0  0
 15 22  1  0  0  0  0
 16 23  1  0  0  0  0
 17 25  1  0  0  0  0
 18 28  1  0  0  0  0
 19 24  2  0  0  0  0
 19 26  1  0  0  0  0
 20 23  1  0  0  0  0
 20 26  1  0  0  0  0
 20 27  2  0  0  0  0
 21 28  1  0  0  0  0
 22 23  1  6  0  0  0
 24 25  1  0  0  0  0
  1 29  1  0  0  0  0
  2 30  1  0  0  0  0
  3 31  1  0  0  0  0
  4 32  1  0  0  0  0
  5 33  1  0  0  0  0
  6 34  1  0  0  0  0
  7 35  1  0  0  0  0
  8 36  1  0  0  0  0
  9 37  1  0  0  0  0
 10 38  1  0  0  0  0
 11 39  1  0  0  0  0
 12 40  1  0  0  0  0
 13 41  1  0  0  0  0
 21 42  1  0  0  0  0
 21 43  1  0  0  0  0
 21 44  1  0  0  0  0
 22 45  1  0  0  0  0
 22 46  1  0  0  0  0
 23 47  1  0  0  0  0
 25 48  1  0  0  0  0
 26 49  1  0  0  0  0
M  END
> <clash_score>
0

> <docking_score>
-6.938837051391602

> <overlap_score>
0.8966526389122009

$$$$
BENZO_240_1
  -OEChem-08222022453D

 46 49  0     1  0  0  0  0  0999 V2000
    4.2460    1.7520   20.8250 C   0  0  0  0  0  0  0  0  0  0  0  0
    3.8860    2.1050   19.5250 C   0  0  0  0  0  0  0  0  0  0  0  0
    5.3890    1.0010   21.0690 C   0  0  0  0  0  0  0  0  0  0  0  0
    9.5890   -2.4950   23.2210 C   0  0  0  0  0  0  0  0  0  0  0  0
    8.2550   -1.0010   24.5520 C   0  0  0  0  0  0  0  0  0  0  0  0
    4.6610    1.7170   18.4380 C   0  0  0  0  0  0  0  0  0  0  0  0
    9.1890   -3.5540   24.0140 C   0  0  0  0  0  0  0  0  0  0  0  0
    7.8700   -2.0610   25.3550 C   0  0  0  0  0  0  0  0  0  0  0  0
   13.1058   -0.2791   23.5772 C   0  0  0  0  0  0  0  0  0  0  0  0
   14.1974   -0.7534   22.8836 C   0  0  0  0  0  0  0  0  0  0  0  0
   12.3642   -0.0940   21.3822 C   0  0  0  0  0  0  0  0  0  0  0  0
    6.1460    0.6070   19.9750 C   0  0  0  0  0  0  0  0  0  0  0  0
    9.1280   -1.2090   23.4870 C   0  0  0  0  0  0  0  0  0  0  0  0
   12.0437    0.1027   22.7075 C   0  0  0  0  0  0  0  0  0  0  0  0
    5.7970    0.9500   18.6730 C   0  0  0  0  0  0  0  0  0  0  0  0
    8.3450   -3.3440   25.0980 C   0  0  0  0  0  0  0  0  0  0  0  0
    7.2710   -0.1460   19.8310 C   0  0  0  0  0  0  0  0  0  0  0  0
    9.0430    0.2380   21.4940 C   0  0  0  0  0  0  0  0  0  0  0  0
    7.1165   -4.0859   26.9913 C   0  0  0  0  0  0  0  0  0  0  0  0
   10.7220    0.6590   23.1850 C   0  0  0  0  0  0  0  0  0  0  0  0
    9.5820   -0.1080   22.7000 C   0  0  1  0  0  0  0  0  0  0  0  0
    7.5840   -0.2700   18.5160 N   0  0  0  0  0  0  0  0  0  0  0  0
    6.7100    0.3850   17.8100 N   0  0  0  0  0  0  0  0  0  0  0  0
    8.0950   -0.7700   20.8440 N   0  0  0  0  0  0  0  0  0  0  0  0
    9.2950    1.3000   20.9480 O   0  0  0  0  0  0  0  0  0  0  0  0
    7.9856   -4.3803   25.8987 O   0  0  0  0  0  0  0  0  0  0  0  0
   13.9398   -0.7369   21.1908 S   0  0  0  0  0  0  0  0  0  0  0  0
    3.6223    2.0725   21.6574 H   0  0  0  0  0  0  0  0  0  0  0  0
    2.9864    2.6933   19.3609 H   0  0  0  0  0  0  0  0  0  0  0  0
    5.6689    0.7392   22.0836 H   0  0  0  0  0  0  0  0  0  0  0  0
   10.2677   -2.6721   22.3861 H   0  0  0  0  0  0  0  0  0  0  0  0
    7.8705   -0.0015   24.7586 H   0  0  0  0  0  0  0  0  0  0  0  0
    4.3807    2.0116   17.4186 H   0  0  0  0  0  0  0  0  0  0  0  0
    9.5403   -4.5634   23.7844 H   0  0  0  0  0  0  0  0  0  0  0  0
    7.1918   -1.8874   26.1909 H   0  0  0  0  0  0  0  0  0  0  0  0
   13.0750   -0.2107   24.6573 H   0  0  0  0  0  0  0  0  0  0  0  0
   15.1341   -1.1080   23.2899 H   0  0  0  0  0  0  0  0  0  0  0  0
   11.7521    0.1087   20.5143 H   0  0  0  0  0  0  0  0  0  0  0  0
    6.9092   -5.0018   27.5500 H   0  0  0  0  0  0  0  0  0  0  0  0
    6.1847   -3.6589   26.6121 H   0  0  0  0  0  0  0  0  0  0  0  0
    7.6049   -3.3632   27.6492 H   0  0  0  0  0  0  0  0  0  0  0  0
   10.7266    0.7141   24.2815 H   0  0  0  0  0  0  0  0  0  0  0  0
   10.6502    1.7003   22.8412 H   0  0  0  0  0  0  0  0  0  0  0  0
    8.7027    0.7972   23.4026 H   0  0  0  0  0  0  0  0  0  0  0  0
    6.7486    0.4313   16.8331 H   0  0  0  0  0  0  0  0  0  0  0  0
    8.0757   -1.6162   21.0774 H   0  0  0  0  0  0  0  0  0  0  0  0
  1  2  1  0  0  0  0
  1  3  2  0  0  0  0
  2  6  2  0  0  0  0
  3 12  1  0  0  0  0
  4  7  2  0  0  0  0
  4 13  1  0  0  0  0
  5  8  1  0  0  0  0
  5 13  2  0  0  0  0
  6 15  1  0  0  0  0
  7 16  1  0  0  0  0
  8 16  2  0  0  0  0
  9 10  2  0  0  0  0
  9 14  1  0  0  0  0
 10 27  1  0  0  0  0
 11 14  2  0  0  0  0
 11 27  1  0  0  0  0
 12 15  2  0  0  0  0
 12 17  1  0  0  0  0
 13 21  1  0  0  0  0
 14 20  1  0  0  0  0
 15 23  1  0  0  0  0
 16 26  1  0  0  0  0
 17 22  2  0  0  0  0
 17 24  1  0  0  0  0
 18 21  1  0  0  0  0
 18 24  1  0  0  0  0
 18 25  2  0  0  0  0
 19 26  1  0  0  0  0
 20 21  1  1  0  0  0
 22 23  1  0  0  0  0
  1 28  1  0  0  0  0
  2 29  1  0  0  0  0
  3 30  1  0  0  0  0
  4 31  1  0  0  0  0
  5 32  1  0  0  0  0
  6 33  1  0  0  0  0
  7 34  1  0  0  0  0
  8 35  1  0  0  0  0
  9 36  1  0  0  0  0
 10 37  1  0  0  0  0
 11 38  1  0  0  0  0
 19 39  1  0  0  0  0
 19 40  1  0  0  0  0
 19 41  1  0  0  0  0
 20 42  1  0  0  0  0
 20 43  1  0  0  0  0
 21 44  1  0  0  0  0
 23 45  1  0  0  0  0
 24 46  1  0  0  0  0
M  END
> <clash_score>
0

> <docking_score>
-5.570533752441406

> <overlap_score>
0.8786659836769104

$$$$
BENZO_240_2
  -OEChem-08222022453D

 46 49  0     1  0  0  0  0  0999 V2000
    4.2460    1.7520   20.8250 C   0  0  0  0  0  0  0  0  0  0  0  0
    3.8860    2.1050   19.5250 C   0  0  0  0  0  0  0  0  0  0  0  0
    5.3890    1.0010   21.0690 C   0  0  0  0  0  0  0  0  0  0  0  0
    9.5890   -2.4950   23.2210 C   0  0  0  0  0  0  0  0  0  0  0  0
    8.2550   -1.0010   24.5520 C   0  0  0  0  0  0  0  0  0  0  0  0
    4.6610    1.7170   18.4380 C   0  0  0  0  0  0  0  0  0  0  0  0
    9.1890   -3.5540   24.0140 C   0  0  0  0  0  0  0  0  0  0  0  0
    7.8700   -2.0610   25.3550 C   0  0  0  0  0  0  0  0  0  0  0  0
   12.0393    0.1762   25.3640 C   0  0  0  0  0  0  0  0  0  0  0  0
   12.9049   -0.7459   25.9099 C   0  0  0  0  0  0  0  0  0  0  0  0
   12.2520   -1.3384   23.6137 C   0  0  0  0  0  0  0  0  0  0  0  0
    6.1460    0.6070   19.9750 C   0  0  0  0  0  0  0  0  0  0  0  0
    9.1280   -1.2090   23.4870 C   0  0  0  0  0  0  0  0  0  0  0  0
   11.6609   -0.1670   24.0339 C   0  0  0  0  0  0  0  0  0  0  0  0
    5.7970    0.9500   18.6730 C   0  0  0  0  0  0  0  0  0  0  0  0
    8.3450   -3.3440   25.0980 C   0  0  0  0  0  0  0  0  0  0  0  0
    7.2710   -0.1460   19.8310 C   0  0  0  0  0  0  0  0  0  0  0  0
    9.0430    0.2380   21.4940 C   0  0  0  0  0  0  0  0  0  0  0  0
    7.1165   -4.0859   26.9913 C   0  0  0  0  0  0  0  0  0  0  0  0
   10.7220    0.6590   23.1850 C   0  0  0  0  0  0  0  0  0  0  0  0
    9.5820   -0.1080   22.7000 C   0  0  2  0  0  0  0  0  0  0  0  0
    7.5840   -0.2700   18.5160 N   0  0  0  0  0  0  0  0  0  0  0  0
    6.7100    0.3850   17.8100 N   0  0  0  0  0  0  0  0  0  0  0  0
    8.0950   -0.7700   20.8440 N   0  0  0  0  0  0  0  0  0  0  0  0
    9.2950    1.3000   20.9480 O   0  0  0  0  0  0  0  0  0  0  0  0
    7.9856   -4.3803   25.8987 O   0  0  0  0  0  0  0  0  0  0  0  0
   13.2582   -2.0191   24.8206 S   0  0  0  0  0  0  0  0  0  0  0  0
    3.6223    2.0725   21.6574 H   0  0  0  0  0  0  0  0  0  0  0  0
    2.9864    2.6933   19.3609 H   0  0  0  0  0  0  0  0  0  0  0  0
    5.6689    0.7392   22.0836 H   0  0  0  0  0  0  0  0  0  0  0  0
   10.2677   -2.6721   22.3861 H   0  0  0  0  0  0  0  0  0  0  0  0
    7.8705   -0.0015   24.7586 H   0  0  0  0  0  0  0  0  0  0  0  0
    4.3807    2.0116   17.4186 H   0  0  0  0  0  0  0  0  0  0  0  0
    9.5403   -4.5634   23.7844 H   0  0  0  0  0  0  0  0  0  0  0  0
    7.1918   -1.8874   26.1909 H   0  0  0  0  0  0  0  0  0  0  0  0
   11.6967    1.0541   25.8970 H   0  0  0  0  0  0  0  0  0  0  0  0
   13.3474   -0.7326   26.8960 H   0  0  0  0  0  0  0  0  0  0  0  0
   12.1448   -1.8296   22.6565 H   0  0  0  0  0  0  0  0  0  0  0  0
    6.9092   -5.0018   27.5500 H   0  0  0  0  0  0  0  0  0  0  0  0
    6.1847   -3.6589   26.6121 H   0  0  0  0  0  0  0  0  0  0  0  0
    7.6049   -3.3632   27.6492 H   0  0  0  0  0  0  0  0  0  0  0  0
   10.3958    1.5383   23.7557 H   0  0  0  0  0  0  0  0  0  0  0  0
   11.2964    1.0584   22.3376 H   0  0  0  0  0  0  0  0  0  0  0  0
   10.5413   -0.9955   22.0233 H   0  0  0  0  0  0  0  0  0  0  0  0
    6.7486    0.4313   16.8331 H   0  0  0  0  0  0  0  0  0  0  0  0
    8.0757   -1.6162   21.0774 H   0  0  0  0  0  0  0  0  0  0  0  0
  1  2  1  0  0  0  0
  1  3  2  0  0  0  0
  2  6  2  0  0  0  0
  3 12  1  0  0  0  0
  4  7  2  0  0  0  0
  4 13  1  0  0  0  0
  5  8  1  0  0  0  0
  5 13  2  0  0  0  0
  6 15  1  0  0  0  0
  7 16  1  0  0  0  0
  8 16  2  0  0  0  0
  9 10  2  0  0  0  0
  9 14  1  0  0  0  0
 10 27  1  0  0  0  0
 11 14  2  0  0  0  0
 11 27  1  0  0  0  0
 12 15  2  0  0  0  0
 12 17  1  0  0  0  0
 13 21  1  0  0  0  0
 14 20  1  0  0  0  0
 15 23  1  0  0  0  0
 16 26  1  0  0  0  0
 17 22  2  0  0  0  0
 17 24  1  0  0  0  0
 18 21  1  0  0  0  0
 18 24  1  0  0  0  0
 18 25  2  0  0  0  0
 19 26  1  0  0  0  0
 20 21  1  6  0  0  0
 22 23  1  0  0  0  0
  1 28  1  0  0  0  0
  2 29  1  0  0  0  0
  3 30  1  0  0  0  0
  4 31  1  0  0  0  0
  5 32  1  0  0  0  0
  6 33  1  0  0  0  0
  7 34  1  0  0  0  0
  8 35  1  0  0  0  0
  9 36  1  0  0  0  0
 10 37  1  0  0  0  0
 11 38  1  0  0  0  0
 19 39  1  0  0  0  0
 19 40  1  0  0  0  0
 19 41  1  0  0  0  0
 20 42  1  0  0  0  0
 20 43  1  0  0  0  0
 21 44  1  0  0  0  0
 23 45  1  0  0  0  0
 24 46  1  0  0  0  0
M  END
> <clash_score>
0

> <docking_score>
-4.206443786621094

> <overlap_score>
0.8439581394195557

$$$$
BENZO_242_1
  -OEChem-08222022453D

 49 52  0     1  0  0  0  0  0999 V2000
    4.2460    1.7520   20.8250 C   0  0  0  0  0  0  0  0  0  0  0  0
    3.8860    2.1050   19.5250 C   0  0  0  0  0  0  0  0  0  0  0  0
   13.8165    0.0398   21.0674 C   0  0  0  0  0  0  0  0  0  0  0  0
    5.3890    1.0010   21.0690 C   0  0  0  0  0  0  0  0  0  0  0  0
   12.5963    0.5519   21.5081 C   0  0  0  0  0  0  0  0  0  0  0  0
    9.5890   -2.4950   23.2210 C   0  0  0  0  0  0  0  0  0  0  0  0
    8.2550   -1.0010   24.5520 C   0  0  0  0  0  0  0  0  0  0  0  0
    4.6610    1.7170   18.4380 C   0  0  0  0  0  0  0  0  0  0  0  0
    9.1890   -3.5540   24.0140 C   0  0  0  0  0  0  0  0  0  0  0  0
    7.8700   -2.0610   25.3550 C   0  0  0  0  0  0  0  0  0  0  0  0
   14.4843   -0.9216   21.8261 C   0  0  0  0  0  0  0  0  0  0  0  0
   12.7115   -0.8586   23.4663 C   0  0  0  0  0  0  0  0  0  0  0  0
    6.1460    0.6070   19.9750 C   0  0  0  0  0  0  0  0  0  0  0  0
    9.1280   -1.2090   23.4870 C   0  0  0  0  0  0  0  0  0  0  0  0
   12.0437    0.1027   22.7075 C   0  0  0  0  0  0  0  0  0  0  0  0
    5.7970    0.9500   18.6730 C   0  0  0  0  0  0  0  0  0  0  0  0
    8.3450   -3.3440   25.0980 C   0  0  0  0  0  0  0  0  0  0  0  0
   13.9318   -1.3708   23.0255 C   0  0  0  0  0  0  0  0  0  0  0  0
    7.2710   -0.1460   19.8310 C   0  0  0  0  0  0  0  0  0  0  0  0
    9.0430    0.2380   21.4940 C   0  0  0  0  0  0  0  0  0  0  0  0
    8.5107   -5.6661   25.5721 C   0  0  0  0  0  0  0  0  0  0  0  0
   10.7220    0.6590   23.1850 C   0  0  0  0  0  0  0  0  0  0  0  0
    9.5820   -0.1080   22.7000 C   0  0  1  0  0  0  0  0  0  0  0  0
    7.5840   -0.2700   18.5160 N   0  0  0  0  0  0  0  0  0  0  0  0
    6.7100    0.3850   17.8100 N   0  0  0  0  0  0  0  0  0  0  0  0
    8.0950   -0.7700   20.8440 N   0  0  0  0  0  0  0  0  0  0  0  0
    9.2950    1.3000   20.9480 O   0  0  0  0  0  0  0  0  0  0  0  0
    7.9856   -4.3803   25.8987 O   0  0  0  0  0  0  0  0  0  0  0  0
   14.7567   -2.5560   23.9617 Cl  0  0  0  0  0  0  0  0  0  0  0  0
    3.6223    2.0725   21.6574 H   0  0  0  0  0  0  0  0  0  0  0  0
    2.9864    2.6933   19.3609 H   0  0  0  0  0  0  0  0  0  0  0  0
   14.2465    0.3899   20.1334 H   0  0  0  0  0  0  0  0  0  0  0  0
    5.6689    0.7392   22.0836 H   0  0  0  0  0  0  0  0  0  0  0  0
   12.0830    1.3007   20.9105 H   0  0  0  0  0  0  0  0  0  0  0  0
   10.2677   -2.6721   22.3861 H   0  0  0  0  0  0  0  0  0  0  0  0
    7.8705   -0.0015   24.7586 H   0  0  0  0  0  0  0  0  0  0  0  0
    4.3807    2.0116   17.4186 H   0  0  0  0  0  0  0  0  0  0  0  0
    9.5403   -4.5634   23.7844 H   0  0  0  0  0  0  0  0  0  0  0  0
    7.1918   -1.8874   26.1909 H   0  0  0  0  0  0  0  0  0  0  0  0
   15.4348   -1.3117   21.4704 H   0  0  0  0  0  0  0  0  0  0  0  0
   12.2763   -1.2059   24.4005 H   0  0  0  0  0  0  0  0  0  0  0  0
    8.1446   -6.4033   26.2908 H   0  0  0  0  0  0  0  0  0  0  0  0
    9.6029   -5.6309   25.5943 H   0  0  0  0  0  0  0  0  0  0  0  0
    8.1774   -5.9418   24.5689 H   0  0  0  0  0  0  0  0  0  0  0  0
   10.7266    0.7141   24.2815 H   0  0  0  0  0  0  0  0  0  0  0  0
   10.6502    1.7003   22.8412 H   0  0  0  0  0  0  0  0  0  0  0  0
    8.7027    0.7972   23.4026 H   0  0  0  0  0  0  0  0  0  0  0  0
    6.7486    0.4313   16.8331 H   0  0  0  0  0  0  0  0  0  0  0  0
    8.0757   -1.6162   21.0774 H   0  0  0  0  0  0  0  0  0  0  0  0
  1  2  1  0  0  0  0
  1  4  2  0  0  0  0
  2  8  2  0  0  0  0
  3  5  2  0  0  0  0
  3 11  1  0  0  0  0
  4 13  1  0  0  0  0
  5 15  1  0  0  0  0
  6  9  2  0  0  0  0
  6 14  1  0  0  0  0
  7 10  1  0  0  0  0
  7 14  2  0  0  0  0
  8 16  1  0  0  0  0
  9 17  1  0  0  0  0
 10 17  2  0  0  0  0
 11 18  2  0  0  0  0
 12 15  2  0  0  0  0
 12 18  1  0  0  0  0
 13 16  2  0  0  0  0
 13 19  1  0  0  0  0
 14 23  1  0  0  0  0
 15 22  1  0  0  0  0
 16 25  1  0  0  0  0
 17 28  1  0  0  0  0
 18 29  1  0  0  0  0
 19 24  2  0  0  0  0
 19 26  1  0  0  0  0
 20 23  1  0  0  0  0
 20 26  1  0  0  0  0
 20 27  2  0  0  0  0
 21 28  1  0  0  0  0
 22 23  1  1  0  0  0
 24 25  1  0  0  0  0
  1 30  1  0  0  0  0
  2 31  1  0  0  0  0
  3 32  1  0  0  0  0
  4 33  1  0  0  0  0
  5 34  1  0  0  0  0
  6 35  1  0  0  0  0
  7 36  1  0  0  0  0
  8 37  1  0  0  0  0
  9 38  1  0  0  0  0
 10 39  1  0  0  0  0
 11 40  1  0  0  0  0
 12 41  1  0  0  0  0
 21 42  1  0  0  0  0
 21 43  1  0  0  0  0
 21 44  1  0  0  0  0
 22 45  1  0  0  0  0
 22 46  1  0  0  0  0
 23 47  1  0  0  0  0
 25 48  1  0  0  0  0
 26 49  1  0  0  0  0
M  END
> <clash_score>
0

> <docking_score>
-5.539463996887207

> <overlap_score>
0.8904329538345337

$$$$
BENZO_242_2
  -OEChem-08222022453D

 49 52  0     1  0  0  0  0  0999 V2000
    4.2460    1.7520   20.8250 C   0  0  0  0  0  0  0  0  0  0  0  0
    3.8860    2.1050   19.5250 C   0  0  0  0  0  0  0  0  0  0  0  0
   13.0334   -1.4851   25.3072 C   0  0  0  0  0  0  0  0  0  0  0  0
    5.3890    1.0010   21.0690 C   0  0  0  0  0  0  0  0  0  0  0  0
   11.9669   -0.6739   24.9199 C   0  0  0  0  0  0  0  0  0  0  0  0
    9.5890   -2.4950   23.2210 C   0  0  0  0  0  0  0  0  0  0  0  0
    8.2550   -1.0010   24.5520 C   0  0  0  0  0  0  0  0  0  0  0  0
    4.6610    1.7170   18.4380 C   0  0  0  0  0  0  0  0  0  0  0  0
    9.1890   -3.5540   24.0140 C   0  0  0  0  0  0  0  0  0  0  0  0
    7.8700   -2.0610   25.3550 C   0  0  0  0  0  0  0  0  0  0  0  0
   14.0118   -1.8413   24.3790 C   0  0  0  0  0  0  0  0  0  0  0  0
   12.8570   -0.5751   22.6760 C   0  0  0  0  0  0  0  0  0  0  0  0
    6.1460    0.6070   19.9750 C   0  0  0  0  0  0  0  0  0  0  0  0
    9.1280   -1.2090   23.4870 C   0  0  0  0  0  0  0  0  0  0  0  0
   11.8786   -0.2190   23.6043 C   0  0  0  0  0  0  0  0  0  0  0  0
    5.7970    0.9500   18.6730 C   0  0  0  0  0  0  0  0  0  0  0  0
    8.3450   -3.3440   25.0980 C   0  0  0  0  0  0  0  0  0  0  0  0
   13.9236   -1.3863   23.0634 C   0  0  0  0  0  0  0  0  0  0  0  0
    7.2710   -0.1460   19.8310 C   0  0  0  0  0  0  0  0  0  0  0  0
    9.0430    0.2380   21.4940 C   0  0  0  0  0  0  0  0  0  0  0  0
    8.5107   -5.6661   25.5721 C   0  0  0  0  0  0  0  0  0  0  0  0
   10.7220    0.6590   23.1850 C   0  0  0  0  0  0  0  0  0  0  0  0
    9.5820   -0.1080   22.7000 C   0  0  2  0  0  0  0  0  0  0  0  0
    7.5840   -0.2700   18.5160 N   0  0  0  0  0  0  0  0  0  0  0  0
    6.7100    0.3850   17.8100 N   0  0  0  0  0  0  0  0  0  0  0  0
    8.0950   -0.7700   20.8440 N   0  0  0  0  0  0  0  0  0  0  0  0
    9.2950    1.3000   20.9480 O   0  0  0  0  0  0  0  0  0  0  0  0
    7.9856   -4.3803   25.8987 O   0  0  0  0  0  0  0  0  0  0  0  0
   15.1303   -1.8270   21.9183 Cl  0  0  0  0  0  0  0  0  0  0  0  0
    3.6223    2.0725   21.6574 H   0  0  0  0  0  0  0  0  0  0  0  0
    2.9864    2.6933   19.3609 H   0  0  0  0  0  0  0  0  0  0  0  0
   13.1017   -1.8393   26.3318 H   0  0  0  0  0  0  0  0  0  0  0  0
    5.6689    0.7392   22.0836 H   0  0  0  0  0  0  0  0  0  0  0  0
   11.2091   -0.4015   25.6498 H   0  0  0  0  0  0  0  0  0  0  0  0
   10.2677   -2.6721   22.3861 H   0  0  0  0  0  0  0  0  0  0  0  0
    7.8705   -0.0015   24.7586 H   0  0  0  0  0  0  0  0  0  0  0  0
    4.3807    2.0116   17.4186 H   0  0  0  0  0  0  0  0  0  0  0  0
    9.5403   -4.5634   23.7844 H   0  0  0  0  0  0  0  0  0  0  0  0
    7.1918   -1.8874   26.1909 H   0  0  0  0  0  0  0  0  0  0  0  0
   14.8373   -2.4744   24.6949 H   0  0  0  0  0  0  0  0  0  0  0  0
   12.7839   -0.2174   21.6515 H   0  0  0  0  0  0  0  0  0  0  0  0
    8.1446   -6.4033   26.2908 H   0  0  0  0  0  0  0  0  0  0  0  0
    9.6029   -5.6309   25.5943 H   0  0  0  0  0  0  0  0  0  0  0  0
    8.1774   -5.9418   24.5689 H   0  0  0  0  0  0  0  0  0  0  0  0
   10.4369    1.3080   24.0233 H   0  0  0  0  0  0  0  0  0  0  0  0
   11.0815    1.3384   22.3997 H   0  0  0  0  0  0  0  0  0  0  0  0
   10.5413   -0.9955   22.0233 H   0  0  0  0  0  0  0  0  0  0  0  0
    6.7486    0.4313   16.8331 H   0  0  0  0  0  0  0  0  0  0  0  0
    8.0757   -1.6162   21.0774 H   0  0  0  0  0  0  0  0  0  0  0  0
  1  2  1  0  0  0  0
  1  4  2  0  0  0  0
  2  8  2  0  0  0  0
  3  5  2  0  0  0  0
  3 11  1  0  0  0  0
  4 13  1  0  0  0  0
  5 15  1  0  0  0  0
  6  9  2  0  0  0  0
  6 14  1  0  0  0  0
  7 10  1  0  0  0  0
  7 14  2  0  0  0  0
  8 16  1  0  0  0  0
  9 17  1  0  0  0  0
 10 17  2  0  0  0  0
 11 18  2  0  0  0  0
 12 15  2  0  0  0  0
 12 18  1  0  0  0  0
 13 16  2  0  0  0  0
 13 19  1  0  0  0  0
 14 23  1  0  0  0  0
 15 22  1  0  0  0  0
 16 25  1  0  0  0  0
 17 28  1  0  0  0  0
 18 29  1  0  0  0  0
 19 24  2  0  0  0  0
 19 26  1  0  0  0  0
 20 23  1  0  0  0  0
 20 26  1  0  0  0  0
 20 27  2  0  0  0  0
 21 28  1  0  0  0  0
 22 23  1  6  0  0  0
 24 25  1  0  0  0  0
  1 30  1  0  0  0  0
  2 31  1  0  0  0  0
  3 32  1  0  0  0  0
  4 33  1  0  0  0  0
  5 34  1  0  0  0  0
  6 35  1  0  0  0  0
  7 36  1  0  0  0  0
  8 37  1  0  0  0  0
  9 38  1  0  0  0  0
 10 39  1  0  0  0  0
 11 40  1  0  0  0  0
 12 41  1  0  0  0  0
 21 42  1  0  0  0  0
 21 43  1  0  0  0  0
 21 44  1  0  0  0  0
 22 45  1  0  0  0  0
 22 46  1  0  0  0  0
 23 47  1  0  0  0  0
 25 48  1  0  0  0  0
 26 49  1  0  0  0  0
M  END
> <clash_score>
0

> <docking_score>
-6.059744834899902

> <overlap_score>
0.9027400016784668

$$$$
BENZO_243_1
  -OEChem-08222022453D

 49 52  0     1  0  0  0  0  0999 V2000
    4.2460    1.7520   20.8250 C   0  0  0  0  0  0  0  0  0  0  0  0
    3.8860    2.1050   19.5250 C   0  0  0  0  0  0  0  0  0  0  0  0
    5.3890    1.0010   21.0690 C   0  0  0  0  0  0  0  0  0  0  0  0
    9.5890   -2.4950   23.2210 C   0  0  0  0  0  0  0  0  0  0  0  0
    8.2550   -1.0010   24.5520 C   0  0  0  0  0  0  0  0  0  0  0  0
    4.6610    1.7170   18.4380 C   0  0  0  0  0  0  0  0  0  0  0  0
    9.1890   -3.5540   24.0140 C   0  0  0  0  0  0  0  0  0  0  0  0
    7.8700   -2.0610   25.3550 C   0  0  0  0  0  0  0  0  0  0  0  0
   12.7477    0.4352   21.5346 C   0  0  0  0  0  0  0  0  0  0  0  0
   12.8294   -0.8403   23.3239 C   0  0  0  0  0  0  0  0  0  0  0  0
    6.1460    0.6070   19.9750 C   0  0  0  0  0  0  0  0  0  0  0  0
    9.1280   -1.2090   23.4870 C   0  0  0  0  0  0  0  0  0  0  0  0
   12.0437    0.1027   22.7075 C   0  0  0  0  0  0  0  0  0  0  0  0
    5.7970    0.9500   18.6730 C   0  0  0  0  0  0  0  0  0  0  0  0
    8.3450   -3.3440   25.0980 C   0  0  0  0  0  0  0  0  0  0  0  0
    7.2710   -0.1460   19.8310 C   0  0  0  0  0  0  0  0  0  0  0  0
    9.0430    0.2380   21.4940 C   0  0  0  0  0  0  0  0  0  0  0  0
   15.0234   -1.9028   22.7442 C   0  0  0  0  0  0  0  0  0  0  0  0
    8.5107   -5.6661   25.5721 C   0  0  0  0  0  0  0  0  0  0  0  0
   10.7220    0.6590   23.1850 C   0  0  0  0  0  0  0  0  0  0  0  0
    9.5820   -0.1080   22.7000 C   0  0  1  0  0  0  0  0  0  0  0  0
   13.8926   -0.2416   21.4111 N   0  0  0  0  0  0  0  0  0  0  0  0
    7.5840   -0.2700   18.5160 N   0  0  0  0  0  0  0  0  0  0  0  0
    6.7100    0.3850   17.8100 N   0  0  0  0  0  0  0  0  0  0  0  0
   13.9141   -1.0086   22.5144 N   0  0  0  0  0  0  0  0  0  0  0  0
    8.0950   -0.7700   20.8440 N   0  0  0  0  0  0  0  0  0  0  0  0
    9.2950    1.3000   20.9480 O   0  0  0  0  0  0  0  0  0  0  0  0
    7.9856   -4.3803   25.8987 O   0  0  0  0  0  0  0  0  0  0  0  0
    3.6223    2.0725   21.6574 H   0  0  0  0  0  0  0  0  0  0  0  0
    2.9864    2.6933   19.3609 H   0  0  0  0  0  0  0  0  0  0  0  0
    5.6689    0.7392   22.0836 H   0  0  0  0  0  0  0  0  0  0  0  0
   10.2677   -2.6721   22.3861 H   0  0  0  0  0  0  0  0  0  0  0  0
    7.8705   -0.0015   24.7586 H   0  0  0  0  0  0  0  0  0  0  0  0
    4.3807    2.0116   17.4186 H   0  0  0  0  0  0  0  0  0  0  0  0
    9.5403   -4.5634   23.7844 H   0  0  0  0  0  0  0  0  0  0  0  0
    7.1918   -1.8874   26.1909 H   0  0  0  0  0  0  0  0  0  0  0  0
   12.4767    1.1426   20.7637 H   0  0  0  0  0  0  0  0  0  0  0  0
   12.7125   -1.3913   24.2472 H   0  0  0  0  0  0  0  0  0  0  0  0
   14.7824   -2.8646   22.2839 H   0  0  0  0  0  0  0  0  0  0  0  0
   15.9289   -1.4818   22.2983 H   0  0  0  0  0  0  0  0  0  0  0  0
   15.1758   -2.0203   23.8207 H   0  0  0  0  0  0  0  0  0  0  0  0
    8.1446   -6.4033   26.2908 H   0  0  0  0  0  0  0  0  0  0  0  0
    9.6029   -5.6309   25.5943 H   0  0  0  0  0  0  0  0  0  0  0  0
    8.1774   -5.9418   24.5689 H   0  0  0  0  0  0  0  0  0  0  0  0
   10.7266    0.7141   24.2815 H   0  0  0  0  0  0  0  0  0  0  0  0
   10.6502    1.7003   22.8412 H   0  0  0  0  0  0  0  0  0  0  0  0
    8.7027    0.7972   23.4026 H   0  0  0  0  0  0  0  0  0  0  0  0
    6.7486    0.4313   16.8331 H   0  0  0  0  0  0  0  0  0  0  0  0
    8.0757   -1.6162   21.0774 H   0  0  0  0  0  0  0  0  0  0  0  0
  1  2  1  0  0  0  0
  1  3  2  0  0  0  0
  2  6  2  0  0  0  0
  3 11  1  0  0  0  0
  4  7  2  0  0  0  0
  4 12  1  0  0  0  0
  5  8  1  0  0  0  0
  5 12  2  0  0  0  0
  6 14  1  0  0  0  0
  7 15  1  0  0  0  0
  8 15  2  0  0  0  0
  9 13  1  0  0  0  0
  9 22  2  0  0  0  0
 10 13  2  0  0  0  0
 10 25  1  0  0  0  0
 11 14  2  0  0  0  0
 11 16  1  0  0  0  0
 12 21  1  0  0  0  0
 13 20  1  0  0  0  0
 14 24  1  0  0  0  0
 15 28  1  0  0  0  0
 16 23  2  0  0  0  0
 16 26  1  0  0  0  0
 17 21  1  0  0  0  0
 17 26  1  0  0  0  0
 17 27  2  0  0  0  0
 18 25  1  0  0  0  0
 19 28  1  0  0  0  0
 20 21  1  1  0  0  0
 22 25  1  0  0  0  0
 23 24  1  0  0  0  0
  1 29  1  0  0  0  0
  2 30  1  0  0  0  0
  3 31  1  0  0  0  0
  4 32  1  0  0  0  0
  5 33  1  0  0  0  0
  6 34  1  0  0  0  0
  7 35  1  0  0  0  0
  8 36  1  0  0  0  0
  9 37  1  0  0  0  0
 10 38  1  0  0  0  0
 18 39  1  0  0  0  0
 18 40  1  0  0  0  0
 18 41  1  0  0  0  0
 19 42  1  0  0  0  0
 19 43  1  0  0  0  0
 19 44  1  0  0  0  0
 20 45  1  0  0  0  0
 20 46  1  0  0  0  0
 21 47  1  0  0  0  0
 24 48  1  0  0  0  0
 26 49  1  0  0  0  0
M  END
> <clash_score>
0

> <docking_score>
-4.901408672332764

> <overlap_score>
0.8843230605125427

$$$$
BENZO_243_2
  -OEChem-08222022453D

 49 52  0     1  0  0  0  0  0999 V2000
    4.2460    1.7520   20.8250 C   0  0  0  0  0  0  0  0  0  0  0  0
    3.8860    2.1050   19.5250 C   0  0  0  0  0  0  0  0  0  0  0  0
    5.3890    1.0010   21.0690 C   0  0  0  0  0  0  0  0  0  0  0  0
    9.5890   -2.4950   23.2210 C   0  0  0  0  0  0  0  0  0  0  0  0
    8.2550   -1.0010   24.5520 C   0  0  0  0  0  0  0  0  0  0  0  0
    4.6610    1.7170   18.4380 C   0  0  0  0  0  0  0  0  0  0  0  0
    9.1890   -3.5540   24.0140 C   0  0  0  0  0  0  0  0  0  0  0  0
    7.8700   -2.0610   25.3550 C   0  0  0  0  0  0  0  0  0  0  0  0
   12.1294   -0.7684   24.8759 C   0  0  0  0  0  0  0  0  0  0  0  0
   12.9208   -0.6622   22.8272 C   0  0  0  0  0  0  0  0  0  0  0  0
    6.1460    0.6070   19.9750 C   0  0  0  0  0  0  0  0  0  0  0  0
    9.1280   -1.2090   23.4870 C   0  0  0  0  0  0  0  0  0  0  0  0
   11.8786   -0.2190   23.6043 C   0  0  0  0  0  0  0  0  0  0  0  0
    5.7970    0.9500   18.6730 C   0  0  0  0  0  0  0  0  0  0  0  0
    8.3450   -3.3440   25.0980 C   0  0  0  0  0  0  0  0  0  0  0  0
    7.2710   -0.1460   19.8310 C   0  0  0  0  0  0  0  0  0  0  0  0
    9.0430    0.2380   21.4940 C   0  0  0  0  0  0  0  0  0  0  0  0
   14.9196   -2.1033   23.2819 C   0  0  0  0  0  0  0  0  0  0  0  0
    8.5107   -5.6661   25.5721 C   0  0  0  0  0  0  0  0  0  0  0  0
   10.7220    0.6590   23.1850 C   0  0  0  0  0  0  0  0  0  0  0  0
    9.5820   -0.1080   22.7000 C   0  0  2  0  0  0  0  0  0  0  0  0
   13.2434   -1.5045   24.9090 N   0  0  0  0  0  0  0  0  0  0  0  0
    7.5840   -0.2700   18.5160 N   0  0  0  0  0  0  0  0  0  0  0  0
    6.7100    0.3850   17.8100 N   0  0  0  0  0  0  0  0  0  0  0  0
   13.7019   -1.4208   23.6485 N   0  0  0  0  0  0  0  0  0  0  0  0
    8.0950   -0.7700   20.8440 N   0  0  0  0  0  0  0  0  0  0  0  0
    9.2950    1.3000   20.9480 O   0  0  0  0  0  0  0  0  0  0  0  0
    7.9856   -4.3803   25.8987 O   0  0  0  0  0  0  0  0  0  0  0  0
    3.6223    2.0725   21.6574 H   0  0  0  0  0  0  0  0  0  0  0  0
    2.9864    2.6933   19.3609 H   0  0  0  0  0  0  0  0  0  0  0  0
    5.6689    0.7392   22.0836 H   0  0  0  0  0  0  0  0  0  0  0  0
   10.2677   -2.6721   22.3861 H   0  0  0  0  0  0  0  0  0  0  0  0
    7.8705   -0.0015   24.7586 H   0  0  0  0  0  0  0  0  0  0  0  0
    4.3807    2.0116   17.4186 H   0  0  0  0  0  0  0  0  0  0  0  0
    9.5403   -4.5634   23.7844 H   0  0  0  0  0  0  0  0  0  0  0  0
    7.1918   -1.8874   26.1909 H   0  0  0  0  0  0  0  0  0  0  0  0
   11.5479   -0.6652   25.7811 H   0  0  0  0  0  0  0  0  0  0  0  0
   13.1664   -0.5073   21.7853 H   0  0  0  0  0  0  0  0  0  0  0  0
   15.7545   -1.4186   23.4527 H   0  0  0  0  0  0  0  0  0  0  0  0
   15.0313   -3.0027   23.8939 H   0  0  0  0  0  0  0  0  0  0  0  0
   14.8693   -2.3913   22.2281 H   0  0  0  0  0  0  0  0  0  0  0  0
    8.1446   -6.4033   26.2908 H   0  0  0  0  0  0  0  0  0  0  0  0
    9.6029   -5.6309   25.5943 H   0  0  0  0  0  0  0  0  0  0  0  0
    8.1774   -5.9418   24.5689 H   0  0  0  0  0  0  0  0  0  0  0  0
   10.4369    1.3080   24.0233 H   0  0  0  0  0  0  0  0  0  0  0  0
   11.0815    1.3384   22.3997 H   0  0  0  0  0  0  0  0  0  0  0  0
   10.5413   -0.9955   22.0233 H   0  0  0  0  0  0  0  0  0  0  0  0
    6.7486    0.4313   16.8331 H   0  0  0  0  0  0  0  0  0  0  0  0
    8.0757   -1.6162   21.0774 H   0  0  0  0  0  0  0  0  0  0  0  0
  1  2  1  0  0  0  0
  1  3  2  0  0  0  0
  2  6  2  0  0  0  0
  3 11  1  0  0  0  0
  4  7  2  0  0  0  0
  4 12  1  0  0  0  0
  5  8  1  0  0  0  0
  5 12  2  0  0  0  0
  6 14  1  0  0  0  0
  7 15  1  0  0  0  0
  8 15  2  0  0  0  0
  9 13  1  0  0  0  0
  9 22  2  0  0  0  0
 10 13  2  0  0  0  0
 10 25  1  0  0  0  0
 11 14  2  0  0  0  0
 11 16  1  0  0  0  0
 12 21  1  0  0  0  0
 13 20  1  0  0  0  0
 14 24  1  0  0  0  0
 15 28  1  0  0  0  0
 16 23  2  0  0  0  0
 16 26  1  0  0  0  0
 17 21  1  0  0  0  0
 17 26  1  0  0  0  0
 17 27  2  0  0  0  0
 18 25  1  0  0  0  0
 19 28  1  0  0  0  0
 20 21  1  6  0  0  0
 22 25  1  0  0  0  0
 23 24  1  0  0  0  0
  1 29  1  0  0  0  0
  2 30  1  0  0  0  0
  3 31  1  0  0  0  0
  4 32  1  0  0  0  0
  5 33  1  0  0  0  0
  6 34  1  0  0  0  0
  7 35  1  0  0  0  0
  8 36  1  0  0  0  0
  9 37  1  0  0  0  0
 10 38  1  0  0  0  0
 18 39  1  0  0  0  0
 18 40  1  0  0  0  0
 18 41  1  0  0  0  0
 19 42  1  0  0  0  0
 19 43  1  0  0  0  0
 19 44  1  0  0  0  0
 20 45  1  0  0  0  0
 20 46  1  0  0  0  0
 21 47  1  0  0  0  0
 24 48  1  0  0  0  0
 26 49  1  0  0  0  0
M  END
> <clash_score>
0

> <docking_score>
-6.009034156799316

> <overlap_score>
0.8982746005058289

$$$$
BENZO_245_1
  -OEChem-08222022453D

 59 63  0     1  0  0  0  0  0999 V2000
   14.0446   -1.7965   24.3813 C   0  0  0  0  0  0  0  0  0  0  0  0
    4.2460    1.7520   20.8250 C   0  0  0  0  0  0  0  0  0  0  0  0
   13.0634   -1.4504   25.3102 C   0  0  0  0  0  0  0  0  0  0  0  0
   13.9483   -1.3462   23.0646 C   0  0  0  0  0  0  0  0  0  0  0  0
    3.8860    2.1050   19.5250 C   0  0  0  0  0  0  0  0  0  0  0  0
    5.3890    1.0010   21.0690 C   0  0  0  0  0  0  0  0  0  0  0  0
   11.9858   -0.6541   24.9225 C   0  0  0  0  0  0  0  0  0  0  0  0
   12.8707   -0.5498   22.6769 C   0  0  0  0  0  0  0  0  0  0  0  0
    9.5890   -2.4950   23.2210 C   0  0  0  0  0  0  0  0  0  0  0  0
    8.2550   -1.0010   24.5520 C   0  0  0  0  0  0  0  0  0  0  0  0
    4.6610    1.7170   18.4380 C   0  0  0  0  0  0  0  0  0  0  0  0
    9.1890   -3.5540   24.0140 C   0  0  0  0  0  0  0  0  0  0  0  0
    7.8700   -2.0610   25.3550 C   0  0  0  0  0  0  0  0  0  0  0  0
    6.1460    0.6070   19.9750 C   0  0  0  0  0  0  0  0  0  0  0  0
   11.8895   -0.2037   23.6058 C   0  0  0  0  0  0  0  0  0  0  0  0
    9.1280   -1.2090   23.4870 C   0  0  0  0  0  0  0  0  0  0  0  0
    5.7970    0.9500   18.6730 C   0  0  0  0  0  0  0  0  0  0  0  0
    8.3450   -3.3440   25.0980 C   0  0  0  0  0  0  0  0  0  0  0  0
    7.2710   -0.1460   19.8310 C   0  0  0  0  0  0  0  0  0  0  0  0
    6.6194   -4.8191   26.1158 C   0  0  0  0  0  0  0  0  0  0  0  0
    9.0430    0.2380   21.4940 C   0  0  0  0  0  0  0  0  0  0  0  0
    6.4366   -5.9938   27.0605 C   0  0  0  0  0  0  0  0  0  0  0  0
    7.2458   -5.7947   28.3299 C   0  0  0  0  0  0  0  0  0  0  0  0
    8.7184   -5.5215   28.0404 C   0  0  0  0  0  0  0  0  0  0  0  0
    9.0024   -5.2744   26.5596 C   0  0  0  0  0  0  0  0  0  0  0  0
   10.7220    0.6590   23.1850 C   0  0  0  0  0  0  0  0  0  0  0  0
    9.5820   -0.1080   22.7000 C   0  0  1  0  0  0  0  0  0  0  0  0
    7.5840   -0.2700   18.5160 N   0  0  0  0  0  0  0  0  0  0  0  0
    6.7100    0.3850   17.8100 N   0  0  0  0  0  0  0  0  0  0  0  0
    7.9658   -4.4384   25.9449 N   0  0  0  0  0  0  0  0  0  0  0  0
    8.0950   -0.7700   20.8440 N   0  0  0  0  0  0  0  0  0  0  0  0
    5.6415   -4.3469   25.5373 O   0  0  0  0  0  0  0  0  0  0  0  0
    9.2950    1.3000   20.9480 O   0  0  0  0  0  0  0  0  0  0  0  0
   14.8842   -2.4155   24.6836 H   0  0  0  0  0  0  0  0  0  0  0  0
    3.6223    2.0725   21.6574 H   0  0  0  0  0  0  0  0  0  0  0  0
   13.1387   -1.8001   26.3358 H   0  0  0  0  0  0  0  0  0  0  0  0
   14.7126   -1.6146   22.3413 H   0  0  0  0  0  0  0  0  0  0  0  0
    2.9864    2.6933   19.3609 H   0  0  0  0  0  0  0  0  0  0  0  0
    5.6689    0.7392   22.0836 H   0  0  0  0  0  0  0  0  0  0  0  0
   11.2258   -0.3895   25.6531 H   0  0  0  0  0  0  0  0  0  0  0  0
   12.8039   -0.2037   21.6488 H   0  0  0  0  0  0  0  0  0  0  0  0
   10.2695   -2.6718   22.3873 H   0  0  0  0  0  0  0  0  0  0  0  0
    7.8712   -0.0014   24.7587 H   0  0  0  0  0  0  0  0  0  0  0  0
    4.3807    2.0116   17.4186 H   0  0  0  0  0  0  0  0  0  0  0  0
    9.5431   -4.5618   23.7801 H   0  0  0  0  0  0  0  0  0  0  0  0
    7.1923   -1.8823   26.1912 H   0  0  0  0  0  0  0  0  0  0  0  0
    5.3901   -6.0734   27.3117 H   0  0  0  0  0  0  0  0  0  0  0  0
    6.7606   -6.8843   26.5429 H   0  0  0  0  0  0  0  0  0  0  0  0
    6.8221   -4.9563   28.9212 H   0  0  0  0  0  0  0  0  0  0  0  0
    7.1526   -6.6910   28.9757 H   0  0  0  0  0  0  0  0  0  0  0  0
    9.0539   -4.6418   28.6288 H   0  0  0  0  0  0  0  0  0  0  0  0
    9.3393   -6.3684   28.4053 H   0  0  0  0  0  0  0  0  0  0  0  0
    9.9475   -4.7506   26.4523 H   0  0  0  0  0  0  0  0  0  0  0  0
    9.0509   -6.2236   26.0372 H   0  0  0  0  0  0  0  0  0  0  0  0
   10.4316    1.3089   24.0208 H   0  0  0  0  0  0  0  0  0  0  0  0
   11.0719    1.3385   22.3955 H   0  0  0  0  0  0  0  0  0  0  0  0
   10.5438   -0.9939   22.0202 H   0  0  0  0  0  0  0  0  0  0  0  0
    6.7486    0.4313   16.8331 H   0  0  0  0  0  0  0  0  0  0  0  0
    8.0917   -1.6083   21.0911 H   0  0  0  0  0  0  0  0  0  0  0  0
  1  3  1  0  0  0  0
  1  4  2  0  0  0  0
  2  5  1  0  0  0  0
  2  6  2  0  0  0  0
  3  7  2  0  0  0  0
  4  8  1  0  0  0  0
  5 11  2  0  0  0  0
  6 14  1  0  0  0  0
  7 15  1  0  0  0  0
  8 15  2  0  0  0  0
  9 12  2  0  0  0  0
  9 16  1  0  0  0  0
 10 13  1  0  0  0  0
 10 16  2  0  0  0  0
 11 17  1  0  0  0  0
 12 18  1  0  0  0  0
 13 18  2  0  0  0  0
 14 17  2  0  0  0  0
 14 19  1  0  0  0  0
 15 26  1  0  0  0  0
 16 27  1  0  0  0  0
 17 29  1  0  0  0  0
 18 30  1  0  0  0  0
 19 28  2  0  0  0  0
 19 31  1  0  0  0  0
 20 22  1  0  0  0  0
 20 30  1  0  0  0  0
 20 32  2  0  0  0  0
 21 27  1  1  0  0  0
 21 31  1  0  0  0  0
 21 33  2  0  0  0  0
 22 23  1  0  0  0  0
 23 24  1  0  0  0  0
 24 25  1  0  0  0  0
 25 30  1  0  0  0  0
 26 27  1  0  0  0  0
 28 29  1  0  0  0  0
  1 34  1  0  0  0  0
  2 35  1  0  0  0  0
  3 36  1  0  0  0  0
  4 37  1  0  0  0  0
  5 38  1  0  0  0  0
  6 39  1  0  0  0  0
  7 40  1  0  0  0  0
  8 41  1  0  0  0  0
  9 42  1  0  0  0  0
 10 43  1  0  0  0  0
 11 44  1  0  0  0  0
 12 45  1  0  0  0  0
 13 46  1  0  0  0  0
 22 47  1  0  0  0  0
 22 48  1  0  0  0  0
 23 49  1  0  0  0  0
 23 50  1  0  0  0  0
 24 51  1  0  0  0  0
 24 52  1  0  0  0  0
 25 53  1  0  0  0  0
 25 54  1  0  0  0  0
 26 55  1  0  0  0  0
 26 56  1  0  0  0  0
 27 57  1  0  0  0  0
 29 58  1  0  0  0  0
 31 59  1  0  0  0  0
M  END
> <clash_score>
0

> <docking_score>
-7.750648498535156

> <overlap_score>
0.9768222570419312

$$$$
BENZO_245_2
  -OEChem-08222022453D

 59 63  0     1  0  0  0  0  0999 V2000
   14.5087   -0.8923   21.8603 C   0  0  0  0  0  0  0  0  0  0  0  0
    4.2460    1.7520   20.8250 C   0  0  0  0  0  0  0  0  0  0  0  0
   13.9503   -1.3434   23.0563 C   0  0  0  0  0  0  0  0  0  0  0  0
   13.8391    0.0619   21.0942 C   0  0  0  0  0  0  0  0  0  0  0  0
    3.8860    2.1050   19.5250 C   0  0  0  0  0  0  0  0  0  0  0  0
    5.3890    1.0010   21.0690 C   0  0  0  0  0  0  0  0  0  0  0  0
   12.7223   -0.8405   23.4861 C   0  0  0  0  0  0  0  0  0  0  0  0
   12.6112    0.5649   21.5240 C   0  0  0  0  0  0  0  0  0  0  0  0
    9.5890   -2.4950   23.2210 C   0  0  0  0  0  0  0  0  0  0  0  0
    8.2550   -1.0010   24.5520 C   0  0  0  0  0  0  0  0  0  0  0  0
    4.6610    1.7170   18.4380 C   0  0  0  0  0  0  0  0  0  0  0  0
    9.1890   -3.5540   24.0140 C   0  0  0  0  0  0  0  0  0  0  0  0
    7.8700   -2.0610   25.3550 C   0  0  0  0  0  0  0  0  0  0  0  0
    6.1460    0.6070   19.9750 C   0  0  0  0  0  0  0  0  0  0  0  0
   12.0527    0.1137   22.7200 C   0  0  0  0  0  0  0  0  0  0  0  0
    9.1280   -1.2090   23.4870 C   0  0  0  0  0  0  0  0  0  0  0  0
    5.7970    0.9500   18.6730 C   0  0  0  0  0  0  0  0  0  0  0  0
    8.3450   -3.3440   25.0980 C   0  0  0  0  0  0  0  0  0  0  0  0
    7.2710   -0.1460   19.8310 C   0  0  0  0  0  0  0  0  0  0  0  0
    7.6777   -4.2365   27.3114 C   0  0  0  0  0  0  0  0  0  0  0  0
    9.0430    0.2380   21.4940 C   0  0  0  0  0  0  0  0  0  0  0  0
    7.0008   -5.3819   28.0445 C   0  0  0  0  0  0  0  0  0  0  0  0
    7.4106   -6.7604   27.5741 C   0  0  0  0  0  0  0  0  0  0  0  0
    7.2148   -6.8411   26.0763 C   0  0  0  0  0  0  0  0  0  0  0  0
    8.0979   -5.8053   25.4011 C   0  0  0  0  0  0  0  0  0  0  0  0
   10.7220    0.6590   23.1850 C   0  0  0  0  0  0  0  0  0  0  0  0
    9.5820   -0.1080   22.7000 C   0  0  2  0  0  0  0  0  0  0  0  0
    7.5840   -0.2700   18.5160 N   0  0  0  0  0  0  0  0  0  0  0  0
    6.7100    0.3850   17.8100 N   0  0  0  0  0  0  0  0  0  0  0  0
    7.9635   -4.4451   25.9501 N   0  0  0  0  0  0  0  0  0  0  0  0
    8.0950   -0.7700   20.8440 N   0  0  0  0  0  0  0  0  0  0  0  0
    7.8778   -3.1892   27.9327 O   0  0  0  0  0  0  0  0  0  0  0  0
    9.2950    1.3000   20.9480 O   0  0  0  0  0  0  0  0  0  0  0  0
   15.4655   -1.2831   21.5265 H   0  0  0  0  0  0  0  0  0  0  0  0
    3.6223    2.0725   21.6574 H   0  0  0  0  0  0  0  0  0  0  0  0
   14.4720   -2.0856   23.6535 H   0  0  0  0  0  0  0  0  0  0  0  0
   14.2741    0.4142   20.1636 H   0  0  0  0  0  0  0  0  0  0  0  0
    2.9864    2.6933   19.3609 H   0  0  0  0  0  0  0  0  0  0  0  0
    5.6689    0.7392   22.0836 H   0  0  0  0  0  0  0  0  0  0  0  0
   12.2947   -1.1979   24.4191 H   0  0  0  0  0  0  0  0  0  0  0  0
   12.0966    1.3080   20.9206 H   0  0  0  0  0  0  0  0  0  0  0  0
   10.2695   -2.6718   22.3873 H   0  0  0  0  0  0  0  0  0  0  0  0
    7.8712   -0.0014   24.7587 H   0  0  0  0  0  0  0  0  0  0  0  0
    4.3807    2.0116   17.4186 H   0  0  0  0  0  0  0  0  0  0  0  0
    9.5431   -4.5618   23.7801 H   0  0  0  0  0  0  0  0  0  0  0  0
    7.1923   -1.8823   26.1912 H   0  0  0  0  0  0  0  0  0  0  0  0
    7.2290   -5.2845   29.1121 H   0  0  0  0  0  0  0  0  0  0  0  0
    5.9188   -5.2480   27.9251 H   0  0  0  0  0  0  0  0  0  0  0  0
    8.4598   -6.9525   27.8289 H   0  0  0  0  0  0  0  0  0  0  0  0
    6.8062   -7.5226   28.0776 H   0  0  0  0  0  0  0  0  0  0  0  0
    7.4789   -7.8416   25.7161 H   0  0  0  0  0  0  0  0  0  0  0  0
    6.1634   -6.6702   25.8155 H   0  0  0  0  0  0  0  0  0  0  0  0
    9.1520   -6.0895   25.5127 H   0  0  0  0  0  0  0  0  0  0  0  0
    7.8696   -5.7728   24.3290 H   0  0  0  0  0  0  0  0  0  0  0  0
   10.7177    0.7189   24.2812 H   0  0  0  0  0  0  0  0  0  0  0  0
   10.6426    1.6980   22.8361 H   0  0  0  0  0  0  0  0  0  0  0  0
    8.7036    0.8022   23.4008 H   0  0  0  0  0  0  0  0  0  0  0  0
    6.7486    0.4313   16.8331 H   0  0  0  0  0  0  0  0  0  0  0  0
    8.0917   -1.6083   21.0911 H   0  0  0  0  0  0  0  0  0  0  0  0
  1  3  1  0  0  0  0
  1  4  2  0  0  0  0
  2  5  1  0  0  0  0
  2  6  2  0  0  0  0
  3  7  2  0  0  0  0
  4  8  1  0  0  0  0
  5 11  2  0  0  0  0
  6 14  1  0  0  0  0
  7 15  1  0  0  0  0
  8 15  2  0  0  0  0
  9 12  2  0  0  0  0
  9 16  1  0  0  0  0
 10 13  1  0  0  0  0
 10 16  2  0  0  0  0
 11 17  1  0  0  0  0
 12 18  1  0  0  0  0
 13 18  2  0  0  0  0
 14 17  2  0  0  0  0
 14 19  1  0  0  0  0
 15 26  1  0  0  0  0
 16 27  1  0  0  0  0
 17 29  1  0  0  0  0
 18 30  1  0  0  0  0
 19 28  2  0  0  0  0
 19 31  1  0  0  0  0
 20 22  1  0  0  0  0
 20 30  1  0  0  0  0
 20 32  2  0  0  0  0
 21 27  1  6  0  0  0
 21 31  1  0  0  0  0
 21 33  2  0  0  0  0
 22 23  1  0  0  0  0
 23 24  1  0  0  0  0
 24 25  1  0  0  0  0
 25 30  1  0  0  0  0
 26 27  1  0  0  0  0
 28 29  1  0  0  0  0
  1 34  1  0  0  0  0
  2 35  1  0  0  0  0
  3 36  1  0  0  0  0
  4 37  1  0  0  0  0
  5 38  1  0  0  0  0
  6 39  1  0  0  0  0
  7 40  1  0  0  0  0
  8 41  1  0  0  0  0
  9 42  1  0  0  0  0
 10 43  1  0  0  0  0
 11 44  1  0  0  0  0
 12 45  1  0  0  0  0
 13 46  1  0  0  0  0
 22 47  1  0  0  0  0
 22 48  1  0  0  0  0
 23 49  1  0  0  0  0
 23 50  1  0  0  0  0
 24 51  1  0  0  0  0
 24 52  1  0  0  0  0
 25 53  1  0  0  0  0
 25 54  1  0  0  0  0
 26 55  1  0  0  0  0
 26 56  1  0  0  0  0
 27 57  1  0  0  0  0
 29 58  1  0  0  0  0
 31 59  1  0  0  0  0
M  END
> <clash_score>
0

> <docking_score>
-5.958865642547607

> <overlap_score>
0.9639173150062561

$$$$
BENZO_244_1
  -OEChem-08222022453D

 56 60  0     1  0  0  0  0  0999 V2000
    4.2460    1.7520   20.8250 C   0  0  0  0  0  0  0  0  0  0  0  0
    3.8860    2.1050   19.5250 C   0  0  0  0  0  0  0  0  0  0  0  0
    5.3890    1.0010   21.0690 C   0  0  0  0  0  0  0  0  0  0  0  0
    9.5890   -2.4950   23.2210 C   0  0  0  0  0  0  0  0  0  0  0  0
    8.2550   -1.0010   24.5520 C   0  0  0  0  0  0  0  0  0  0  0  0
    4.6610    1.7170   18.4380 C   0  0  0  0  0  0  0  0  0  0  0  0
    9.1890   -3.5540   24.0140 C   0  0  0  0  0  0  0  0  0  0  0  0
    7.8700   -2.0610   25.3550 C   0  0  0  0  0  0  0  0  0  0  0  0
   12.0564    0.2021   25.3592 C   0  0  0  0  0  0  0  0  0  0  0  0
   12.9335   -0.7085   25.9059 C   0  0  0  0  0  0  0  0  0  0  0  0
   12.2727   -1.3216   23.6174 C   0  0  0  0  0  0  0  0  0  0  0  0
    6.1460    0.6070   19.9750 C   0  0  0  0  0  0  0  0  0  0  0  0
    9.1280   -1.2090   23.4870 C   0  0  0  0  0  0  0  0  0  0  0  0
   11.6734   -0.1530   24.0335 C   0  0  0  0  0  0  0  0  0  0  0  0
    5.7970    0.9500   18.6730 C   0  0  0  0  0  0  0  0  0  0  0  0
    8.3450   -3.3440   25.0980 C   0  0  0  0  0  0  0  0  0  0  0  0
    7.2710   -0.1460   19.8310 C   0  0  0  0  0  0  0  0  0  0  0  0
    6.7262   -4.4697   26.6151 C   0  0  0  0  0  0  0  0  0  0  0  0
    9.0430    0.2380   21.4940 C   0  0  0  0  0  0  0  0  0  0  0  0
    6.5282   -5.7113   27.4665 C   0  0  0  0  0  0  0  0  0  0  0  0
    7.7583   -5.9846   28.3140 C   0  0  0  0  0  0  0  0  0  0  0  0
    9.0310   -6.0659   27.4769 C   0  0  0  0  0  0  0  0  0  0  0  0
    8.8255   -5.6238   26.0289 C   0  0  0  0  0  0  0  0  0  0  0  0
   10.7220    0.6590   23.1850 C   0  0  0  0  0  0  0  0  0  0  0  0
    9.5820   -0.1080   22.7000 C   0  0  1  0  0  0  0  0  0  0  0  0
    7.5840   -0.2700   18.5160 N   0  0  0  0  0  0  0  0  0  0  0  0
    6.7100    0.3850   17.8100 N   0  0  0  0  0  0  0  0  0  0  0  0
    7.9658   -4.4384   25.9449 N   0  0  0  0  0  0  0  0  0  0  0  0
    8.0950   -0.7700   20.8440 N   0  0  0  0  0  0  0  0  0  0  0  0
    5.8136   -3.6504   26.5144 O   0  0  0  0  0  0  0  0  0  0  0  0
    9.2950    1.3000   20.9480 O   0  0  0  0  0  0  0  0  0  0  0  0
   13.2920   -1.9854   24.8226 S   0  0  0  0  0  0  0  0  0  0  0  0
    3.6223    2.0725   21.6574 H   0  0  0  0  0  0  0  0  0  0  0  0
    2.9864    2.6933   19.3609 H   0  0  0  0  0  0  0  0  0  0  0  0
    5.6689    0.7392   22.0836 H   0  0  0  0  0  0  0  0  0  0  0  0
   10.2695   -2.6718   22.3873 H   0  0  0  0  0  0  0  0  0  0  0  0
    7.8712   -0.0014   24.7587 H   0  0  0  0  0  0  0  0  0  0  0  0
    4.3807    2.0116   17.4186 H   0  0  0  0  0  0  0  0  0  0  0  0
    9.5431   -4.5618   23.7801 H   0  0  0  0  0  0  0  0  0  0  0  0
    7.1923   -1.8823   26.1912 H   0  0  0  0  0  0  0  0  0  0  0  0
   11.7089    1.0803   25.8886 H   0  0  0  0  0  0  0  0  0  0  0  0
   13.3816   -0.6848   26.8892 H   0  0  0  0  0  0  0  0  0  0  0  0
   12.1643   -1.8199   22.6640 H   0  0  0  0  0  0  0  0  0  0  0  0
    5.6771   -5.5542   28.1111 H   0  0  0  0  0  0  0  0  0  0  0  0
    6.3384   -6.5392   26.7998 H   0  0  0  0  0  0  0  0  0  0  0  0
    7.8707   -5.1934   29.0843 H   0  0  0  0  0  0  0  0  0  0  0  0
    7.6207   -6.9300   28.8764 H   0  0  0  0  0  0  0  0  0  0  0  0
    9.8202   -5.4387   27.9422 H   0  0  0  0  0  0  0  0  0  0  0  0
    9.4333   -7.1021   27.4993 H   0  0  0  0  0  0  0  0  0  0  0  0
    9.7828   -5.3621   25.5884 H   0  0  0  0  0  0  0  0  0  0  0  0
    8.3738   -6.4323   25.4644 H   0  0  0  0  0  0  0  0  0  0  0  0
   10.3911    1.5389   23.7520 H   0  0  0  0  0  0  0  0  0  0  0  0
   11.2877    1.0581   22.3317 H   0  0  0  0  0  0  0  0  0  0  0  0
   10.5438   -0.9939   22.0202 H   0  0  0  0  0  0  0  0  0  0  0  0
    6.7486    0.4313   16.8331 H   0  0  0  0  0  0  0  0  0  0  0  0
    8.0917   -1.6083   21.0911 H   0  0  0  0  0  0  0  0  0  0  0  0
  1  2  1  0  0  0  0
  1  3  2  0  0  0  0
  2  6  2  0  0  0  0
  3 12  1  0  0  0  0
  4  7  2  0  0  0  0
  4 13  1  0  0  0  0
  5  8  1  0  0  0  0
  5 13  2  0  0  0  0
  6 15  1  0  0  0  0
  7 16  1  0  0  0  0
  8 16  2  0  0  0  0
  9 10  2  0  0  0  0
  9 14  1  0  0  0  0
 10 32  1  0  0  0  0
 11 14  2  0  0  0  0
 11 32  1  0  0  0  0
 12 15  2  0  0  0  0
 12 17  1  0  0  0  0
 13 25  1  0  0  0  0
 14 24  1  0  0  0  0
 15 27  1  0  0  0  0
 16 28  1  0  0  0  0
 17 26  2  0  0  0  0
 17 29  1  0  0  0  0
 18 20  1  0  0  0  0
 18 28  1  0  0  0  0
 18 30  2  0  0  0  0
 19 25  1  1  0  0  0
 19 29  1  0  0  0  0
 19 31  2  0  0  0  0
 20 21  1  0  0  0  0
 21 22  1  0  0  0  0
 22 23  1  0  0  0  0
 23 28  1  0  0  0  0
 24 25  1  0  0  0  0
 26 27  1  0  0  0  0
  1 33  1  0  0  0  0
  2 34  1  0  0  0  0
  3 35  1  0  0  0  0
  4 36  1  0  0  0  0
  5 37  1  0  0  0  0
  6 38  1  0  0  0  0
  7 39  1  0  0  0  0
  8 40  1  0  0  0  0
  9 41  1  0  0  0  0
 10 42  1  0  0  0  0
 11 43  1  0  0  0  0
 20 44  1  0  0  0  0
 20 45  1  0  0  0  0
 21 46  1  0  0  0  0
 21 47  1  0  0  0  0
 22 48  1  0  0  0  0
 22 49  1  0  0  0  0
 23 50  1  0  0  0  0
 23 51  1  0  0  0  0
 24 52  1  0  0  0  0
 24 53  1  0  0  0  0
 25 54  1  0  0  0  0
 27 55  1  0  0  0  0
 29 56  1  0  0  0  0
M  END
> <clash_score>
0

> <docking_score>
-4.968711853027344

> <overlap_score>
0.9133999347686768

$$$$
BENZO_244_2
  -OEChem-08222022453D

 56 60  0     1  0  0  0  0  0999 V2000
    4.2460    1.7520   20.8250 C   0  0  0  0  0  0  0  0  0  0  0  0
    3.8860    2.1050   19.5250 C   0  0  0  0  0  0  0  0  0  0  0  0
    5.3890    1.0010   21.0690 C   0  0  0  0  0  0  0  0  0  0  0  0
    9.5890   -2.4950   23.2210 C   0  0  0  0  0  0  0  0  0  0  0  0
    8.2550   -1.0010   24.5520 C   0  0  0  0  0  0  0  0  0  0  0  0
    4.6610    1.7170   18.4380 C   0  0  0  0  0  0  0  0  0  0  0  0
    9.1890   -3.5540   24.0140 C   0  0  0  0  0  0  0  0  0  0  0  0
    7.8700   -2.0610   25.3550 C   0  0  0  0  0  0  0  0  0  0  0  0
   13.1119   -0.2539   23.5994 C   0  0  0  0  0  0  0  0  0  0  0  0
   14.2133   -0.7203   22.9162 C   0  0  0  0  0  0  0  0  0  0  0  0
   12.3853   -0.0856   21.3980 C   0  0  0  0  0  0  0  0  0  0  0  0
    6.1460    0.6070   19.9750 C   0  0  0  0  0  0  0  0  0  0  0  0
    9.1280   -1.2090   23.4870 C   0  0  0  0  0  0  0  0  0  0  0  0
   12.0527    0.1137   22.7200 C   0  0  0  0  0  0  0  0  0  0  0  0
    5.7970    0.9500   18.6730 C   0  0  0  0  0  0  0  0  0  0  0  0
    8.3450   -3.3440   25.0980 C   0  0  0  0  0  0  0  0  0  0  0  0
    7.2710   -0.1460   19.8310 C   0  0  0  0  0  0  0  0  0  0  0  0
    6.6194   -4.8191   26.1158 C   0  0  0  0  0  0  0  0  0  0  0  0
    9.0430    0.2380   21.4940 C   0  0  0  0  0  0  0  0  0  0  0  0
    6.4366   -5.9938   27.0605 C   0  0  0  0  0  0  0  0  0  0  0  0
    7.2458   -5.7947   28.3299 C   0  0  0  0  0  0  0  0  0  0  0  0
    8.7184   -5.5215   28.0404 C   0  0  0  0  0  0  0  0  0  0  0  0
    9.0024   -5.2744   26.5596 C   0  0  0  0  0  0  0  0  0  0  0  0
   10.7220    0.6590   23.1850 C   0  0  0  0  0  0  0  0  0  0  0  0
    9.5820   -0.1080   22.7000 C   0  0  2  0  0  0  0  0  0  0  0  0
    7.5840   -0.2700   18.5160 N   0  0  0  0  0  0  0  0  0  0  0  0
    6.7100    0.3850   17.8100 N   0  0  0  0  0  0  0  0  0  0  0  0
    7.9658   -4.4384   25.9449 N   0  0  0  0  0  0  0  0  0  0  0  0
    8.0950   -0.7700   20.8440 N   0  0  0  0  0  0  0  0  0  0  0  0
    5.6415   -4.3469   25.5373 O   0  0  0  0  0  0  0  0  0  0  0  0
    9.2950    1.3000   20.9480 O   0  0  0  0  0  0  0  0  0  0  0  0
   13.9685   -0.7137   21.2214 S   0  0  0  0  0  0  0  0  0  0  0  0
    3.6223    2.0725   21.6574 H   0  0  0  0  0  0  0  0  0  0  0  0
    2.9864    2.6933   19.3609 H   0  0  0  0  0  0  0  0  0  0  0  0
    5.6689    0.7392   22.0836 H   0  0  0  0  0  0  0  0  0  0  0  0
   10.2695   -2.6718   22.3873 H   0  0  0  0  0  0  0  0  0  0  0  0
    7.8712   -0.0014   24.7587 H   0  0  0  0  0  0  0  0  0  0  0  0
    4.3807    2.0116   17.4186 H   0  0  0  0  0  0  0  0  0  0  0  0
    9.5431   -4.5618   23.7801 H   0  0  0  0  0  0  0  0  0  0  0  0
    7.1923   -1.8823   26.1912 H   0  0  0  0  0  0  0  0  0  0  0  0
   13.0722   -0.1811   24.6789 H   0  0  0  0  0  0  0  0  0  0  0  0
   15.1504   -1.0639   23.3311 H   0  0  0  0  0  0  0  0  0  0  0  0
   11.7778    0.1074   20.5246 H   0  0  0  0  0  0  0  0  0  0  0  0
    5.3901   -6.0734   27.3117 H   0  0  0  0  0  0  0  0  0  0  0  0
    6.7606   -6.8843   26.5429 H   0  0  0  0  0  0  0  0  0  0  0  0
    6.8221   -4.9563   28.9212 H   0  0  0  0  0  0  0  0  0  0  0  0
    7.1526   -6.6910   28.9757 H   0  0  0  0  0  0  0  0  0  0  0  0
    9.0539   -4.6418   28.6288 H   0  0  0  0  0  0  0  0  0  0  0  0
    9.3393   -6.3684   28.4053 H   0  0  0  0  0  0  0  0  0  0  0  0
    9.9475   -4.7506   26.4523 H   0  0  0  0  0  0  0  0  0  0  0  0
    9.0509   -6.2236   26.0372 H   0  0  0  0  0  0  0  0  0  0  0  0
   10.7177    0.7189   24.2812 H   0  0  0  0  0  0  0  0  0  0  0  0
   10.6426    1.6980   22.8361 H   0  0  0  0  0  0  0  0  0  0  0  0
    8.7036    0.8022   23.4008 H   0  0  0  0  0  0  0  0  0  0  0  0
    6.7486    0.4313   16.8331 H   0  0  0  0  0  0  0  0  0  0  0  0
    8.0917   -1.6083   21.0911 H   0  0  0  0  0  0  0  0  0  0  0  0
  1  2  1  0  0  0  0
  1  3  2  0  0  0  0
  2  6  2  0  0  0  0
  3 12  1  0  0  0  0
  4  7  2  0  0  0  0
  4 13  1  0  0  0  0
  5  8  1  0  0  0  0
  5 13  2  0  0  0  0
  6 15  1  0  0  0  0
  7 16  1  0  0  0  0
  8 16  2  0  0  0  0
  9 10  2  0  0  0  0
  9 14  1  0  0  0  0
 10 32  1  0  0  0  0
 11 14  2  0  0  0  0
 11 32  1  0  0  0  0
 12 15  2  0  0  0  0
 12 17  1  0  0  0  0
 13 25  1  0  0  0  0
 14 24  1  0  0  0  0
 15 27  1  0  0  0  0
 16 28  1  0  0  0  0
 17 26  2  0  0  0  0
 17 29  1  0  0  0  0
 18 20  1  0  0  0  0
 18 28  1  0  0  0  0
 18 30  2  0  0  0  0
 19 25  1  6  0  0  0
 19 29  1  0  0  0  0
 19 31  2  0  0  0  0
 20 21  1  0  0  0  0
 21 22  1  0  0  0  0
 22 23  1  0  0  0  0
 23 28  1  0  0  0  0
 24 25  1  0  0  0  0
 26 27  1  0  0  0  0
  1 33  1  0  0  0  0
  2 34  1  0  0  0  0
  3 35  1  0  0  0  0
  4 36  1  0  0  0  0
  5 37  1  0  0  0  0
  6 38  1  0  0  0  0
  7 39  1  0  0  0  0
  8 40  1  0  0  0  0
  9 41  1  0  0  0  0
 10 42  1  0  0  0  0
 11 43  1  0  0  0  0
 20 44  1  0  0  0  0
 20 45  1  0  0  0  0
 21 46  1  0  0  0  0
 21 47  1  0  0  0  0
 22 48  1  0  0  0  0
 22 49  1  0  0  0  0
 23 50  1  0  0  0  0
 23 51  1  0  0  0  0
 24 52  1  0  0  0  0
 24 53  1  0  0  0  0
 25 54  1  0  0  0  0
 27 55  1  0  0  0  0
 29 56  1  0  0  0  0
M  END
> <clash_score>
0

> <docking_score>
-6.907932281494141

> <overlap_score>
0.951969563961029

$$$$
BENZO_247_1
  -OEChem-08222022453D

 59 63  0     1  0  0  0  0  0999 V2000
    4.2460    1.7520   20.8250 C   0  0  0  0  0  0  0  0  0  0  0  0
    3.8860    2.1050   19.5250 C   0  0  0  0  0  0  0  0  0  0  0  0
    5.3890    1.0010   21.0690 C   0  0  0  0  0  0  0  0  0  0  0  0
    9.5890   -2.4950   23.2210 C   0  0  0  0  0  0  0  0  0  0  0  0
    8.2550   -1.0010   24.5520 C   0  0  0  0  0  0  0  0  0  0  0  0
    4.6610    1.7170   18.4380 C   0  0  0  0  0  0  0  0  0  0  0  0
    9.1890   -3.5540   24.0140 C   0  0  0  0  0  0  0  0  0  0  0  0
    7.8700   -2.0610   25.3550 C   0  0  0  0  0  0  0  0  0  0  0  0
   13.3380    0.6111   23.0072 C   0  0  0  0  0  0  0  0  0  0  0  0
   12.2787   -0.9819   21.9231 C   0  0  0  0  0  0  0  0  0  0  0  0
    6.1460    0.6070   19.9750 C   0  0  0  0  0  0  0  0  0  0  0  0
    9.1280   -1.2090   23.4870 C   0  0  0  0  0  0  0  0  0  0  0  0
   12.0527    0.1137   22.7200 C   0  0  0  0  0  0  0  0  0  0  0  0
    5.7970    0.9500   18.6730 C   0  0  0  0  0  0  0  0  0  0  0  0
    8.3450   -3.3440   25.0980 C   0  0  0  0  0  0  0  0  0  0  0  0
    7.2710   -0.1460   19.8310 C   0  0  0  0  0  0  0  0  0  0  0  0
    8.2612   -4.4533   27.3232 C   0  0  0  0  0  0  0  0  0  0  0  0
    9.0430    0.2380   21.4940 C   0  0  0  0  0  0  0  0  0  0  0  0
    7.7639   -5.6979   28.0369 C   0  0  0  0  0  0  0  0  0  0  0  0
    6.3258   -5.9996   27.6538 C   0  0  0  0  0  0  0  0  0  0  0  0
    6.1385   -6.0983   26.1431 C   0  0  0  0  0  0  0  0  0  0  0  0
    7.3646   -5.6395   25.3553 C   0  0  0  0  0  0  0  0  0  0  0  0
   14.3540   -2.0687   21.0338 C   0  0  0  0  0  0  0  0  0  0  0  0
   10.7220    0.6590   23.1850 C   0  0  0  0  0  0  0  0  0  0  0  0
    9.5820   -0.1080   22.7000 C   0  0  1  0  0  0  0  0  0  0  0  0
   14.3086   -0.1095   22.4392 N   0  0  0  0  0  0  0  0  0  0  0  0
    7.5840   -0.2700   18.5160 N   0  0  0  0  0  0  0  0  0  0  0  0
    6.7100    0.3850   17.8100 N   0  0  0  0  0  0  0  0  0  0  0  0
   13.6329   -1.0709   21.7870 N   0  0  0  0  0  0  0  0  0  0  0  0
    7.9658   -4.4385   25.9450 N   0  0  0  0  0  0  0  0  0  0  0  0
    8.0950   -0.7700   20.8440 N   0  0  0  0  0  0  0  0  0  0  0  0
    8.9160   -3.6176   27.9452 O   0  0  0  0  0  0  0  0  0  0  0  0
    9.2950    1.3000   20.9480 O   0  0  0  0  0  0  0  0  0  0  0  0
    3.6223    2.0725   21.6574 H   0  0  0  0  0  0  0  0  0  0  0  0
    2.9864    2.6933   19.3609 H   0  0  0  0  0  0  0  0  0  0  0  0
    5.6689    0.7392   22.0836 H   0  0  0  0  0  0  0  0  0  0  0  0
   10.2695   -2.6718   22.3873 H   0  0  0  0  0  0  0  0  0  0  0  0
    7.8712   -0.0014   24.7587 H   0  0  0  0  0  0  0  0  0  0  0  0
    4.3807    2.0116   17.4186 H   0  0  0  0  0  0  0  0  0  0  0  0
    9.5431   -4.5618   23.7801 H   0  0  0  0  0  0  0  0  0  0  0  0
    7.1923   -1.8823   26.1912 H   0  0  0  0  0  0  0  0  0  0  0  0
   13.6104    1.4678   23.6073 H   0  0  0  0  0  0  0  0  0  0  0  0
   11.6080   -1.6889   21.4540 H   0  0  0  0  0  0  0  0  0  0  0  0
    8.3914   -6.5295   27.7556 H   0  0  0  0  0  0  0  0  0  0  0  0
    7.8414   -5.5198   29.0990 H   0  0  0  0  0  0  0  0  0  0  0  0
    5.9977   -6.9465   28.1311 H   0  0  0  0  0  0  0  0  0  0  0  0
    5.6587   -5.2139   28.0619 H   0  0  0  0  0  0  0  0  0  0  0  0
    5.8986   -7.1470   25.8680 H   0  0  0  0  0  0  0  0  0  0  0  0
    5.2500   -5.5067   25.8324 H   0  0  0  0  0  0  0  0  0  0  0  0
    8.1195   -6.4201   25.3688 H   0  0  0  0  0  0  0  0  0  0  0  0
    7.0780   -5.4282   24.3307 H   0  0  0  0  0  0  0  0  0  0  0  0
   14.4774   -1.6970   20.0132 H   0  0  0  0  0  0  0  0  0  0  0  0
   15.3288   -2.2415   21.4983 H   0  0  0  0  0  0  0  0  0  0  0  0
   13.7859   -3.0032   21.0354 H   0  0  0  0  0  0  0  0  0  0  0  0
   10.7177    0.7189   24.2812 H   0  0  0  0  0  0  0  0  0  0  0  0
   10.6426    1.6980   22.8361 H   0  0  0  0  0  0  0  0  0  0  0  0
    8.7036    0.8022   23.4008 H   0  0  0  0  0  0  0  0  0  0  0  0
    6.7486    0.4313   16.8331 H   0  0  0  0  0  0  0  0  0  0  0  0
    8.0917   -1.6083   21.0911 H   0  0  0  0  0  0  0  0  0  0  0  0
  1  2  1  0  0  0  0
  1  3  2  0  0  0  0
  2  6  2  0  0  0  0
  3 11  1  0  0  0  0
  4  7  2  0  0  0  0
  4 12  1  0  0  0  0
  5  8  1  0  0  0  0
  5 12  2  0  0  0  0
  6 14  1  0  0  0  0
  7 15  1  0  0  0  0
  8 15  2  0  0  0  0
  9 13  1  0  0  0  0
  9 26  2  0  0  0  0
 10 13  2  0  0  0  0
 10 29  1  0  0  0  0
 11 14  2  0  0  0  0
 11 16  1  0  0  0  0
 12 25  1  0  0  0  0
 13 24  1  0  0  0  0
 14 28  1  0  0  0  0
 15 30  1  0  0  0  0
 16 27  2  0  0  0  0
 16 31  1  0  0  0  0
 17 19  1  0  0  0  0
 17 30  1  0  0  0  0
 17 32  2  0  0  0  0
 18 25  1  0  0  0  0
 18 31  1  0  0  0  0
 18 33  2  0  0  0  0
 19 20  1  0  0  0  0
 20 21  1  0  0  0  0
 21 22  1  0  0  0  0
 22 30  1  0  0  0  0
 23 29  1  0  0  0  0
 24 25  1  1  0  0  0
 26 29  1  0  0  0  0
 27 28  1  0  0  0  0
  1 34  1  0  0  0  0
  2 35  1  0  0  0  0
  3 36  1  0  0  0  0
  4 37  1  0  0  0  0
  5 38  1  0  0  0  0
  6 39  1  0  0  0  0
  7 40  1  0  0  0  0
  8 41  1  0  0  0  0
  9 42  1  0  0  0  0
 10 43  1  0  0  0  0
 19 44  1  0  0  0  0
 19 45  1  0  0  0  0
 20 46  1  0  0  0  0
 20 47  1  0  0  0  0
 21 48  1  0  0  0  0
 21 49  1  0  0  0  0
 22 50  1  0  0  0  0
 22 51  1  0  0  0  0
 23 52  1  0  0  0  0
 23 53  1  0  0  0  0
 23 54  1  0  0  0  0
 24 55  1  0  0  0  0
 24 56  1  0  0  0  0
 25 57  1  0  0  0  0
 28 58  1  0  0  0  0
 31 59  1  0  0  0  0
M  END
> <clash_score>
0

> <docking_score>
-8.640987396240234

> <overlap_score>
0.9715062975883484

$$$$
BENZO_246_1
  -OEChem-08222022453D

 59 63  0     1  0  0  0  0  0999 V2000
    4.2460    1.7520   20.8250 C   0  0  0  0  0  0  0  0  0  0  0  0
    3.8860    2.1050   19.5250 C   0  0  0  0  0  0  0  0  0  0  0  0
   13.0606   -1.4512   25.3114 C   0  0  0  0  0  0  0  0  0  0  0  0
    5.3890    1.0010   21.0690 C   0  0  0  0  0  0  0  0  0  0  0  0
   11.9841   -0.6541   24.9226 C   0  0  0  0  0  0  0  0  0  0  0  0
    9.5890   -2.4950   23.2210 C   0  0  0  0  0  0  0  0  0  0  0  0
    8.2550   -1.0010   24.5520 C   0  0  0  0  0  0  0  0  0  0  0  0
    4.6610    1.7170   18.4380 C   0  0  0  0  0  0  0  0  0  0  0  0
    9.1890   -3.5540   24.0140 C   0  0  0  0  0  0  0  0  0  0  0  0
    7.8700   -2.0610   25.3550 C   0  0  0  0  0  0  0  0  0  0  0  0
   14.0427   -1.7980   24.3834 C   0  0  0  0  0  0  0  0  0  0  0  0
   12.8714   -0.5506   22.6778 C   0  0  0  0  0  0  0  0  0  0  0  0
    6.1460    0.6070   19.9750 C   0  0  0  0  0  0  0  0  0  0  0  0
    9.1280   -1.2090   23.4870 C   0  0  0  0  0  0  0  0  0  0  0  0
   11.8895   -0.2037   23.6058 C   0  0  0  0  0  0  0  0  0  0  0  0
    5.7970    0.9500   18.6730 C   0  0  0  0  0  0  0  0  0  0  0  0
    8.3450   -3.3440   25.0980 C   0  0  0  0  0  0  0  0  0  0  0  0
   13.9480   -1.3477   23.0666 C   0  0  0  0  0  0  0  0  0  0  0  0
    7.2710   -0.1460   19.8310 C   0  0  0  0  0  0  0  0  0  0  0  0
    6.6194   -4.8191   26.1158 C   0  0  0  0  0  0  0  0  0  0  0  0
    9.0430    0.2380   21.4940 C   0  0  0  0  0  0  0  0  0  0  0  0
    6.4366   -5.9938   27.0605 C   0  0  0  0  0  0  0  0  0  0  0  0
    7.2458   -5.7947   28.3299 C   0  0  0  0  0  0  0  0  0  0  0  0
    8.7184   -5.5215   28.0404 C   0  0  0  0  0  0  0  0  0  0  0  0
    9.0024   -5.2744   26.5596 C   0  0  0  0  0  0  0  0  0  0  0  0
   10.7220    0.6590   23.1850 C   0  0  0  0  0  0  0  0  0  0  0  0
    9.5820   -0.1080   22.7000 C   0  0  1  0  0  0  0  0  0  0  0  0
    7.5840   -0.2700   18.5160 N   0  0  0  0  0  0  0  0  0  0  0  0
    6.7100    0.3850   17.8100 N   0  0  0  0  0  0  0  0  0  0  0  0
    7.9658   -4.4384   25.9449 N   0  0  0  0  0  0  0  0  0  0  0  0
    8.0950   -0.7700   20.8440 N   0  0  0  0  0  0  0  0  0  0  0  0
    5.6415   -4.3469   25.5373 O   0  0  0  0  0  0  0  0  0  0  0  0
    9.2950    1.3000   20.9480 O   0  0  0  0  0  0  0  0  0  0  0  0
   15.1593   -1.7769   21.9219 Cl  0  0  0  0  0  0  0  0  0  0  0  0
    3.6223    2.0725   21.6574 H   0  0  0  0  0  0  0  0  0  0  0  0
    2.9864    2.6933   19.3609 H   0  0  0  0  0  0  0  0  0  0  0  0
   13.1339   -1.8018   26.3368 H   0  0  0  0  0  0  0  0  0  0  0  0
    5.6689    0.7392   22.0836 H   0  0  0  0  0  0  0  0  0  0  0  0
   11.2235   -0.3889   25.6523 H   0  0  0  0  0  0  0  0  0  0  0  0
   10.2695   -2.6718   22.3873 H   0  0  0  0  0  0  0  0  0  0  0  0
    7.8712   -0.0014   24.7587 H   0  0  0  0  0  0  0  0  0  0  0  0
    4.3807    2.0116   17.4186 H   0  0  0  0  0  0  0  0  0  0  0  0
    9.5431   -4.5618   23.7801 H   0  0  0  0  0  0  0  0  0  0  0  0
    7.1923   -1.8823   26.1912 H   0  0  0  0  0  0  0  0  0  0  0  0
   14.8760   -2.4202   24.7005 H   0  0  0  0  0  0  0  0  0  0  0  0
   12.7934   -0.1965   21.6525 H   0  0  0  0  0  0  0  0  0  0  0  0
    5.3901   -6.0734   27.3117 H   0  0  0  0  0  0  0  0  0  0  0  0
    6.7606   -6.8843   26.5429 H   0  0  0  0  0  0  0  0  0  0  0  0
    6.8221   -4.9563   28.9212 H   0  0  0  0  0  0  0  0  0  0  0  0
    7.1526   -6.6910   28.9757 H   0  0  0  0  0  0  0  0  0  0  0  0
    9.0539   -4.6418   28.6288 H   0  0  0  0  0  0  0  0  0  0  0  0
    9.3393   -6.3684   28.4053 H   0  0  0  0  0  0  0  0  0  0  0  0
    9.9475   -4.7506   26.4523 H   0  0  0  0  0  0  0  0  0  0  0  0
    9.0509   -6.2236   26.0372 H   0  0  0  0  0  0  0  0  0  0  0  0
   10.4316    1.3089   24.0208 H   0  0  0  0  0  0  0  0  0  0  0  0
   11.0719    1.3385   22.3955 H   0  0  0  0  0  0  0  0  0  0  0  0
   10.5438   -0.9939   22.0202 H   0  0  0  0  0  0  0  0  0  0  0  0
    6.7486    0.4313   16.8331 H   0  0  0  0  0  0  0  0  0  0  0  0
    8.0917   -1.6083   21.0911 H   0  0  0  0  0  0  0  0  0  0  0  0
  1  2  1  0  0  0  0
  1  4  2  0  0  0  0
  2  8  2  0  0  0  0
  3  5  2  0  0  0  0
  3 11  1  0  0  0  0
  4 13  1  0  0  0  0
  5 15  1  0  0  0  0
  6  9  2  0  0  0  0
  6 14  1  0  0  0  0
  7 10  1  0  0  0  0
  7 14  2  0  0  0  0
  8 16  1  0  0  0  0
  9 17  1  0  0  0  0
 10 17  2  0  0  0  0
 11 18  2  0  0  0  0
 12 15  2  0  0  0  0
 12 18  1  0  0  0  0
 13 16  2  0  0  0  0
 13 19  1  0  0  0  0
 14 27  1  0  0  0  0
 15 26  1  0  0  0  0
 16 29  1  0  0  0  0
 17 30  1  0  0  0  0
 18 34  1  0  0  0  0
 19 28  2  0  0  0  0
 19 31  1  0  0  0  0
 20 22  1  0  0  0  0
 20 30  1  0  0  0  0
 20 32  2  0  0  0  0
 21 27  1  1  0  0  0
 21 31  1  0  0  0  0
 21 33  2  0  0  0  0
 22 23  1  0  0  0  0
 23 24  1  0  0  0  0
 24 25  1  0  0  0  0
 25 30  1  0  0  0  0
 26 27  1  0  0  0  0
 28 29  1  0  0  0  0
  1 35  1  0  0  0  0
  2 36  1  0  0  0  0
  3 37  1  0  0  0  0
  4 38  1  0  0  0  0
  5 39  1  0  0  0  0
  6 40  1  0  0  0  0
  7 41  1  0  0  0  0
  8 42  1  0  0  0  0
  9 43  1  0  0  0  0
 10 44  1  0  0  0  0
 11 45  1  0  0  0  0
 12 46  1  0  0  0  0
 22 47  1  0  0  0  0
 22 48  1  0  0  0  0
 23 49  1  0  0  0  0
 23 50  1  0  0  0  0
 24 51  1  0  0  0  0
 24 52  1  0  0  0  0
 25 53  1  0  0  0  0
 25 54  1  0  0  0  0
 26 55  1  0  0  0  0
 26 56  1  0  0  0  0
 27 57  1  0  0  0  0
 29 58  1  0  0  0  0
 31 59  1  0  0  0  0
M  END
> <clash_score>
0

> <docking_score>
-6.879803657531738

> <overlap_score>
0.9826020002365112

$$$$
BENZO_246_2
  -OEChem-08222022453D

 59 63  0     1  0  0  0  0  0999 V2000
    4.2460    1.7520   20.8250 C   0  0  0  0  0  0  0  0  0  0  0  0
    3.8860    2.1050   19.5250 C   0  0  0  0  0  0  0  0  0  0  0  0
   13.8402    0.0638   21.0954 C   0  0  0  0  0  0  0  0  0  0  0  0
    5.3890    1.0010   21.0690 C   0  0  0  0  0  0  0  0  0  0  0  0
   12.6116    0.5657   21.5246 C   0  0  0  0  0  0  0  0  0  0  0  0
    9.5890   -2.4950   23.2210 C   0  0  0  0  0  0  0  0  0  0  0  0
    8.2550   -1.0010   24.5520 C   0  0  0  0  0  0  0  0  0  0  0  0
    4.6610    1.7170   18.4380 C   0  0  0  0  0  0  0  0  0  0  0  0
    9.1890   -3.5540   24.0140 C   0  0  0  0  0  0  0  0  0  0  0  0
    7.8700   -2.0610   25.3550 C   0  0  0  0  0  0  0  0  0  0  0  0
   14.5099   -0.8903   21.8616 C   0  0  0  0  0  0  0  0  0  0  0  0
   12.7224   -0.8403   23.4862 C   0  0  0  0  0  0  0  0  0  0  0  0
    6.1460    0.6070   19.9750 C   0  0  0  0  0  0  0  0  0  0  0  0
    9.1280   -1.2090   23.4870 C   0  0  0  0  0  0  0  0  0  0  0  0
   12.0527    0.1137   22.7200 C   0  0  0  0  0  0  0  0  0  0  0  0
    5.7970    0.9500   18.6730 C   0  0  0  0  0  0  0  0  0  0  0  0
    8.3450   -3.3440   25.0980 C   0  0  0  0  0  0  0  0  0  0  0  0
   13.9510   -1.3423   23.0570 C   0  0  0  0  0  0  0  0  0  0  0  0
    7.2710   -0.1460   19.8310 C   0  0  0  0  0  0  0  0  0  0  0  0
    6.6194   -4.8191   26.1158 C   0  0  0  0  0  0  0  0  0  0  0  0
    9.0430    0.2380   21.4940 C   0  0  0  0  0  0  0  0  0  0  0  0
    6.4366   -5.9938   27.0605 C   0  0  0  0  0  0  0  0  0  0  0  0
    7.2458   -5.7947   28.3299 C   0  0  0  0  0  0  0  0  0  0  0  0
    8.7184   -5.5215   28.0404 C   0  0  0  0  0  0  0  0  0  0  0  0
    9.0024   -5.2744   26.5596 C   0  0  0  0  0  0  0  0  0  0  0  0
   10.7220    0.6590   23.1850 C   0  0  0  0  0  0  0  0  0  0  0  0
    9.5820   -0.1080   22.7000 C   0  0  2  0  0  0  0  0  0  0  0  0
    7.5840   -0.2700   18.5160 N   0  0  0  0  0  0  0  0  0  0  0  0
    6.7100    0.3850   17.8100 N   0  0  0  0  0  0  0  0  0  0  0  0
    7.9658   -4.4384   25.9449 N   0  0  0  0  0  0  0  0  0  0  0  0
    8.0950   -0.7700   20.8440 N   0  0  0  0  0  0  0  0  0  0  0  0
    5.6415   -4.3469   25.5373 O   0  0  0  0  0  0  0  0  0  0  0  0
    9.2950    1.3000   20.9480 O   0  0  0  0  0  0  0  0  0  0  0  0
   14.7783   -2.5185   24.0025 Cl  0  0  0  0  0  0  0  0  0  0  0  0
    3.6223    2.0725   21.6574 H   0  0  0  0  0  0  0  0  0  0  0  0
    2.9864    2.6933   19.3609 H   0  0  0  0  0  0  0  0  0  0  0  0
   14.2752    0.4162   20.1646 H   0  0  0  0  0  0  0  0  0  0  0  0
    5.6689    0.7392   22.0836 H   0  0  0  0  0  0  0  0  0  0  0  0
   12.0969    1.3090   20.9213 H   0  0  0  0  0  0  0  0  0  0  0  0
   10.2695   -2.6718   22.3873 H   0  0  0  0  0  0  0  0  0  0  0  0
    7.8712   -0.0014   24.7587 H   0  0  0  0  0  0  0  0  0  0  0  0
    4.3807    2.0116   17.4186 H   0  0  0  0  0  0  0  0  0  0  0  0
    9.5431   -4.5618   23.7801 H   0  0  0  0  0  0  0  0  0  0  0  0
    7.1923   -1.8823   26.1912 H   0  0  0  0  0  0  0  0  0  0  0  0
   15.4669   -1.2724   21.5149 H   0  0  0  0  0  0  0  0  0  0  0  0
   12.2822   -1.1899   24.4172 H   0  0  0  0  0  0  0  0  0  0  0  0
    5.3901   -6.0734   27.3117 H   0  0  0  0  0  0  0  0  0  0  0  0
    6.7606   -6.8843   26.5429 H   0  0  0  0  0  0  0  0  0  0  0  0
    6.8221   -4.9563   28.9212 H   0  0  0  0  0  0  0  0  0  0  0  0
    7.1526   -6.6910   28.9757 H   0  0  0  0  0  0  0  0  0  0  0  0
    9.0539   -4.6418   28.6288 H   0  0  0  0  0  0  0  0  0  0  0  0
    9.3393   -6.3684   28.4053 H   0  0  0  0  0  0  0  0  0  0  0  0
    9.9475   -4.7506   26.4523 H   0  0  0  0  0  0  0  0  0  0  0  0
    9.0509   -6.2236   26.0372 H   0  0  0  0  0  0  0  0  0  0  0  0
   10.7177    0.7189   24.2812 H   0  0  0  0  0  0  0  0  0  0  0  0
   10.6426    1.6980   22.8361 H   0  0  0  0  0  0  0  0  0  0  0  0
    8.7036    0.8022   23.4008 H   0  0  0  0  0  0  0  0  0  0  0  0
    6.7486    0.4313   16.8331 H   0  0  0  0  0  0  0  0  0  0  0  0
    8.0917   -1.6083   21.0911 H   0  0  0  0  0  0  0  0  0  0  0  0
  1  2  1  0  0  0  0
  1  4  2  0  0  0  0
  2  8  2  0  0  0  0
  3  5  2  0  0  0  0
  3 11  1  0  0  0  0
  4 13  1  0  0  0  0
  5 15  1  0  0  0  0
  6  9  2  0  0  0  0
  6 14  1  0  0  0  0
  7 10  1  0  0  0  0
  7 14  2  0  0  0  0
  8 16  1  0  0  0  0
  9 17  1  0  0  0  0
 10 17  2  0  0  0  0
 11 18  2  0  0  0  0
 12 15  2  0  0  0  0
 12 18  1  0  0  0  0
 13 16  2  0  0  0  0
 13 19  1  0  0  0  0
 14 27  1  0  0  0  0
 15 26  1  0  0  0  0
 16 29  1  0  0  0  0
 17 30  1  0  0  0  0
 18 34  1  0  0  0  0
 19 28  2  0  0  0  0
 19 31  1  0  0  0  0
 20 22  1  0  0  0  0
 20 30  1  0  0  0  0
 20 32  2  0  0  0  0
 21 27  1  6  0  0  0
 21 31  1  0  0  0  0
 21 33  2  0  0  0  0
 22 23  1  0  0  0  0
 23 24  1  0  0  0  0
 24 25  1  0  0  0  0
 25 30  1  0  0  0  0
 26 27  1  0  0  0  0
 28 29  1  0  0  0  0
  1 35  1  0  0  0  0
  2 36  1  0  0  0  0
  3 37  1  0  0  0  0
  4 38  1  0  0  0  0
  5 39  1  0  0  0  0
  6 40  1  0  0  0  0
  7 41  1  0  0  0  0
  8 42  1  0  0  0  0
  9 43  1  0  0  0  0
 10 44  1  0  0  0  0
 11 45  1  0  0  0  0
 12 46  1  0  0  0  0
 22 47  1  0  0  0  0
 22 48  1  0  0  0  0
 23 49  1  0  0  0  0
 23 50  1  0  0  0  0
 24 51  1  0  0  0  0
 24 52  1  0  0  0  0
 25 53  1  0  0  0  0
 25 54  1  0  0  0  0
 26 55  1  0  0  0  0
 26 56  1  0  0  0  0
 27 57  1  0  0  0  0
 29 58  1  0  0  0  0
 31 59  1  0  0  0  0
M  END
> <clash_score>
0

> <docking_score>
-6.238894462585449

> <overlap_score>
0.9699636697769165

$$$$
BENZO_247_2
  -OEChem-08222022453D

 59 63  0     1  0  0  0  0  0999 V2000
    4.2460    1.7520   20.8250 C   0  0  0  0  0  0  0  0  0  0  0  0
    3.8860    2.1050   19.5250 C   0  0  0  0  0  0  0  0  0  0  0  0
    5.3890    1.0010   21.0690 C   0  0  0  0  0  0  0  0  0  0  0  0
    9.5890   -2.4950   23.2210 C   0  0  0  0  0  0  0  0  0  0  0  0
    8.2550   -1.0010   24.5520 C   0  0  0  0  0  0  0  0  0  0  0  0
    4.6610    1.7170   18.4380 C   0  0  0  0  0  0  0  0  0  0  0  0
    9.1890   -3.5540   24.0140 C   0  0  0  0  0  0  0  0  0  0  0  0
    7.8700   -2.0610   25.3550 C   0  0  0  0  0  0  0  0  0  0  0  0
   12.1477   -0.7466   24.8788 C   0  0  0  0  0  0  0  0  0  0  0  0
   12.9364   -0.6364   22.8292 C   0  0  0  0  0  0  0  0  0  0  0  0
    6.1460    0.6070   19.9750 C   0  0  0  0  0  0  0  0  0  0  0  0
    9.1280   -1.2090   23.4870 C   0  0  0  0  0  0  0  0  0  0  0  0
   11.8895   -0.2037   23.6058 C   0  0  0  0  0  0  0  0  0  0  0  0
    5.7970    0.9500   18.6730 C   0  0  0  0  0  0  0  0  0  0  0  0
    8.3450   -3.3440   25.0980 C   0  0  0  0  0  0  0  0  0  0  0  0
    7.2710   -0.1460   19.8310 C   0  0  0  0  0  0  0  0  0  0  0  0
    6.6194   -4.8191   26.1158 C   0  0  0  0  0  0  0  0  0  0  0  0
    9.0430    0.2380   21.4940 C   0  0  0  0  0  0  0  0  0  0  0  0
    6.4366   -5.9938   27.0605 C   0  0  0  0  0  0  0  0  0  0  0  0
    7.2458   -5.7947   28.3299 C   0  0  0  0  0  0  0  0  0  0  0  0
    8.7184   -5.5215   28.0404 C   0  0  0  0  0  0  0  0  0  0  0  0
    9.0024   -5.2744   26.5596 C   0  0  0  0  0  0  0  0  0  0  0  0
   14.9528   -2.0520   23.2864 C   0  0  0  0  0  0  0  0  0  0  0  0
   10.7220    0.6590   23.1850 C   0  0  0  0  0  0  0  0  0  0  0  0
    9.5820   -0.1080   22.7000 C   0  0  2  0  0  0  0  0  0  0  0  0
   13.2706   -1.4691   24.9131 N   0  0  0  0  0  0  0  0  0  0  0  0
    7.5840   -0.2700   18.5160 N   0  0  0  0  0  0  0  0  0  0  0  0
    6.7100    0.3850   17.8100 N   0  0  0  0  0  0  0  0  0  0  0  0
   13.7271   -1.3833   23.6520 N   0  0  0  0  0  0  0  0  0  0  0  0
    7.9658   -4.4384   25.9449 N   0  0  0  0  0  0  0  0  0  0  0  0
    8.0950   -0.7700   20.8440 N   0  0  0  0  0  0  0  0  0  0  0  0
    5.6415   -4.3469   25.5373 O   0  0  0  0  0  0  0  0  0  0  0  0
    9.2950    1.3000   20.9480 O   0  0  0  0  0  0  0  0  0  0  0  0
    3.6223    2.0725   21.6574 H   0  0  0  0  0  0  0  0  0  0  0  0
    2.9864    2.6933   19.3609 H   0  0  0  0  0  0  0  0  0  0  0  0
    5.6689    0.7392   22.0836 H   0  0  0  0  0  0  0  0  0  0  0  0
   10.2695   -2.6718   22.3873 H   0  0  0  0  0  0  0  0  0  0  0  0
    7.8712   -0.0014   24.7587 H   0  0  0  0  0  0  0  0  0  0  0  0
    4.3807    2.0116   17.4186 H   0  0  0  0  0  0  0  0  0  0  0  0
    9.5431   -4.5618   23.7801 H   0  0  0  0  0  0  0  0  0  0  0  0
    7.1923   -1.8823   26.1912 H   0  0  0  0  0  0  0  0  0  0  0  0
   11.5656   -0.6480   25.7841 H   0  0  0  0  0  0  0  0  0  0  0  0
   13.1794   -0.4813   21.7867 H   0  0  0  0  0  0  0  0  0  0  0  0
    5.3901   -6.0734   27.3117 H   0  0  0  0  0  0  0  0  0  0  0  0
    6.7606   -6.8843   26.5429 H   0  0  0  0  0  0  0  0  0  0  0  0
    6.8221   -4.9563   28.9212 H   0  0  0  0  0  0  0  0  0  0  0  0
    7.1526   -6.6910   28.9757 H   0  0  0  0  0  0  0  0  0  0  0  0
    9.0539   -4.6418   28.6288 H   0  0  0  0  0  0  0  0  0  0  0  0
    9.3393   -6.3684   28.4053 H   0  0  0  0  0  0  0  0  0  0  0  0
    9.9475   -4.7506   26.4523 H   0  0  0  0  0  0  0  0  0  0  0  0
    9.0509   -6.2236   26.0372 H   0  0  0  0  0  0  0  0  0  0  0  0
   15.7795   -1.3568   23.4547 H   0  0  0  0  0  0  0  0  0  0  0  0
   15.0759   -2.9483   23.9007 H   0  0  0  0  0  0  0  0  0  0  0  0
   14.9053   -2.3434   22.2334 H   0  0  0  0  0  0  0  0  0  0  0  0
   10.4316    1.3089   24.0208 H   0  0  0  0  0  0  0  0  0  0  0  0
   11.0719    1.3385   22.3955 H   0  0  0  0  0  0  0  0  0  0  0  0
   10.5438   -0.9939   22.0202 H   0  0  0  0  0  0  0  0  0  0  0  0
    6.7486    0.4313   16.8331 H   0  0  0  0  0  0  0  0  0  0  0  0
    8.0917   -1.6083   21.0911 H   0  0  0  0  0  0  0  0  0  0  0  0
  1  2  1  0  0  0  0
  1  3  2  0  0  0  0
  2  6  2  0  0  0  0
  3 11  1  0  0  0  0
  4  7  2  0  0  0  0
  4 12  1  0  0  0  0
  5  8  1  0  0  0  0
  5 12  2  0  0  0  0
  6 14  1  0  0  0  0
  7 15  1  0  0  0  0
  8 15  2  0  0  0  0
  9 13  1  0  0  0  0
  9 26  2  0  0  0  0
 10 13  2  0  0  0  0
 10 29  1  0  0  0  0
 11 14  2  0  0  0  0
 11 16  1  0  0  0  0
 12 25  1  0  0  0  0
 13 24  1  0  0  0  0
 14 28  1  0  0  0  0
 15 30  1  0  0  0  0
 16 27  2  0  0  0  0
 16 31  1  0  0  0  0
 17 19  1  0  0  0  0
 17 30  1  0  0  0  0
 17 32  2  0  0  0  0
 18 25  1  0  0  0  0
 18 31  1  0  0  0  0
 18 33  2  0  0  0  0
 19 20  1  0  0  0  0
 20 21  1  0  0  0  0
 21 22  1  0  0  0  0
 22 30  1  0  0  0  0
 23 29  1  0  0  0  0
 24 25  1  6  0  0  0
 26 29  1  0  0  0  0
 27 28  1  0  0  0  0
  1 34  1  0  0  0  0
  2 35  1  0  0  0  0
  3 36  1  0  0  0  0
  4 37  1  0  0  0  0
  5 38  1  0  0  0  0
  6 39  1  0  0  0  0
  7 40  1  0  0  0  0
  8 41  1  0  0  0  0
  9 42  1  0  0  0  0
 10 43  1  0  0  0  0
 19 44  1  0  0  0  0
 19 45  1  0  0  0  0
 20 46  1  0  0  0  0
 20 47  1  0  0  0  0
 21 48  1  0  0  0  0
 21 49  1  0  0  0  0
 22 50  1  0  0  0  0
 22 51  1  0  0  0  0
 23 52  1  0  0  0  0
 23 53  1  0  0  0  0
 23 54  1  0  0  0  0
 24 55  1  0  0  0  0
 24 56  1  0  0  0  0
 25 57  1  0  0  0  0
 28 58  1  0  0  0  0
 31 59  1  0  0  0  0
M  END
> <clash_score>
0

> <docking_score>
-6.809804916381836

> <overlap_score>
0.9785135388374329

$$$$
BENZO_249_1
  -OEChem-08222022453D

 58 62  0     1  0  0  0  0  0999 V2000
   14.0446   -1.7964   24.3813 C   0  0  0  0  0  0  0  0  0  0  0  0
    4.2460    1.7520   20.8250 C   0  0  0  0  0  0  0  0  0  0  0  0
   13.0634   -1.4503   25.3102 C   0  0  0  0  0  0  0  0  0  0  0  0
   13.9483   -1.3461   23.0646 C   0  0  0  0  0  0  0  0  0  0  0  0
    3.8860    2.1050   19.5250 C   0  0  0  0  0  0  0  0  0  0  0  0
    5.3890    1.0010   21.0690 C   0  0  0  0  0  0  0  0  0  0  0  0
   11.9858   -0.6540   24.9225 C   0  0  0  0  0  0  0  0  0  0  0  0
   12.8708   -0.5498   22.6769 C   0  0  0  0  0  0  0  0  0  0  0  0
    9.5890   -2.4950   23.2210 C   0  0  0  0  0  0  0  0  0  0  0  0
    8.2550   -1.0010   24.5520 C   0  0  0  0  0  0  0  0  0  0  0  0
    4.6610    1.7170   18.4380 C   0  0  0  0  0  0  0  0  0  0  0  0
    9.1890   -3.5540   24.0140 C   0  0  0  0  0  0  0  0  0  0  0  0
    7.8700   -2.0610   25.3550 C   0  0  0  0  0  0  0  0  0  0  0  0
    6.1460    0.6070   19.9750 C   0  0  0  0  0  0  0  0  0  0  0  0
   11.8895   -0.2037   23.6058 C   0  0  0  0  0  0  0  0  0  0  0  0
    9.1280   -1.2090   23.4870 C   0  0  0  0  0  0  0  0  0  0  0  0
    5.7970    0.9500   18.6730 C   0  0  0  0  0  0  0  0  0  0  0  0
    8.3450   -3.3440   25.0980 C   0  0  0  0  0  0  0  0  0  0  0  0
    7.2710   -0.1460   19.8310 C   0  0  0  0  0  0  0  0  0  0  0  0
    9.0430    0.2380   21.4940 C   0  0  0  0  0  0  0  0  0  0  0  0
    8.9526   -5.2008   26.6600 C   0  0  0  0  0  0  0  0  0  0  0  0
    6.6115   -4.5057   26.4392 C   0  0  0  0  0  0  0  0  0  0  0  0
    8.9053   -4.7827   28.1257 C   0  0  0  0  0  0  0  0  0  0  0  0
    6.6391   -4.1219   27.9194 C   0  0  0  0  0  0  0  0  0  0  0  0
   10.7220    0.6590   23.1850 C   0  0  0  0  0  0  0  0  0  0  0  0
    9.5820   -0.1080   22.7000 C   0  0  1  0  0  0  0  0  0  0  0  0
    7.5840   -0.2700   18.5160 N   0  0  0  0  0  0  0  0  0  0  0  0
    6.7100    0.3850   17.8100 N   0  0  0  0  0  0  0  0  0  0  0  0
    7.9774   -4.4013   25.9152 N   0  0  0  0  0  0  0  0  0  0  0  0
    8.0950   -0.7700   20.8440 N   0  0  0  0  0  0  0  0  0  0  0  0
    9.2950    1.3000   20.9480 O   0  0  0  0  0  0  0  0  0  0  0  0
    7.5748   -4.9364   28.6347 O   0  0  0  0  0  0  0  0  0  0  0  0
   14.8843   -2.4154   24.6836 H   0  0  0  0  0  0  0  0  0  0  0  0
    3.6223    2.0725   21.6574 H   0  0  0  0  0  0  0  0  0  0  0  0
   13.1388   -1.8000   26.3358 H   0  0  0  0  0  0  0  0  0  0  0  0
   14.7127   -1.6145   22.3413 H   0  0  0  0  0  0  0  0  0  0  0  0
    2.9864    2.6933   19.3609 H   0  0  0  0  0  0  0  0  0  0  0  0
    5.6689    0.7392   22.0836 H   0  0  0  0  0  0  0  0  0  0  0  0
   11.2259   -0.3895   25.6531 H   0  0  0  0  0  0  0  0  0  0  0  0
   12.8039   -0.2037   21.6488 H   0  0  0  0  0  0  0  0  0  0  0  0
   10.2684   -2.6719   22.3867 H   0  0  0  0  0  0  0  0  0  0  0  0
    7.8717   -0.0016   24.7596 H   0  0  0  0  0  0  0  0  0  0  0  0
    4.3807    2.0116   17.4186 H   0  0  0  0  0  0  0  0  0  0  0  0
    9.5443   -4.5616   23.7817 H   0  0  0  0  0  0  0  0  0  0  0  0
    7.1921   -1.8821   26.1908 H   0  0  0  0  0  0  0  0  0  0  0  0
    9.9614   -5.0503   26.2701 H   0  0  0  0  0  0  0  0  0  0  0  0
    8.6932   -6.2593   26.5731 H   0  0  0  0  0  0  0  0  0  0  0  0
    6.2625   -5.5339   26.3355 H   0  0  0  0  0  0  0  0  0  0  0  0
    5.9348   -3.8414   25.9036 H   0  0  0  0  0  0  0  0  0  0  0  0
    9.5615   -5.4255   28.7162 H   0  0  0  0  0  0  0  0  0  0  0  0
    9.2365   -3.7494   28.2620 H   0  0  0  0  0  0  0  0  0  0  0  0
    6.8895   -3.0633   28.0551 H   0  0  0  0  0  0  0  0  0  0  0  0
    5.6514   -4.2861   28.3610 H   0  0  0  0  0  0  0  0  0  0  0  0
   10.4315    1.3089   24.0208 H   0  0  0  0  0  0  0  0  0  0  0  0
   11.0719    1.3385   22.3955 H   0  0  0  0  0  0  0  0  0  0  0  0
   10.5438   -0.9939   22.0202 H   0  0  0  0  0  0  0  0  0  0  0  0
    6.7486    0.4313   16.8331 H   0  0  0  0  0  0  0  0  0  0  0  0
    8.0917   -1.6083   21.0911 H   0  0  0  0  0  0  0  0  0  0  0  0
  1  3  1  0  0  0  0
  1  4  2  0  0  0  0
  2  5  1  0  0  0  0
  2  6  2  0  0  0  0
  3  7  2  0  0  0  0
  4  8  1  0  0  0  0
  5 11  2  0  0  0  0
  6 14  1  0  0  0  0
  7 15  1  0  0  0  0
  8 15  2  0  0  0  0
  9 12  2  0  0  0  0
  9 16  1  0  0  0  0
 10 13  1  0  0  0  0
 10 16  2  0  0  0  0
 11 17  1  0  0  0  0
 12 18  1  0  0  0  0
 13 18  2  0  0  0  0
 14 17  2  0  0  0  0
 14 19  1  0  0  0  0
 15 25  1  0  0  0  0
 16 26  1  0  0  0  0
 17 28  1  0  0  0  0
 18 29  1  0  0  0  0
 19 27  2  0  0  0  0
 19 30  1  0  0  0  0
 20 26  1  1  0  0  0
 20 30  1  0  0  0  0
 20 31  2  0  0  0  0
 21 23  1  0  0  0  0
 21 29  1  0  0  0  0
 22 24  1  0  0  0  0
 22 29  1  0  0  0  0
 23 32  1  0  0  0  0
 24 32  1  0  0  0  0
 25 26  1  0  0  0  0
 27 28  1  0  0  0  0
  1 33  1  0  0  0  0
  2 34  1  0  0  0  0
  3 35  1  0  0  0  0
  4 36  1  0  0  0  0
  5 37  1  0  0  0  0
  6 38  1  0  0  0  0
  7 39  1  0  0  0  0
  8 40  1  0  0  0  0
  9 41  1  0  0  0  0
 10 42  1  0  0  0  0
 11 43  1  0  0  0  0
 12 44  1  0  0  0  0
 13 45  1  0  0  0  0
 21 46  1  0  0  0  0
 21 47  1  0  0  0  0
 22 48  1  0  0  0  0
 22 49  1  0  0  0  0
 23 50  1  0  0  0  0
 23 51  1  0  0  0  0
 24 52  1  0  0  0  0
 24 53  1  0  0  0  0
 25 54  1  0  0  0  0
 25 55  1  0  0  0  0
 26 56  1  0  0  0  0
 28 57  1  0  0  0  0
 30 58  1  0  0  0  0
M  END
> <clash_score>
0

> <docking_score>
-7.894773483276367

> <overlap_score>
0.9756206274032593

$$$$
BENZO_249_2
  -OEChem-08222022453D

 58 62  0     1  0  0  0  0  0999 V2000
   14.5084   -0.8935   21.8609 C   0  0  0  0  0  0  0  0  0  0  0  0
    4.2460    1.7520   20.8250 C   0  0  0  0  0  0  0  0  0  0  0  0
   14.4162   -0.2303   23.0845 C   0  0  0  0  0  0  0  0  0  0  0  0
   13.3727   -1.0531   21.0668 C   0  0  0  0  0  0  0  0  0  0  0  0
    3.8860    2.1050   19.5250 C   0  0  0  0  0  0  0  0  0  0  0  0
    5.3890    1.0010   21.0690 C   0  0  0  0  0  0  0  0  0  0  0  0
   13.1884    0.2733   23.5141 C   0  0  0  0  0  0  0  0  0  0  0  0
   12.1449   -0.5495   21.4964 C   0  0  0  0  0  0  0  0  0  0  0  0
    9.5890   -2.4950   23.2210 C   0  0  0  0  0  0  0  0  0  0  0  0
    8.2550   -1.0010   24.5520 C   0  0  0  0  0  0  0  0  0  0  0  0
    4.6610    1.7170   18.4380 C   0  0  0  0  0  0  0  0  0  0  0  0
    9.1890   -3.5540   24.0140 C   0  0  0  0  0  0  0  0  0  0  0  0
    7.8700   -2.0610   25.3550 C   0  0  0  0  0  0  0  0  0  0  0  0
    6.1460    0.6070   19.9750 C   0  0  0  0  0  0  0  0  0  0  0  0
   12.0528    0.1138   22.7200 C   0  0  0  0  0  0  0  0  0  0  0  0
    9.1280   -1.2090   23.4870 C   0  0  0  0  0  0  0  0  0  0  0  0
    5.7970    0.9500   18.6730 C   0  0  0  0  0  0  0  0  0  0  0  0
    8.3450   -3.3440   25.0980 C   0  0  0  0  0  0  0  0  0  0  0  0
    7.2710   -0.1460   19.8310 C   0  0  0  0  0  0  0  0  0  0  0  0
    9.0430    0.2380   21.4940 C   0  0  0  0  0  0  0  0  0  0  0  0
    6.7636   -5.1648   25.5740 C   0  0  0  0  0  0  0  0  0  0  0  0
    8.3038   -4.3778   27.3502 C   0  0  0  0  0  0  0  0  0  0  0  0
    6.8057   -6.5368   26.2370 C   0  0  0  0  0  0  0  0  0  0  0  0
    8.2632   -5.7919   27.9188 C   0  0  0  0  0  0  0  0  0  0  0  0
   10.7220    0.6590   23.1850 C   0  0  0  0  0  0  0  0  0  0  0  0
    9.5820   -0.1080   22.7000 C   0  0  2  0  0  0  0  0  0  0  0  0
    7.5840   -0.2700   18.5160 N   0  0  0  0  0  0  0  0  0  0  0  0
    6.7100    0.3850   17.8100 N   0  0  0  0  0  0  0  0  0  0  0  0
    7.9748   -4.4087   25.9209 N   0  0  0  0  0  0  0  0  0  0  0  0
    8.0950   -0.7700   20.8440 N   0  0  0  0  0  0  0  0  0  0  0  0
    9.2950    1.3000   20.9480 O   0  0  0  0  0  0  0  0  0  0  0  0
    7.0041   -6.4052   27.6445 O   0  0  0  0  0  0  0  0  0  0  0  0
   15.4647   -1.2844   21.5259 H   0  0  0  0  0  0  0  0  0  0  0  0
    3.6223    2.0725   21.6574 H   0  0  0  0  0  0  0  0  0  0  0  0
   15.3006   -0.1050   23.7024 H   0  0  0  0  0  0  0  0  0  0  0  0
   13.4443   -1.5684   20.1136 H   0  0  0  0  0  0  0  0  0  0  0  0
    2.9864    2.6933   19.3609 H   0  0  0  0  0  0  0  0  0  0  0  0
    5.6689    0.7392   22.0836 H   0  0  0  0  0  0  0  0  0  0  0  0
   13.1260    0.7885   24.4690 H   0  0  0  0  0  0  0  0  0  0  0  0
   11.2654   -0.6786   20.8711 H   0  0  0  0  0  0  0  0  0  0  0  0
   10.2684   -2.6719   22.3867 H   0  0  0  0  0  0  0  0  0  0  0  0
    7.8717   -0.0016   24.7596 H   0  0  0  0  0  0  0  0  0  0  0  0
    4.3807    2.0116   17.4186 H   0  0  0  0  0  0  0  0  0  0  0  0
    9.5443   -4.5616   23.7817 H   0  0  0  0  0  0  0  0  0  0  0  0
    7.1922   -1.8821   26.1908 H   0  0  0  0  0  0  0  0  0  0  0  0
    6.6795   -5.2859   24.4876 H   0  0  0  0  0  0  0  0  0  0  0  0
    5.8835   -4.6130   25.9282 H   0  0  0  0  0  0  0  0  0  0  0  0
    7.5706   -3.7507   27.8738 H   0  0  0  0  0  0  0  0  0  0  0  0
    9.2992   -3.9474   27.5112 H   0  0  0  0  0  0  0  0  0  0  0  0
    5.8522   -7.0520   26.0823 H   0  0  0  0  0  0  0  0  0  0  0  0
    7.5937   -7.1675   25.8080 H   0  0  0  0  0  0  0  0  0  0  0  0
    9.0741   -6.4110   27.5161 H   0  0  0  0  0  0  0  0  0  0  0  0
    8.3861   -5.7563   29.0060 H   0  0  0  0  0  0  0  0  0  0  0  0
   10.7177    0.7189   24.2812 H   0  0  0  0  0  0  0  0  0  0  0  0
   10.6426    1.6980   22.8361 H   0  0  0  0  0  0  0  0  0  0  0  0
    8.7036    0.8022   23.4008 H   0  0  0  0  0  0  0  0  0  0  0  0
    6.7486    0.4313   16.8331 H   0  0  0  0  0  0  0  0  0  0  0  0
    8.0917   -1.6083   21.0911 H   0  0  0  0  0  0  0  0  0  0  0  0
  1  3  1  0  0  0  0
  1  4  2  0  0  0  0
  2  5  1  0  0  0  0
  2  6  2  0  0  0  0
  3  7  2  0  0  0  0
  4  8  1  0  0  0  0
  5 11  2  0  0  0  0
  6 14  1  0  0  0  0
  7 15  1  0  0  0  0
  8 15  2  0  0  0  0
  9 12  2  0  0  0  0
  9 16  1  0  0  0  0
 10 13  1  0  0  0  0
 10 16  2  0  0  0  0
 11 17  1  0  0  0  0
 12 18  1  0  0  0  0
 13 18  2  0  0  0  0
 14 17  2  0  0  0  0
 14 19  1  0  0  0  0
 15 25  1  0  0  0  0
 16 26  1  0  0  0  0
 17 28  1  0  0  0  0
 18 29  1  0  0  0  0
 19 27  2  0  0  0  0
 19 30  1  0  0  0  0
 20 26  1  6  0  0  0
 20 30  1  0  0  0  0
 20 31  2  0  0  0  0
 21 23  1  0  0  0  0
 21 29  1  0  0  0  0
 22 24  1  0  0  0  0
 22 29  1  0  0  0  0
 23 32  1  0  0  0  0
 24 32  1  0  0  0  0
 25 26  1  0  0  0  0
 27 28  1  0  0  0  0
  1 33  1  0  0  0  0
  2 34  1  0  0  0  0
  3 35  1  0  0  0  0
  4 36  1  0  0  0  0
  5 37  1  0  0  0  0
  6 38  1  0  0  0  0
  7 39  1  0  0  0  0
  8 40  1  0  0  0  0
  9 41  1  0  0  0  0
 10 42  1  0  0  0  0
 11 43  1  0  0  0  0
 12 44  1  0  0  0  0
 13 45  1  0  0  0  0
 21 46  1  0  0  0  0
 21 47  1  0  0  0  0
 22 48  1  0  0  0  0
 22 49  1  0  0  0  0
 23 50  1  0  0  0  0
 23 51  1  0  0  0  0
 24 52  1  0  0  0  0
 24 53  1  0  0  0  0
 25 54  1  0  0  0  0
 25 55  1  0  0  0  0
 26 56  1  0  0  0  0
 28 57  1  0  0  0  0
 30 58  1  0  0  0  0
M  END
> <clash_score>
0

> <docking_score>
-7.009086608886719

> <overlap_score>
0.9552539587020874

$$$$
BENZO_248_1
  -OEChem-08222022453D

 55 59  0     1  0  0  0  0  0999 V2000
    4.2460    1.7520   20.8250 C   0  0  0  0  0  0  0  0  0  0  0  0
    3.8860    2.1050   19.5250 C   0  0  0  0  0  0  0  0  0  0  0  0
    5.3890    1.0010   21.0690 C   0  0  0  0  0  0  0  0  0  0  0  0
    9.5890   -2.4950   23.2210 C   0  0  0  0  0  0  0  0  0  0  0  0
    8.2550   -1.0010   24.5520 C   0  0  0  0  0  0  0  0  0  0  0  0
    4.6610    1.7170   18.4380 C   0  0  0  0  0  0  0  0  0  0  0  0
    9.1890   -3.5540   24.0140 C   0  0  0  0  0  0  0  0  0  0  0  0
    7.8700   -2.0610   25.3550 C   0  0  0  0  0  0  0  0  0  0  0  0
   12.0564    0.2022   25.3592 C   0  0  0  0  0  0  0  0  0  0  0  0
   12.9336   -0.7085   25.9059 C   0  0  0  0  0  0  0  0  0  0  0  0
   12.2727   -1.3216   23.6174 C   0  0  0  0  0  0  0  0  0  0  0  0
    6.1460    0.6070   19.9750 C   0  0  0  0  0  0  0  0  0  0  0  0
    9.1280   -1.2090   23.4870 C   0  0  0  0  0  0  0  0  0  0  0  0
   11.6734   -0.1530   24.0335 C   0  0  0  0  0  0  0  0  0  0  0  0
    5.7970    0.9500   18.6730 C   0  0  0  0  0  0  0  0  0  0  0  0
    8.3450   -3.3440   25.0980 C   0  0  0  0  0  0  0  0  0  0  0  0
    7.2710   -0.1460   19.8310 C   0  0  0  0  0  0  0  0  0  0  0  0
    9.0430    0.2380   21.4940 C   0  0  0  0  0  0  0  0  0  0  0  0
    6.7636   -5.1648   25.5740 C   0  0  0  0  0  0  0  0  0  0  0  0
    8.3038   -4.3778   27.3502 C   0  0  0  0  0  0  0  0  0  0  0  0
    6.8057   -6.5368   26.2370 C   0  0  0  0  0  0  0  0  0  0  0  0
    8.2632   -5.7919   27.9188 C   0  0  0  0  0  0  0  0  0  0  0  0
   10.7220    0.6590   23.1850 C   0  0  0  0  0  0  0  0  0  0  0  0
    9.5820   -0.1080   22.7000 C   0  0  1  0  0  0  0  0  0  0  0  0
    7.5840   -0.2700   18.5160 N   0  0  0  0  0  0  0  0  0  0  0  0
    6.7100    0.3850   17.8100 N   0  0  0  0  0  0  0  0  0  0  0  0
    7.9748   -4.4087   25.9209 N   0  0  0  0  0  0  0  0  0  0  0  0
    8.0950   -0.7700   20.8440 N   0  0  0  0  0  0  0  0  0  0  0  0
    9.2950    1.3000   20.9480 O   0  0  0  0  0  0  0  0  0  0  0  0
    7.0041   -6.4052   27.6445 O   0  0  0  0  0  0  0  0  0  0  0  0
   13.2921   -1.9853   24.8226 S   0  0  0  0  0  0  0  0  0  0  0  0
    3.6223    2.0725   21.6574 H   0  0  0  0  0  0  0  0  0  0  0  0
    2.9864    2.6933   19.3609 H   0  0  0  0  0  0  0  0  0  0  0  0
    5.6689    0.7392   22.0836 H   0  0  0  0  0  0  0  0  0  0  0  0
   10.2684   -2.6719   22.3867 H   0  0  0  0  0  0  0  0  0  0  0  0
    7.8717   -0.0016   24.7596 H   0  0  0  0  0  0  0  0  0  0  0  0
    4.3807    2.0116   17.4186 H   0  0  0  0  0  0  0  0  0  0  0  0
    9.5443   -4.5616   23.7817 H   0  0  0  0  0  0  0  0  0  0  0  0
    7.1922   -1.8821   26.1908 H   0  0  0  0  0  0  0  0  0  0  0  0
   11.7089    1.0804   25.8886 H   0  0  0  0  0  0  0  0  0  0  0  0
   13.3816   -0.6847   26.8892 H   0  0  0  0  0  0  0  0  0  0  0  0
   12.1644   -1.8199   22.6640 H   0  0  0  0  0  0  0  0  0  0  0  0
    6.6795   -5.2859   24.4876 H   0  0  0  0  0  0  0  0  0  0  0  0
    5.8835   -4.6130   25.9282 H   0  0  0  0  0  0  0  0  0  0  0  0
    7.5706   -3.7507   27.8738 H   0  0  0  0  0  0  0  0  0  0  0  0
    9.2992   -3.9474   27.5112 H   0  0  0  0  0  0  0  0  0  0  0  0
    5.8522   -7.0520   26.0823 H   0  0  0  0  0  0  0  0  0  0  0  0
    7.5937   -7.1675   25.8080 H   0  0  0  0  0  0  0  0  0  0  0  0
    9.0741   -6.4110   27.5161 H   0  0  0  0  0  0  0  0  0  0  0  0
    8.3861   -5.7563   29.0060 H   0  0  0  0  0  0  0  0  0  0  0  0
   10.3911    1.5389   23.7520 H   0  0  0  0  0  0  0  0  0  0  0  0
   11.2877    1.0581   22.3316 H   0  0  0  0  0  0  0  0  0  0  0  0
   10.5438   -0.9939   22.0202 H   0  0  0  0  0  0  0  0  0  0  0  0
    6.7486    0.4313   16.8331 H   0  0  0  0  0  0  0  0  0  0  0  0
    8.0917   -1.6083   21.0911 H   0  0  0  0  0  0  0  0  0  0  0  0
  1  2  1  0  0  0  0
  1  3  2  0  0  0  0
  2  6  2  0  0  0  0
  3 12  1  0  0  0  0
  4  7  2  0  0  0  0
  4 13  1  0  0  0  0
  5  8  1  0  0  0  0
  5 13  2  0  0  0  0
  6 15  1  0  0  0  0
  7 16  1  0  0  0  0
  8 16  2  0  0  0  0
  9 10  2  0  0  0  0
  9 14  1  0  0  0  0
 10 31  1  0  0  0  0
 11 14  2  0  0  0  0
 11 31  1  0  0  0  0
 12 15  2  0  0  0  0
 12 17  1  0  0  0  0
 13 24  1  0  0  0  0
 14 23  1  0  0  0  0
 15 26  1  0  0  0  0
 16 27  1  0  0  0  0
 17 25  2  0  0  0  0
 17 28  1  0  0  0  0
 18 24  1  1  0  0  0
 18 28  1  0  0  0  0
 18 29  2  0  0  0  0
 19 21  1  0  0  0  0
 19 27  1  0  0  0  0
 20 22  1  0  0  0  0
 20 27  1  0  0  0  0
 21 30  1  0  0  0  0
 22 30  1  0  0  0  0
 23 24  1  0  0  0  0
 25 26  1  0  0  0  0
  1 32  1  0  0  0  0
  2 33  1  0  0  0  0
  3 34  1  0  0  0  0
  4 35  1  0  0  0  0
  5 36  1  0  0  0  0
  6 37  1  0  0  0  0
  7 38  1  0  0  0  0
  8 39  1  0  0  0  0
  9 40  1  0  0  0  0
 10 41  1  0  0  0  0
 11 42  1  0  0  0  0
 19 43  1  0  0  0  0
 19 44  1  0  0  0  0
 20 45  1  0  0  0  0
 20 46  1  0  0  0  0
 21 47  1  0  0  0  0
 21 48  1  0  0  0  0
 22 49  1  0  0  0  0
 22 50  1  0  0  0  0
 23 51  1  0  0  0  0
 23 52  1  0  0  0  0
 24 53  1  0  0  0  0
 26 54  1  0  0  0  0
 28 55  1  0  0  0  0
M  END
> <clash_score>
0

> <docking_score>
-5.440646171569824

> <overlap_score>
0.9189088940620422

$$$$
BENZO_248_2
  -OEChem-08222022453D

 55 59  0     1  0  0  0  0  0999 V2000
    4.2460    1.7520   20.8250 C   0  0  0  0  0  0  0  0  0  0  0  0
    3.8860    2.1050   19.5250 C   0  0  0  0  0  0  0  0  0  0  0  0
    5.3890    1.0010   21.0690 C   0  0  0  0  0  0  0  0  0  0  0  0
    9.5890   -2.4950   23.2210 C   0  0  0  0  0  0  0  0  0  0  0  0
    8.2550   -1.0010   24.5520 C   0  0  0  0  0  0  0  0  0  0  0  0
    4.6610    1.7170   18.4380 C   0  0  0  0  0  0  0  0  0  0  0  0
    9.1890   -3.5540   24.0140 C   0  0  0  0  0  0  0  0  0  0  0  0
    7.8700   -2.0610   25.3550 C   0  0  0  0  0  0  0  0  0  0  0  0
   13.1119   -0.2538   23.5994 C   0  0  0  0  0  0  0  0  0  0  0  0
   14.2134   -0.7202   22.9163 C   0  0  0  0  0  0  0  0  0  0  0  0
   12.3853   -0.0855   21.3980 C   0  0  0  0  0  0  0  0  0  0  0  0
    6.1460    0.6070   19.9750 C   0  0  0  0  0  0  0  0  0  0  0  0
    9.1280   -1.2090   23.4870 C   0  0  0  0  0  0  0  0  0  0  0  0
   12.0528    0.1138   22.7200 C   0  0  0  0  0  0  0  0  0  0  0  0
    5.7970    0.9500   18.6730 C   0  0  0  0  0  0  0  0  0  0  0  0
    8.3450   -3.3440   25.0980 C   0  0  0  0  0  0  0  0  0  0  0  0
    7.2710   -0.1460   19.8310 C   0  0  0  0  0  0  0  0  0  0  0  0
    9.0430    0.2380   21.4940 C   0  0  0  0  0  0  0  0  0  0  0  0
    8.9526   -5.2008   26.6600 C   0  0  0  0  0  0  0  0  0  0  0  0
    6.6115   -4.5057   26.4392 C   0  0  0  0  0  0  0  0  0  0  0  0
    8.9053   -4.7827   28.1257 C   0  0  0  0  0  0  0  0  0  0  0  0
    6.6391   -4.1219   27.9194 C   0  0  0  0  0  0  0  0  0  0  0  0
   10.7220    0.6590   23.1850 C   0  0  0  0  0  0  0  0  0  0  0  0
    9.5820   -0.1080   22.7000 C   0  0  2  0  0  0  0  0  0  0  0  0
    7.5840   -0.2700   18.5160 N   0  0  0  0  0  0  0  0  0  0  0  0
    6.7100    0.3850   17.8100 N   0  0  0  0  0  0  0  0  0  0  0  0
    7.9774   -4.4013   25.9152 N   0  0  0  0  0  0  0  0  0  0  0  0
    8.0950   -0.7700   20.8440 N   0  0  0  0  0  0  0  0  0  0  0  0
    9.2950    1.3000   20.9480 O   0  0  0  0  0  0  0  0  0  0  0  0
    7.5748   -4.9364   28.6347 O   0  0  0  0  0  0  0  0  0  0  0  0
   13.9685   -0.7136   21.2215 S   0  0  0  0  0  0  0  0  0  0  0  0
    3.6223    2.0725   21.6574 H   0  0  0  0  0  0  0  0  0  0  0  0
    2.9864    2.6933   19.3609 H   0  0  0  0  0  0  0  0  0  0  0  0
    5.6689    0.7392   22.0836 H   0  0  0  0  0  0  0  0  0  0  0  0
   10.2684   -2.6719   22.3867 H   0  0  0  0  0  0  0  0  0  0  0  0
    7.8717   -0.0016   24.7596 H   0  0  0  0  0  0  0  0  0  0  0  0
    4.3807    2.0116   17.4186 H   0  0  0  0  0  0  0  0  0  0  0  0
    9.5443   -4.5616   23.7817 H   0  0  0  0  0  0  0  0  0  0  0  0
    7.1921   -1.8821   26.1908 H   0  0  0  0  0  0  0  0  0  0  0  0
   13.0722   -0.1810   24.6789 H   0  0  0  0  0  0  0  0  0  0  0  0
   15.1504   -1.0638   23.3311 H   0  0  0  0  0  0  0  0  0  0  0  0
   11.7779    0.1073   20.5246 H   0  0  0  0  0  0  0  0  0  0  0  0
    9.9614   -5.0503   26.2701 H   0  0  0  0  0  0  0  0  0  0  0  0
    8.6932   -6.2593   26.5731 H   0  0  0  0  0  0  0  0  0  0  0  0
    6.2625   -5.5339   26.3355 H   0  0  0  0  0  0  0  0  0  0  0  0
    5.9348   -3.8414   25.9036 H   0  0  0  0  0  0  0  0  0  0  0  0
    9.5615   -5.4255   28.7162 H   0  0  0  0  0  0  0  0  0  0  0  0
    9.2365   -3.7494   28.2620 H   0  0  0  0  0  0  0  0  0  0  0  0
    6.8895   -3.0633   28.0551 H   0  0  0  0  0  0  0  0  0  0  0  0
    5.6514   -4.2861   28.3610 H   0  0  0  0  0  0  0  0  0  0  0  0
   10.7177    0.7189   24.2812 H   0  0  0  0  0  0  0  0  0  0  0  0
   10.6426    1.6980   22.8361 H   0  0  0  0  0  0  0  0  0  0  0  0
    8.7036    0.8022   23.4008 H   0  0  0  0  0  0  0  0  0  0  0  0
    6.7486    0.4313   16.8331 H   0  0  0  0  0  0  0  0  0  0  0  0
    8.0917   -1.6083   21.0911 H   0  0  0  0  0  0  0  0  0  0  0  0
  1  2  1  0  0  0  0
  1  3  2  0  0  0  0
  2  6  2  0  0  0  0
  3 12  1  0  0  0  0
  4  7  2  0  0  0  0
  4 13  1  0  0  0  0
  5  8  1  0  0  0  0
  5 13  2  0  0  0  0
  6 15  1  0  0  0  0
  7 16  1  0  0  0  0
  8 16  2  0  0  0  0
  9 10  2  0  0  0  0
  9 14  1  0  0  0  0
 10 31  1  0  0  0  0
 11 14  2  0  0  0  0
 11 31  1  0  0  0  0
 12 15  2  0  0  0  0
 12 17  1  0  0  0  0
 13 24  1  0  0  0  0
 14 23  1  0  0  0  0
 15 26  1  0  0  0  0
 16 27  1  0  0  0  0
 17 25  2  0  0  0  0
 17 28  1  0  0  0  0
 18 24  1  6  0  0  0
 18 28  1  0  0  0  0
 18 29  2  0  0  0  0
 19 21  1  0  0  0  0
 19 27  1  0  0  0  0
 20 22  1  0  0  0  0
 20 27  1  0  0  0  0
 21 30  1  0  0  0  0
 22 30  1  0  0  0  0
 23 24  1  0  0  0  0
 25 26  1  0  0  0  0
  1 32  1  0  0  0  0
  2 33  1  0  0  0  0
  3 34  1  0  0  0  0
  4 35  1  0  0  0  0
  5 36  1  0  0  0  0
  6 37  1  0  0  0  0
  7 38  1  0  0  0  0
  8 39  1  0  0  0  0
  9 40  1  0  0  0  0
 10 41  1  0  0  0  0
 11 42  1  0  0  0  0
 19 43  1  0  0  0  0
 19 44  1  0  0  0  0
 20 45  1  0  0  0  0
 20 46  1  0  0  0  0
 21 47  1  0  0  0  0
 21 48  1  0  0  0  0
 22 49  1  0  0  0  0
 22 50  1  0  0  0  0
 23 51  1  0  0  0  0
 23 52  1  0  0  0  0
 24 53  1  0  0  0  0
 26 54  1  0  0  0  0
 28 55  1  0  0  0  0
M  END
> <clash_score>
0

> <docking_score>
-7.051939010620117

> <overlap_score>
0.9507242441177368

$$$$
BENZO_251_1
  -OEChem-08222022453D

 58 62  0     1  0  0  0  0  0999 V2000
    4.2460    1.7520   20.8250 C   0  0  0  0  0  0  0  0  0  0  0  0
    3.8860    2.1050   19.5250 C   0  0  0  0  0  0  0  0  0  0  0  0
    5.3890    1.0010   21.0690 C   0  0  0  0  0  0  0  0  0  0  0  0
    9.5890   -2.4950   23.2210 C   0  0  0  0  0  0  0  0  0  0  0  0
    8.2550   -1.0010   24.5520 C   0  0  0  0  0  0  0  0  0  0  0  0
    4.6610    1.7170   18.4380 C   0  0  0  0  0  0  0  0  0  0  0  0
    9.1890   -3.5540   24.0140 C   0  0  0  0  0  0  0  0  0  0  0  0
    7.8700   -2.0610   25.3550 C   0  0  0  0  0  0  0  0  0  0  0  0
   13.2924    0.1786   23.3840 C   0  0  0  0  0  0  0  0  0  0  0  0
   12.3227   -0.5596   21.5537 C   0  0  0  0  0  0  0  0  0  0  0  0
    6.1460    0.6070   19.9750 C   0  0  0  0  0  0  0  0  0  0  0  0
    9.1280   -1.2090   23.4870 C   0  0  0  0  0  0  0  0  0  0  0  0
   12.0528    0.1138   22.7200 C   0  0  0  0  0  0  0  0  0  0  0  0
    5.7970    0.9500   18.6730 C   0  0  0  0  0  0  0  0  0  0  0  0
    8.3450   -3.3440   25.0980 C   0  0  0  0  0  0  0  0  0  0  0  0
    7.2710   -0.1460   19.8310 C   0  0  0  0  0  0  0  0  0  0  0  0
    9.0430    0.2380   21.4940 C   0  0  0  0  0  0  0  0  0  0  0  0
    8.9526   -5.2008   26.6600 C   0  0  0  0  0  0  0  0  0  0  0  0
    6.6115   -4.5057   26.4392 C   0  0  0  0  0  0  0  0  0  0  0  0
    8.9053   -4.7827   28.1257 C   0  0  0  0  0  0  0  0  0  0  0  0
    6.6391   -4.1219   27.9194 C   0  0  0  0  0  0  0  0  0  0  0  0
   14.4073   -1.5490   20.5768 C   0  0  0  0  0  0  0  0  0  0  0  0
   10.7220    0.6590   23.1850 C   0  0  0  0  0  0  0  0  0  0  0  0
    9.5820   -0.1080   22.7000 C   0  0  1  0  0  0  0  0  0  0  0  0
   14.2767   -0.4070   22.6967 N   0  0  0  0  0  0  0  0  0  0  0  0
    7.5840   -0.2700   18.5160 N   0  0  0  0  0  0  0  0  0  0  0  0
    6.7100    0.3850   17.8100 N   0  0  0  0  0  0  0  0  0  0  0  0
   13.6557   -0.8463   21.5888 N   0  0  0  0  0  0  0  0  0  0  0  0
    7.9774   -4.4013   25.9152 N   0  0  0  0  0  0  0  0  0  0  0  0
    8.0950   -0.7700   20.8440 N   0  0  0  0  0  0  0  0  0  0  0  0
    9.2950    1.3000   20.9480 O   0  0  0  0  0  0  0  0  0  0  0  0
    7.5748   -4.9364   28.6347 O   0  0  0  0  0  0  0  0  0  0  0  0
    3.6223    2.0725   21.6574 H   0  0  0  0  0  0  0  0  0  0  0  0
    2.9864    2.6933   19.3609 H   0  0  0  0  0  0  0  0  0  0  0  0
    5.6689    0.7392   22.0836 H   0  0  0  0  0  0  0  0  0  0  0  0
   10.2684   -2.6719   22.3867 H   0  0  0  0  0  0  0  0  0  0  0  0
    7.8717   -0.0016   24.7596 H   0  0  0  0  0  0  0  0  0  0  0  0
    4.3807    2.0116   17.4186 H   0  0  0  0  0  0  0  0  0  0  0  0
    9.5443   -4.5616   23.7817 H   0  0  0  0  0  0  0  0  0  0  0  0
    7.1921   -1.8821   26.1908 H   0  0  0  0  0  0  0  0  0  0  0  0
   13.5219    0.6268   24.3404 H   0  0  0  0  0  0  0  0  0  0  0  0
   11.6952   -0.8530   20.7231 H   0  0  0  0  0  0  0  0  0  0  0  0
    9.9614   -5.0503   26.2701 H   0  0  0  0  0  0  0  0  0  0  0  0
    8.6932   -6.2593   26.5731 H   0  0  0  0  0  0  0  0  0  0  0  0
    6.2625   -5.5339   26.3355 H   0  0  0  0  0  0  0  0  0  0  0  0
    5.9348   -3.8414   25.9036 H   0  0  0  0  0  0  0  0  0  0  0  0
    9.5615   -5.4255   28.7162 H   0  0  0  0  0  0  0  0  0  0  0  0
    9.2365   -3.7494   28.2620 H   0  0  0  0  0  0  0  0  0  0  0  0
    6.8895   -3.0633   28.0551 H   0  0  0  0  0  0  0  0  0  0  0  0
    5.6514   -4.2861   28.3610 H   0  0  0  0  0  0  0  0  0  0  0  0
   14.7895   -0.8108   19.8669 H   0  0  0  0  0  0  0  0  0  0  0  0
   15.2329   -2.0907   21.0468 H   0  0  0  0  0  0  0  0  0  0  0  0
   13.7520   -2.2637   20.0711 H   0  0  0  0  0  0  0  0  0  0  0  0
   10.7177    0.7189   24.2812 H   0  0  0  0  0  0  0  0  0  0  0  0
   10.6426    1.6980   22.8361 H   0  0  0  0  0  0  0  0  0  0  0  0
    8.7036    0.8022   23.4008 H   0  0  0  0  0  0  0  0  0  0  0  0
    6.7486    0.4313   16.8331 H   0  0  0  0  0  0  0  0  0  0  0  0
    8.0917   -1.6083   21.0911 H   0  0  0  0  0  0  0  0  0  0  0  0
  1  2  1  0  0  0  0
  1  3  2  0  0  0  0
  2  6  2  0  0  0  0
  3 11  1  0  0  0  0
  4  7  2  0  0  0  0
  4 12  1  0  0  0  0
  5  8  1  0  0  0  0
  5 12  2  0  0  0  0
  6 14  1  0  0  0  0
  7 15  1  0  0  0  0
  8 15  2  0  0  0  0
  9 13  1  0  0  0  0
  9 25  2  0  0  0  0
 10 13  2  0  0  0  0
 10 28  1  0  0  0  0
 11 14  2  0  0  0  0
 11 16  1  0  0  0  0
 12 24  1  0  0  0  0
 13 23  1  0  0  0  0
 14 27  1  0  0  0  0
 15 29  1  0  0  0  0
 16 26  2  0  0  0  0
 16 30  1  0  0  0  0
 17 24  1  0  0  0  0
 17 30  1  0  0  0  0
 17 31  2  0  0  0  0
 18 20  1  0  0  0  0
 18 29  1  0  0  0  0
 19 21  1  0  0  0  0
 19 29  1  0  0  0  0
 20 32  1  0  0  0  0
 21 32  1  0  0  0  0
 22 28  1  0  0  0  0
 23 24  1  1  0  0  0
 25 28  1  0  0  0  0
 26 27  1  0  0  0  0
  1 33  1  0  0  0  0
  2 34  1  0  0  0  0
  3 35  1  0  0  0  0
  4 36  1  0  0  0  0
  5 37  1  0  0  0  0
  6 38  1  0  0  0  0
  7 39  1  0  0  0  0
  8 40  1  0  0  0  0
  9 41  1  0  0  0  0
 10 42  1  0  0  0  0
 18 43  1  0  0  0  0
 18 44  1  0  0  0  0
 19 45  1  0  0  0  0
 19 46  1  0  0  0  0
 20 47  1  0  0  0  0
 20 48  1  0  0  0  0
 21 49  1  0  0  0  0
 21 50  1  0  0  0  0
 22 51  1  0  0  0  0
 22 52  1  0  0  0  0
 22 53  1  0  0  0  0
 23 54  1  0  0  0  0
 23 55  1  0  0  0  0
 24 56  1  0  0  0  0
 27 57  1  0  0  0  0
 30 58  1  0  0  0  0
M  END
> <clash_score>
0

> <docking_score>
-8.424196243286133

> <overlap_score>
0.9540113806724548

$$$$
BENZO_251_2
  -OEChem-08222022453D

 58 62  0     1  0  0  0  0  0999 V2000
    4.2460    1.7520   20.8250 C   0  0  0  0  0  0  0  0  0  0  0  0
    3.8860    2.1050   19.5250 C   0  0  0  0  0  0  0  0  0  0  0  0
    5.3890    1.0010   21.0690 C   0  0  0  0  0  0  0  0  0  0  0  0
    9.5890   -2.4950   23.2210 C   0  0  0  0  0  0  0  0  0  0  0  0
    8.2550   -1.0010   24.5520 C   0  0  0  0  0  0  0  0  0  0  0  0
    4.6610    1.7170   18.4380 C   0  0  0  0  0  0  0  0  0  0  0  0
    9.1890   -3.5540   24.0140 C   0  0  0  0  0  0  0  0  0  0  0  0
    7.8700   -2.0610   25.3550 C   0  0  0  0  0  0  0  0  0  0  0  0
   12.1478   -0.7466   24.8788 C   0  0  0  0  0  0  0  0  0  0  0  0
   12.9365   -0.6363   22.8292 C   0  0  0  0  0  0  0  0  0  0  0  0
    6.1460    0.6070   19.9750 C   0  0  0  0  0  0  0  0  0  0  0  0
    9.1280   -1.2090   23.4870 C   0  0  0  0  0  0  0  0  0  0  0  0
   11.8895   -0.2037   23.6058 C   0  0  0  0  0  0  0  0  0  0  0  0
    5.7970    0.9500   18.6730 C   0  0  0  0  0  0  0  0  0  0  0  0
    8.3450   -3.3440   25.0980 C   0  0  0  0  0  0  0  0  0  0  0  0
    7.2710   -0.1460   19.8310 C   0  0  0  0  0  0  0  0  0  0  0  0
    9.0430    0.2380   21.4940 C   0  0  0  0  0  0  0  0  0  0  0  0
    8.9526   -5.2008   26.6600 C   0  0  0  0  0  0  0  0  0  0  0  0
    6.6115   -4.5057   26.4392 C   0  0  0  0  0  0  0  0  0  0  0  0
    8.9053   -4.7827   28.1257 C   0  0  0  0  0  0  0  0  0  0  0  0
    6.6391   -4.1219   27.9194 C   0  0  0  0  0  0  0  0  0  0  0  0
   14.9529   -2.0519   23.2864 C   0  0  0  0  0  0  0  0  0  0  0  0
   10.7220    0.6590   23.1850 C   0  0  0  0  0  0  0  0  0  0  0  0
    9.5820   -0.1080   22.7000 C   0  0  2  0  0  0  0  0  0  0  0  0
   13.2706   -1.4691   24.9131 N   0  0  0  0  0  0  0  0  0  0  0  0
    7.5840   -0.2700   18.5160 N   0  0  0  0  0  0  0  0  0  0  0  0
    6.7100    0.3850   17.8100 N   0  0  0  0  0  0  0  0  0  0  0  0
   13.7272   -1.3833   23.6520 N   0  0  0  0  0  0  0  0  0  0  0  0
    7.9774   -4.4013   25.9152 N   0  0  0  0  0  0  0  0  0  0  0  0
    8.0950   -0.7700   20.8440 N   0  0  0  0  0  0  0  0  0  0  0  0
    9.2950    1.3000   20.9480 O   0  0  0  0  0  0  0  0  0  0  0  0
    7.5748   -4.9364   28.6347 O   0  0  0  0  0  0  0  0  0  0  0  0
    3.6223    2.0725   21.6574 H   0  0  0  0  0  0  0  0  0  0  0  0
    2.9864    2.6933   19.3609 H   0  0  0  0  0  0  0  0  0  0  0  0
    5.6689    0.7392   22.0836 H   0  0  0  0  0  0  0  0  0  0  0  0
   10.2684   -2.6719   22.3867 H   0  0  0  0  0  0  0  0  0  0  0  0
    7.8717   -0.0016   24.7596 H   0  0  0  0  0  0  0  0  0  0  0  0
    4.3807    2.0116   17.4186 H   0  0  0  0  0  0  0  0  0  0  0  0
    9.5443   -4.5616   23.7817 H   0  0  0  0  0  0  0  0  0  0  0  0
    7.1921   -1.8821   26.1908 H   0  0  0  0  0  0  0  0  0  0  0  0
   11.5656   -0.6480   25.7841 H   0  0  0  0  0  0  0  0  0  0  0  0
   13.1794   -0.4813   21.7867 H   0  0  0  0  0  0  0  0  0  0  0  0
    9.9614   -5.0503   26.2701 H   0  0  0  0  0  0  0  0  0  0  0  0
    8.6932   -6.2593   26.5731 H   0  0  0  0  0  0  0  0  0  0  0  0
    6.2625   -5.5339   26.3355 H   0  0  0  0  0  0  0  0  0  0  0  0
    5.9348   -3.8414   25.9036 H   0  0  0  0  0  0  0  0  0  0  0  0
    9.5615   -5.4255   28.7162 H   0  0  0  0  0  0  0  0  0  0  0  0
    9.2365   -3.7494   28.2620 H   0  0  0  0  0  0  0  0  0  0  0  0
    6.8895   -3.0633   28.0551 H   0  0  0  0  0  0  0  0  0  0  0  0
    5.6514   -4.2861   28.3610 H   0  0  0  0  0  0  0  0  0  0  0  0
   15.7795   -1.3567   23.4548 H   0  0  0  0  0  0  0  0  0  0  0  0
   15.0760   -2.9481   23.9008 H   0  0  0  0  0  0  0  0  0  0  0  0
   14.9053   -2.3433   22.2334 H   0  0  0  0  0  0  0  0  0  0  0  0
   10.4315    1.3089   24.0208 H   0  0  0  0  0  0  0  0  0  0  0  0
   11.0719    1.3385   22.3955 H   0  0  0  0  0  0  0  0  0  0  0  0
   10.5438   -0.9939   22.0202 H   0  0  0  0  0  0  0  0  0  0  0  0
    6.7486    0.4313   16.8331 H   0  0  0  0  0  0  0  0  0  0  0  0
    8.0917   -1.6083   21.0911 H   0  0  0  0  0  0  0  0  0  0  0  0
  1  2  1  0  0  0  0
  1  3  2  0  0  0  0
  2  6  2  0  0  0  0
  3 11  1  0  0  0  0
  4  7  2  0  0  0  0
  4 12  1  0  0  0  0
  5  8  1  0  0  0  0
  5 12  2  0  0  0  0
  6 14  1  0  0  0  0
  7 15  1  0  0  0  0
  8 15  2  0  0  0  0
  9 13  1  0  0  0  0
  9 25  2  0  0  0  0
 10 13  2  0  0  0  0
 10 28  1  0  0  0  0
 11 14  2  0  0  0  0
 11 16  1  0  0  0  0
 12 24  1  0  0  0  0
 13 23  1  0  0  0  0
 14 27  1  0  0  0  0
 15 29  1  0  0  0  0
 16 26  2  0  0  0  0
 16 30  1  0  0  0  0
 17 24  1  0  0  0  0
 17 30  1  0  0  0  0
 17 31  2  0  0  0  0
 18 20  1  0  0  0  0
 18 29  1  0  0  0  0
 19 21  1  0  0  0  0
 19 29  1  0  0  0  0
 20 32  1  0  0  0  0
 21 32  1  0  0  0  0
 22 28  1  0  0  0  0
 23 24  1  6  0  0  0
 25 28  1  0  0  0  0
 26 27  1  0  0  0  0
  1 33  1  0  0  0  0
  2 34  1  0  0  0  0
  3 35  1  0  0  0  0
  4 36  1  0  0  0  0
  5 37  1  0  0  0  0
  6 38  1  0  0  0  0
  7 39  1  0  0  0  0
  8 40  1  0  0  0  0
  9 41  1  0  0  0  0
 10 42  1  0  0  0  0
 18 43  1  0  0  0  0
 18 44  1  0  0  0  0
 19 45  1  0  0  0  0
 19 46  1  0  0  0  0
 20 47  1  0  0  0  0
 20 48  1  0  0  0  0
 21 49  1  0  0  0  0
 21 50  1  0  0  0  0
 22 51  1  0  0  0  0
 22 52  1  0  0  0  0
 22 53  1  0  0  0  0
 23 54  1  0  0  0  0
 23 55  1  0  0  0  0
 24 56  1  0  0  0  0
 27 57  1  0  0  0  0
 30 58  1  0  0  0  0
M  END
> <clash_score>
0

> <docking_score>
-6.953895092010498

> <overlap_score>
0.9773151278495789

$$$$
BENZO_250_2
  -OEChem-08222022453D

 58 62  0     1  0  0  0  0  0999 V2000
    4.2460    1.7520   20.8250 C   0  0  0  0  0  0  0  0  0  0  0  0
    3.8860    2.1050   19.5250 C   0  0  0  0  0  0  0  0  0  0  0  0
   13.3731   -1.0509   21.0656 C   0  0  0  0  0  0  0  0  0  0  0  0
    5.3890    1.0010   21.0690 C   0  0  0  0  0  0  0  0  0  0  0  0
   12.1451   -0.5485   21.4959 C   0  0  0  0  0  0  0  0  0  0  0  0
    9.5890   -2.4950   23.2210 C   0  0  0  0  0  0  0  0  0  0  0  0
    8.2550   -1.0010   24.5520 C   0  0  0  0  0  0  0  0  0  0  0  0
    4.6610    1.7170   18.4380 C   0  0  0  0  0  0  0  0  0  0  0  0
    9.1890   -3.5540   24.0140 C   0  0  0  0  0  0  0  0  0  0  0  0
    7.8700   -2.0610   25.3550 C   0  0  0  0  0  0  0  0  0  0  0  0
   14.5088   -0.8912   21.8596 C   0  0  0  0  0  0  0  0  0  0  0  0
   13.1885    0.2735   23.5140 C   0  0  0  0  0  0  0  0  0  0  0  0
    6.1460    0.6070   19.9750 C   0  0  0  0  0  0  0  0  0  0  0  0
    9.1280   -1.2090   23.4870 C   0  0  0  0  0  0  0  0  0  0  0  0
   12.0528    0.1138   22.7200 C   0  0  0  0  0  0  0  0  0  0  0  0
    5.7970    0.9500   18.6730 C   0  0  0  0  0  0  0  0  0  0  0  0
    8.3450   -3.3440   25.0980 C   0  0  0  0  0  0  0  0  0  0  0  0
   14.4165   -0.2290   23.0837 C   0  0  0  0  0  0  0  0  0  0  0  0
    7.2710   -0.1460   19.8310 C   0  0  0  0  0  0  0  0  0  0  0  0
    9.0430    0.2380   21.4940 C   0  0  0  0  0  0  0  0  0  0  0  0
    8.9526   -5.2008   26.6600 C   0  0  0  0  0  0  0  0  0  0  0  0
    6.6115   -4.5057   26.4392 C   0  0  0  0  0  0  0  0  0  0  0  0
    8.9053   -4.7827   28.1257 C   0  0  0  0  0  0  0  0  0  0  0  0
    6.6391   -4.1219   27.9194 C   0  0  0  0  0  0  0  0  0  0  0  0
   10.7220    0.6590   23.1850 C   0  0  0  0  0  0  0  0  0  0  0  0
    9.5820   -0.1080   22.7000 C   0  0  2  0  0  0  0  0  0  0  0  0
    7.5840   -0.2700   18.5160 N   0  0  0  0  0  0  0  0  0  0  0  0
    6.7100    0.3850   17.8100 N   0  0  0  0  0  0  0  0  0  0  0  0
    7.9774   -4.4013   25.9152 N   0  0  0  0  0  0  0  0  0  0  0  0
    8.0950   -0.7700   20.8440 N   0  0  0  0  0  0  0  0  0  0  0  0
    9.2950    1.3000   20.9480 O   0  0  0  0  0  0  0  0  0  0  0  0
    7.5748   -4.9364   28.6347 O   0  0  0  0  0  0  0  0  0  0  0  0
   15.8183   -0.0312   24.0623 Cl  0  0  0  0  0  0  0  0  0  0  0  0
    3.6223    2.0725   21.6574 H   0  0  0  0  0  0  0  0  0  0  0  0
    2.9864    2.6933   19.3609 H   0  0  0  0  0  0  0  0  0  0  0  0
   13.4446   -1.5664   20.1122 H   0  0  0  0  0  0  0  0  0  0  0  0
    5.6689    0.7392   22.0836 H   0  0  0  0  0  0  0  0  0  0  0  0
   11.2654   -0.6774   20.8707 H   0  0  0  0  0  0  0  0  0  0  0  0
   10.2684   -2.6719   22.3867 H   0  0  0  0  0  0  0  0  0  0  0  0
    7.8717   -0.0016   24.7596 H   0  0  0  0  0  0  0  0  0  0  0  0
    4.3807    2.0116   17.4186 H   0  0  0  0  0  0  0  0  0  0  0  0
    9.5443   -4.5616   23.7817 H   0  0  0  0  0  0  0  0  0  0  0  0
    7.1921   -1.8821   26.1908 H   0  0  0  0  0  0  0  0  0  0  0  0
   15.4594   -1.2877   21.5114 H   0  0  0  0  0  0  0  0  0  0  0  0
   13.1112    0.7902   24.4679 H   0  0  0  0  0  0  0  0  0  0  0  0
    9.9614   -5.0503   26.2701 H   0  0  0  0  0  0  0  0  0  0  0  0
    8.6932   -6.2593   26.5731 H   0  0  0  0  0  0  0  0  0  0  0  0
    6.2625   -5.5339   26.3355 H   0  0  0  0  0  0  0  0  0  0  0  0
    5.9348   -3.8414   25.9036 H   0  0  0  0  0  0  0  0  0  0  0  0
    9.5615   -5.4255   28.7162 H   0  0  0  0  0  0  0  0  0  0  0  0
    9.2365   -3.7494   28.2620 H   0  0  0  0  0  0  0  0  0  0  0  0
    6.8895   -3.0633   28.0551 H   0  0  0  0  0  0  0  0  0  0  0  0
    5.6514   -4.2861   28.3610 H   0  0  0  0  0  0  0  0  0  0  0  0
   10.7177    0.7189   24.2812 H   0  0  0  0  0  0  0  0  0  0  0  0
   10.6426    1.6980   22.8361 H   0  0  0  0  0  0  0  0  0  0  0  0
    8.7036    0.8022   23.4008 H   0  0  0  0  0  0  0  0  0  0  0  0
    6.7486    0.4313   16.8331 H   0  0  0  0  0  0  0  0  0  0  0  0
    8.0917   -1.6083   21.0911 H   0  0  0  0  0  0  0  0  0  0  0  0
  1  2  1  0  0  0  0
  1  4  2  0  0  0  0
  2  8  2  0  0  0  0
  3  5  2  0  0  0  0
  3 11  1  0  0  0  0
  4 13  1  0  0  0  0
  5 15  1  0  0  0  0
  6  9  2  0  0  0  0
  6 14  1  0  0  0  0
  7 10  1  0  0  0  0
  7 14  2  0  0  0  0
  8 16  1  0  0  0  0
  9 17  1  0  0  0  0
 10 17  2  0  0  0  0
 11 18  2  0  0  0  0
 12 15  2  0  0  0  0
 12 18  1  0  0  0  0
 13 16  2  0  0  0  0
 13 19  1  0  0  0  0
 14 26  1  0  0  0  0
 15 25  1  0  0  0  0
 16 28  1  0  0  0  0
 17 29  1  0  0  0  0
 18 33  1  0  0  0  0
 19 27  2  0  0  0  0
 19 30  1  0  0  0  0
 20 26  1  6  0  0  0
 20 30  1  0  0  0  0
 20 31  2  0  0  0  0
 21 23  1  0  0  0  0
 21 29  1  0  0  0  0
 22 24  1  0  0  0  0
 22 29  1  0  0  0  0
 23 32  1  0  0  0  0
 24 32  1  0  0  0  0
 25 26  1  0  0  0  0
 27 28  1  0  0  0  0
  1 34  1  0  0  0  0
  2 35  1  0  0  0  0
  3 36  1  0  0  0  0
  4 37  1  0  0  0  0
  5 38  1  0  0  0  0
  6 39  1  0  0  0  0
  7 40  1  0  0  0  0
  8 41  1  0  0  0  0
  9 42  1  0  0  0  0
 10 43  1  0  0  0  0
 11 44  1  0  0  0  0
 12 45  1  0  0  0  0
 21 46  1  0  0  0  0
 21 47  1  0  0  0  0
 22 48  1  0  0  0  0
 22 49  1  0  0  0  0
 23 50  1  0  0  0  0
 23 51  1  0  0  0  0
 24 52  1  0  0  0  0
 24 53  1  0  0  0  0
 25 54  1  0  0  0  0
 25 55  1  0  0  0  0
 26 56  1  0  0  0  0
 28 57  1  0  0  0  0
 30 58  1  0  0  0  0
M  END
> <clash_score>
1.470581667490539

> <docking_score>
-6.429788112640381

> <overlap_score>
0.9555860161781311

$$$$
BENZO_253_1
  -OEChem-08222022453D

 52 55  0     1  0  0  0  0  0999 V2000
   14.4826   -0.9249   21.8253 C   0  0  0  0  0  0  0  0  0  0  0  0
   14.4071   -0.2631   23.0508 C   0  0  0  0  0  0  0  0  0  0  0  0
   13.3388   -1.0729   21.0408 C   0  0  0  0  0  0  0  0  0  0  0  0
   13.1876    0.2507   23.4919 C   0  0  0  0  0  0  0  0  0  0  0  0
   12.1193   -0.5591   21.4820 C   0  0  0  0  0  0  0  0  0  0  0  0
    9.5890   -2.4950   23.2210 C   0  0  0  0  0  0  0  0  0  0  0  0
    8.2550   -1.0010   24.5520 C   0  0  0  0  0  0  0  0  0  0  0  0
    9.1890   -3.5540   24.0140 C   0  0  0  0  0  0  0  0  0  0  0  0
    7.8700   -2.0610   25.3550 C   0  0  0  0  0  0  0  0  0  0  0  0
   12.0437    0.1027   22.7075 C   0  0  0  0  0  0  0  0  0  0  0  0
    9.1280   -1.2090   23.4870 C   0  0  0  0  0  0  0  0  0  0  0  0
    8.3450   -3.3440   25.0980 C   0  0  0  0  0  0  0  0  0  0  0  0
    6.1460    0.6070   19.9750 C   0  0  0  0  0  0  0  0  0  0  0  0
    7.2710   -0.1460   19.8310 C   0  0  0  0  0  0  0  0  0  0  0  0
    5.3890    1.0010   21.0690 C   0  0  0  0  0  0  0  0  0  0  0  0
    4.2460    1.7520   20.8250 C   0  0  0  0  0  0  0  0  0  0  0  0
    3.8860    2.1050   19.5250 C   0  0  0  0  0  0  0  0  0  0  0  0
    4.6610    1.7170   18.4380 C   0  0  0  0  0  0  0  0  0  0  0  0
    9.0430    0.2380   21.4940 C   0  0  0  0  0  0  0  0  0  0  0  0
    7.2615   -5.5564   25.3807 C   0  0  0  0  0  0  0  0  0  0  0  0
    8.3055   -4.4046   27.3383 C   0  0  0  0  0  0  0  0  0  0  0  0
   10.7220    0.6590   23.1850 C   0  0  0  0  0  0  0  0  0  0  0  0
    9.5820   -0.1080   22.7000 C   0  0  1  0  0  0  0  0  0  0  0  0
    7.5840   -0.2700   18.5160 N   0  0  0  0  0  0  0  0  0  0  0  0
    6.7100    0.3850   17.8100 N   0  0  0  0  0  0  0  0  0  0  0  0
    5.7970    0.9500   18.6730 N   0  0  0  0  0  0  0  0  0  0  0  0
    8.0950   -0.7700   20.8440 N   0  0  0  0  0  0  0  0  0  0  0  0
    7.9717   -4.4175   25.9277 N   0  0  0  0  0  0  0  0  0  0  0  0
    9.2950    1.3000   20.9480 O   0  0  0  0  0  0  0  0  0  0  0  0
   15.4325   -1.3238   21.4813 H   0  0  0  0  0  0  0  0  0  0  0  0
   15.2979   -0.1468   23.6612 H   0  0  0  0  0  0  0  0  0  0  0  0
   13.3974   -1.5872   20.0862 H   0  0  0  0  0  0  0  0  0  0  0  0
   13.1382    0.7647   24.4482 H   0  0  0  0  0  0  0  0  0  0  0  0
   11.2333   -0.6792   20.8642 H   0  0  0  0  0  0  0  0  0  0  0  0
   10.2684   -2.6719   22.3867 H   0  0  0  0  0  0  0  0  0  0  0  0
    7.8717   -0.0016   24.7596 H   0  0  0  0  0  0  0  0  0  0  0  0
    9.5443   -4.5616   23.7817 H   0  0  0  0  0  0  0  0  0  0  0  0
    7.1921   -1.8821   26.1908 H   0  0  0  0  0  0  0  0  0  0  0  0
    5.6529    0.7487   22.0767 H   0  0  0  0  0  0  0  0  0  0  0  0
    3.6388    2.0586   21.6675 H   0  0  0  0  0  0  0  0  0  0  0  0
    2.9822    2.6968   19.3330 H   0  0  0  0  0  0  0  0  0  0  0  0
    4.4111    1.9893   17.4360 H   0  0  0  0  0  0  0  0  0  0  0  0
    7.0614   -6.2836   26.1815 H   0  0  0  0  0  0  0  0  0  0  0  0
    6.3092   -5.2198   24.9451 H   0  0  0  0  0  0  0  0  0  0  0  0
    7.8746   -6.0304   24.6001 H   0  0  0  0  0  0  0  0  0  0  0  0
    7.9313   -5.3239   27.8125 H   0  0  0  0  0  0  0  0  0  0  0  0
    9.3978   -4.3499   27.4560 H   0  0  0  0  0  0  0  0  0  0  0  0
    7.8408   -3.5300   27.8169 H   0  0  0  0  0  0  0  0  0  0  0  0
   10.7266    0.7141   24.2815 H   0  0  0  0  0  0  0  0  0  0  0  0
   10.6502    1.7003   22.8412 H   0  0  0  0  0  0  0  0  0  0  0  0
    8.7027    0.7972   23.4026 H   0  0  0  0  0  0  0  0  0  0  0  0
    8.0713   -1.6185   21.0737 H   0  0  0  0  0  0  0  0  0  0  0  0
  1  2  1  0  0  0  0
  1  3  2  0  0  0  0
  2  4  2  0  0  0  0
  3  5  1  0  0  0  0
  4 10  1  0  0  0  0
  5 10  2  0  0  0  0
  6  8  2  0  0  0  0
  6 11  1  0  0  0  0
  7  9  1  0  0  0  0
  7 11  2  0  0  0  0
  8 12  1  0  0  0  0
  9 12  2  0  0  0  0
 10 22  1  0  0  0  0
 11 23  1  0  0  0  0
 12 28  1  0  0  0  0
 13 14  2  0  0  0  0
 13 15  1  0  0  0  0
 13 26  1  0  0  0  0
 14 24  1  0  0  0  0
 14 27  1  0  0  0  0
 15 16  2  0  0  0  0
 16 17  1  0  0  0  0
 17 18  2  0  0  0  0
 18 26  1  0  0  0  0
 19 23  1  0  0  0  0
 19 27  1  0  0  0  0
 19 29  2  0  0  0  0
 20 28  1  0  0  0  0
 21 28  1  0  0  0  0
 22 23  1  1  0  0  0
 24 25  2  0  0  0  0
 25 26  1  0  0  0  0
  1 30  1  0  0  0  0
  2 31  1  0  0  0  0
  3 32  1  0  0  0  0
  4 33  1  0  0  0  0
  5 34  1  0  0  0  0
  6 35  1  0  0  0  0
  7 36  1  0  0  0  0
  8 37  1  0  0  0  0
  9 38  1  0  0  0  0
 15 39  1  0  0  0  0
 16 40  1  0  0  0  0
 17 41  1  0  0  0  0
 18 42  1  0  0  0  0
 20 43  1  0  0  0  0
 20 44  1  0  0  0  0
 20 45  1  0  0  0  0
 21 46  1  0  0  0  0
 21 47  1  0  0  0  0
 21 48  1  0  0  0  0
 22 49  1  0  0  0  0
 22 50  1  0  0  0  0
 23 51  1  0  0  0  0
 27 52  1  0  0  0  0
M  END
> <clash_score>
0

> <docking_score>
-7.210090637207031

> <overlap_score>
0.9071730375289917

$$$$
BENZO_253_2
  -OEChem-08222022453D

 52 55  0     1  0  0  0  0  0999 V2000
   14.0137   -1.8398   24.3768 C   0  0  0  0  0  0  0  0  0  0  0  0
   13.0361   -1.4844   25.3061 C   0  0  0  0  0  0  0  0  0  0  0  0
   13.9239   -1.3848   23.0613 C   0  0  0  0  0  0  0  0  0  0  0  0
   11.9686   -0.6740   24.9198 C   0  0  0  0  0  0  0  0  0  0  0  0
   12.8563   -0.5744   22.6750 C   0  0  0  0  0  0  0  0  0  0  0  0
    9.5890   -2.4950   23.2210 C   0  0  0  0  0  0  0  0  0  0  0  0
    8.2550   -1.0010   24.5520 C   0  0  0  0  0  0  0  0  0  0  0  0
    9.1890   -3.5540   24.0140 C   0  0  0  0  0  0  0  0  0  0  0  0
    7.8700   -2.0610   25.3550 C   0  0  0  0  0  0  0  0  0  0  0  0
   11.8786   -0.2190   23.6043 C   0  0  0  0  0  0  0  0  0  0  0  0
    9.1280   -1.2090   23.4870 C   0  0  0  0  0  0  0  0  0  0  0  0
    8.3450   -3.3440   25.0980 C   0  0  0  0  0  0  0  0  0  0  0  0
    6.1460    0.6070   19.9750 C   0  0  0  0  0  0  0  0  0  0  0  0
    7.2710   -0.1460   19.8310 C   0  0  0  0  0  0  0  0  0  0  0  0
    5.3890    1.0010   21.0690 C   0  0  0  0  0  0  0  0  0  0  0  0
    4.2460    1.7520   20.8250 C   0  0  0  0  0  0  0  0  0  0  0  0
    3.8860    2.1050   19.5250 C   0  0  0  0  0  0  0  0  0  0  0  0
    4.6610    1.7170   18.4380 C   0  0  0  0  0  0  0  0  0  0  0  0
    9.0430    0.2380   21.4940 C   0  0  0  0  0  0  0  0  0  0  0  0
    7.2615   -5.5564   25.3807 C   0  0  0  0  0  0  0  0  0  0  0  0
    8.3055   -4.4046   27.3383 C   0  0  0  0  0  0  0  0  0  0  0  0
   10.7220    0.6590   23.1850 C   0  0  0  0  0  0  0  0  0  0  0  0
    9.5820   -0.1080   22.7000 C   0  0  2  0  0  0  0  0  0  0  0  0
    7.5840   -0.2700   18.5160 N   0  0  0  0  0  0  0  0  0  0  0  0
    6.7100    0.3850   17.8100 N   0  0  0  0  0  0  0  0  0  0  0  0
    5.7970    0.9500   18.6730 N   0  0  0  0  0  0  0  0  0  0  0  0
    8.0950   -0.7700   20.8440 N   0  0  0  0  0  0  0  0  0  0  0  0
    7.9717   -4.4175   25.9277 N   0  0  0  0  0  0  0  0  0  0  0  0
    9.2950    1.3000   20.9480 O   0  0  0  0  0  0  0  0  0  0  0  0
   14.8456   -2.4698   24.6781 H   0  0  0  0  0  0  0  0  0  0  0  0
   13.1065   -1.8377   26.3307 H   0  0  0  0  0  0  0  0  0  0  0  0
   14.6854   -1.6605   22.3378 H   0  0  0  0  0  0  0  0  0  0  0  0
   11.2114   -0.4022   25.6506 H   0  0  0  0  0  0  0  0  0  0  0  0
   12.7944   -0.2247   21.6479 H   0  0  0  0  0  0  0  0  0  0  0  0
   10.2684   -2.6719   22.3867 H   0  0  0  0  0  0  0  0  0  0  0  0
    7.8717   -0.0016   24.7596 H   0  0  0  0  0  0  0  0  0  0  0  0
    9.5443   -4.5616   23.7817 H   0  0  0  0  0  0  0  0  0  0  0  0
    7.1921   -1.8821   26.1908 H   0  0  0  0  0  0  0  0  0  0  0  0
    5.6529    0.7487   22.0767 H   0  0  0  0  0  0  0  0  0  0  0  0
    3.6388    2.0586   21.6675 H   0  0  0  0  0  0  0  0  0  0  0  0
    2.9822    2.6968   19.3330 H   0  0  0  0  0  0  0  0  0  0  0  0
    4.4111    1.9893   17.4360 H   0  0  0  0  0  0  0  0  0  0  0  0
    7.0614   -6.2836   26.1815 H   0  0  0  0  0  0  0  0  0  0  0  0
    6.3092   -5.2198   24.9451 H   0  0  0  0  0  0  0  0  0  0  0  0
    7.8746   -6.0304   24.6001 H   0  0  0  0  0  0  0  0  0  0  0  0
    7.9313   -5.3239   27.8125 H   0  0  0  0  0  0  0  0  0  0  0  0
    9.3978   -4.3499   27.4560 H   0  0  0  0  0  0  0  0  0  0  0  0
    7.8408   -3.5300   27.8169 H   0  0  0  0  0  0  0  0  0  0  0  0
   10.4369    1.3080   24.0233 H   0  0  0  0  0  0  0  0  0  0  0  0
   11.0815    1.3384   22.3997 H   0  0  0  0  0  0  0  0  0  0  0  0
   10.5413   -0.9955   22.0233 H   0  0  0  0  0  0  0  0  0  0  0  0
    8.0713   -1.6185   21.0737 H   0  0  0  0  0  0  0  0  0  0  0  0
  1  2  1  0  0  0  0
  1  3  2  0  0  0  0
  2  4  2  0  0  0  0
  3  5  1  0  0  0  0
  4 10  1  0  0  0  0
  5 10  2  0  0  0  0
  6  8  2  0  0  0  0
  6 11  1  0  0  0  0
  7  9  1  0  0  0  0
  7 11  2  0  0  0  0
  8 12  1  0  0  0  0
  9 12  2  0  0  0  0
 10 22  1  0  0  0  0
 11 23  1  0  0  0  0
 12 28  1  0  0  0  0
 13 14  2  0  0  0  0
 13 15  1  0  0  0  0
 13 26  1  0  0  0  0
 14 24  1  0  0  0  0
 14 27  1  0  0  0  0
 15 16  2  0  0  0  0
 16 17  1  0  0  0  0
 17 18  2  0  0  0  0
 18 26  1  0  0  0  0
 19 23  1  0  0  0  0
 19 27  1  0  0  0  0
 19 29  2  0  0  0  0
 20 28  1  0  0  0  0
 21 28  1  0  0  0  0
 22 23  1  6  0  0  0
 24 25  2  0  0  0  0
 25 26  1  0  0  0  0
  1 30  1  0  0  0  0
  2 31  1  0  0  0  0
  3 32  1  0  0  0  0
  4 33  1  0  0  0  0
  5 34  1  0  0  0  0
  6 35  1  0  0  0  0
  7 36  1  0  0  0  0
  8 37  1  0  0  0  0
  9 38  1  0  0  0  0
 15 39  1  0  0  0  0
 16 40  1  0  0  0  0
 17 41  1  0  0  0  0
 18 42  1  0  0  0  0
 20 43  1  0  0  0  0
 20 44  1  0  0  0  0
 20 45  1  0  0  0  0
 21 46  1  0  0  0  0
 21 47  1  0  0  0  0
 21 48  1  0  0  0  0
 22 49  1  0  0  0  0
 22 50  1  0  0  0  0
 23 51  1  0  0  0  0
 27 52  1  0  0  0  0
M  END
> <clash_score>
0

> <docking_score>
-7.772677421569824

> <overlap_score>
0.9280073642730713

$$$$
BENZO_250_1
  -OEChem-08222022453D

 58 62  0     1  0  0  0  0  0999 V2000
    4.2460    1.7520   20.8250 C   0  0  0  0  0  0  0  0  0  0  0  0
    3.8860    2.1050   19.5250 C   0  0  0  0  0  0  0  0  0  0  0  0
   13.0607   -1.4512   25.3114 C   0  0  0  0  0  0  0  0  0  0  0  0
    5.3890    1.0010   21.0690 C   0  0  0  0  0  0  0  0  0  0  0  0
   11.9841   -0.6540   24.9226 C   0  0  0  0  0  0  0  0  0  0  0  0
    9.5890   -2.4950   23.2210 C   0  0  0  0  0  0  0  0  0  0  0  0
    8.2550   -1.0010   24.5520 C   0  0  0  0  0  0  0  0  0  0  0  0
    4.6610    1.7170   18.4380 C   0  0  0  0  0  0  0  0  0  0  0  0
    9.1890   -3.5540   24.0140 C   0  0  0  0  0  0  0  0  0  0  0  0
    7.8700   -2.0610   25.3550 C   0  0  0  0  0  0  0  0  0  0  0  0
   14.0427   -1.7979   24.3834 C   0  0  0  0  0  0  0  0  0  0  0  0
   12.8715   -0.5505   22.6778 C   0  0  0  0  0  0  0  0  0  0  0  0
    6.1460    0.6070   19.9750 C   0  0  0  0  0  0  0  0  0  0  0  0
    9.1280   -1.2090   23.4870 C   0  0  0  0  0  0  0  0  0  0  0  0
   11.8895   -0.2037   23.6058 C   0  0  0  0  0  0  0  0  0  0  0  0
    5.7970    0.9500   18.6730 C   0  0  0  0  0  0  0  0  0  0  0  0
    8.3450   -3.3440   25.0980 C   0  0  0  0  0  0  0  0  0  0  0  0
   13.9481   -1.3476   23.0666 C   0  0  0  0  0  0  0  0  0  0  0  0
    7.2710   -0.1460   19.8310 C   0  0  0  0  0  0  0  0  0  0  0  0
    9.0430    0.2380   21.4940 C   0  0  0  0  0  0  0  0  0  0  0  0
    8.9526   -5.2008   26.6600 C   0  0  0  0  0  0  0  0  0  0  0  0
    6.6115   -4.5057   26.4392 C   0  0  0  0  0  0  0  0  0  0  0  0
    8.9053   -4.7827   28.1257 C   0  0  0  0  0  0  0  0  0  0  0  0
    6.6391   -4.1219   27.9194 C   0  0  0  0  0  0  0  0  0  0  0  0
   10.7220    0.6590   23.1850 C   0  0  0  0  0  0  0  0  0  0  0  0
    9.5820   -0.1080   22.7000 C   0  0  1  0  0  0  0  0  0  0  0  0
    7.5840   -0.2700   18.5160 N   0  0  0  0  0  0  0  0  0  0  0  0
    6.7100    0.3850   17.8100 N   0  0  0  0  0  0  0  0  0  0  0  0
    7.9774   -4.4013   25.9152 N   0  0  0  0  0  0  0  0  0  0  0  0
    8.0950   -0.7700   20.8440 N   0  0  0  0  0  0  0  0  0  0  0  0
    9.2950    1.3000   20.9480 O   0  0  0  0  0  0  0  0  0  0  0  0
    7.5748   -4.9364   28.6347 O   0  0  0  0  0  0  0  0  0  0  0  0
   15.1593   -1.7768   21.9219 Cl  0  0  0  0  0  0  0  0  0  0  0  0
    3.6223    2.0725   21.6574 H   0  0  0  0  0  0  0  0  0  0  0  0
    2.9864    2.6933   19.3609 H   0  0  0  0  0  0  0  0  0  0  0  0
   13.1340   -1.8017   26.3368 H   0  0  0  0  0  0  0  0  0  0  0  0
    5.6689    0.7392   22.0836 H   0  0  0  0  0  0  0  0  0  0  0  0
   11.2236   -0.3888   25.6524 H   0  0  0  0  0  0  0  0  0  0  0  0
   10.2684   -2.6719   22.3867 H   0  0  0  0  0  0  0  0  0  0  0  0
    7.8717   -0.0016   24.7596 H   0  0  0  0  0  0  0  0  0  0  0  0
    4.3807    2.0116   17.4186 H   0  0  0  0  0  0  0  0  0  0  0  0
    9.5443   -4.5616   23.7817 H   0  0  0  0  0  0  0  0  0  0  0  0
    7.1921   -1.8821   26.1908 H   0  0  0  0  0  0  0  0  0  0  0  0
   14.8761   -2.4201   24.7005 H   0  0  0  0  0  0  0  0  0  0  0  0
   12.7934   -0.1965   21.6525 H   0  0  0  0  0  0  0  0  0  0  0  0
    9.9614   -5.0503   26.2701 H   0  0  0  0  0  0  0  0  0  0  0  0
    8.6932   -6.2593   26.5731 H   0  0  0  0  0  0  0  0  0  0  0  0
    6.2625   -5.5339   26.3355 H   0  0  0  0  0  0  0  0  0  0  0  0
    5.9348   -3.8414   25.9036 H   0  0  0  0  0  0  0  0  0  0  0  0
    9.5615   -5.4255   28.7162 H   0  0  0  0  0  0  0  0  0  0  0  0
    9.2365   -3.7494   28.2620 H   0  0  0  0  0  0  0  0  0  0  0  0
    6.8895   -3.0633   28.0551 H   0  0  0  0  0  0  0  0  0  0  0  0
    5.6514   -4.2861   28.3610 H   0  0  0  0  0  0  0  0  0  0  0  0
   10.4315    1.3089   24.0208 H   0  0  0  0  0  0  0  0  0  0  0  0
   11.0719    1.3385   22.3955 H   0  0  0  0  0  0  0  0  0  0  0  0
   10.5438   -0.9939   22.0202 H   0  0  0  0  0  0  0  0  0  0  0  0
    6.7486    0.4313   16.8331 H   0  0  0  0  0  0  0  0  0  0  0  0
    8.0917   -1.6083   21.0911 H   0  0  0  0  0  0  0  0  0  0  0  0
  1  2  1  0  0  0  0
  1  4  2  0  0  0  0
  2  8  2  0  0  0  0
  3  5  2  0  0  0  0
  3 11  1  0  0  0  0
  4 13  1  0  0  0  0
  5 15  1  0  0  0  0
  6  9  2  0  0  0  0
  6 14  1  0  0  0  0
  7 10  1  0  0  0  0
  7 14  2  0  0  0  0
  8 16  1  0  0  0  0
  9 17  1  0  0  0  0
 10 17  2  0  0  0  0
 11 18  2  0  0  0  0
 12 15  2  0  0  0  0
 12 18  1  0  0  0  0
 13 16  2  0  0  0  0
 13 19  1  0  0  0  0
 14 26  1  0  0  0  0
 15 25  1  0  0  0  0
 16 28  1  0  0  0  0
 17 29  1  0  0  0  0
 18 33  1  0  0  0  0
 19 27  2  0  0  0  0
 19 30  1  0  0  0  0
 20 26  1  1  0  0  0
 20 30  1  0  0  0  0
 20 31  2  0  0  0  0
 21 23  1  0  0  0  0
 21 29  1  0  0  0  0
 22 24  1  0  0  0  0
 22 29  1  0  0  0  0
 23 32  1  0  0  0  0
 24 32  1  0  0  0  0
 25 26  1  0  0  0  0
 27 28  1  0  0  0  0
  1 34  1  0  0  0  0
  2 35  1  0  0  0  0
  3 36  1  0  0  0  0
  4 37  1  0  0  0  0
  5 38  1  0  0  0  0
  6 39  1  0  0  0  0
  7 40  1  0  0  0  0
  8 41  1  0  0  0  0
  9 42  1  0  0  0  0
 10 43  1  0  0  0  0
 11 44  1  0  0  0  0
 12 45  1  0  0  0  0
 21 46  1  0  0  0  0
 21 47  1  0  0  0  0
 22 48  1  0  0  0  0
 22 49  1  0  0  0  0
 23 50  1  0  0  0  0
 23 51  1  0  0  0  0
 24 52  1  0  0  0  0
 24 53  1  0  0  0  0
 25 54  1  0  0  0  0
 25 55  1  0  0  0  0
 26 56  1  0  0  0  0
 28 57  1  0  0  0  0
 30 58  1  0  0  0  0
M  END
> <clash_score>
0

> <docking_score>
-7.0239458084106445

> <overlap_score>
0.9814106822013855

$$$$
BENZO_252_1
  -OEChem-08222022453D

 49 52  0     1  0  0  0  0  0999 V2000
    9.5890   -2.4950   23.2210 C   0  0  0  0  0  0  0  0  0  0  0  0
    8.2550   -1.0010   24.5520 C   0  0  0  0  0  0  0  0  0  0  0  0
    9.1890   -3.5540   24.0140 C   0  0  0  0  0  0  0  0  0  0  0  0
    7.8700   -2.0610   25.3550 C   0  0  0  0  0  0  0  0  0  0  0  0
   13.1058   -0.2791   23.5772 C   0  0  0  0  0  0  0  0  0  0  0  0
   14.1974   -0.7534   22.8836 C   0  0  0  0  0  0  0  0  0  0  0  0
   12.3642   -0.0940   21.3822 C   0  0  0  0  0  0  0  0  0  0  0  0
    9.1280   -1.2090   23.4870 C   0  0  0  0  0  0  0  0  0  0  0  0
   12.0437    0.1027   22.7075 C   0  0  0  0  0  0  0  0  0  0  0  0
    8.3450   -3.3440   25.0980 C   0  0  0  0  0  0  0  0  0  0  0  0
    6.1460    0.6070   19.9750 C   0  0  0  0  0  0  0  0  0  0  0  0
    7.2710   -0.1460   19.8310 C   0  0  0  0  0  0  0  0  0  0  0  0
    5.3890    1.0010   21.0690 C   0  0  0  0  0  0  0  0  0  0  0  0
    4.2460    1.7520   20.8250 C   0  0  0  0  0  0  0  0  0  0  0  0
    3.8860    2.1050   19.5250 C   0  0  0  0  0  0  0  0  0  0  0  0
    4.6610    1.7170   18.4380 C   0  0  0  0  0  0  0  0  0  0  0  0
    9.0430    0.2380   21.4940 C   0  0  0  0  0  0  0  0  0  0  0  0
    7.2615   -5.5564   25.3807 C   0  0  0  0  0  0  0  0  0  0  0  0
    8.3055   -4.4046   27.3383 C   0  0  0  0  0  0  0  0  0  0  0  0
   10.7220    0.6590   23.1850 C   0  0  0  0  0  0  0  0  0  0  0  0
    9.5820   -0.1080   22.7000 C   0  0  1  0  0  0  0  0  0  0  0  0
    7.5840   -0.2700   18.5160 N   0  0  0  0  0  0  0  0  0  0  0  0
    6.7100    0.3850   17.8100 N   0  0  0  0  0  0  0  0  0  0  0  0
    5.7970    0.9500   18.6730 N   0  0  0  0  0  0  0  0  0  0  0  0
    8.0950   -0.7700   20.8440 N   0  0  0  0  0  0  0  0  0  0  0  0
    7.9717   -4.4175   25.9277 N   0  0  0  0  0  0  0  0  0  0  0  0
    9.2950    1.3000   20.9480 O   0  0  0  0  0  0  0  0  0  0  0  0
   13.9398   -0.7369   21.1908 S   0  0  0  0  0  0  0  0  0  0  0  0
   10.2684   -2.6719   22.3867 H   0  0  0  0  0  0  0  0  0  0  0  0
    7.8717   -0.0016   24.7596 H   0  0  0  0  0  0  0  0  0  0  0  0
    9.5443   -4.5616   23.7817 H   0  0  0  0  0  0  0  0  0  0  0  0
    7.1921   -1.8821   26.1908 H   0  0  0  0  0  0  0  0  0  0  0  0
   13.0750   -0.2107   24.6573 H   0  0  0  0  0  0  0  0  0  0  0  0
   15.1341   -1.1080   23.2899 H   0  0  0  0  0  0  0  0  0  0  0  0
   11.7521    0.1087   20.5143 H   0  0  0  0  0  0  0  0  0  0  0  0
    5.6529    0.7487   22.0767 H   0  0  0  0  0  0  0  0  0  0  0  0
    3.6388    2.0586   21.6675 H   0  0  0  0  0  0  0  0  0  0  0  0
    2.9822    2.6968   19.3330 H   0  0  0  0  0  0  0  0  0  0  0  0
    4.4111    1.9893   17.4360 H   0  0  0  0  0  0  0  0  0  0  0  0
    7.0614   -6.2836   26.1815 H   0  0  0  0  0  0  0  0  0  0  0  0
    6.3092   -5.2198   24.9451 H   0  0  0  0  0  0  0  0  0  0  0  0
    7.8746   -6.0304   24.6001 H   0  0  0  0  0  0  0  0  0  0  0  0
    7.9313   -5.3239   27.8125 H   0  0  0  0  0  0  0  0  0  0  0  0
    9.3978   -4.3499   27.4560 H   0  0  0  0  0  0  0  0  0  0  0  0
    7.8408   -3.5300   27.8169 H   0  0  0  0  0  0  0  0  0  0  0  0
   10.7266    0.7141   24.2815 H   0  0  0  0  0  0  0  0  0  0  0  0
   10.6502    1.7003   22.8412 H   0  0  0  0  0  0  0  0  0  0  0  0
    8.7027    0.7972   23.4026 H   0  0  0  0  0  0  0  0  0  0  0  0
    8.0713   -1.6185   21.0737 H   0  0  0  0  0  0  0  0  0  0  0  0
  1  3  2  0  0  0  0
  1  8  1  0  0  0  0
  2  4  1  0  0  0  0
  2  8  2  0  0  0  0
  3 10  1  0  0  0  0
  4 10  2  0  0  0  0
  5  6  2  0  0  0  0
  5  9  1  0  0  0  0
  6 28  1  0  0  0  0
  7  9  2  0  0  0  0
  7 28  1  0  0  0  0
  8 21  1  0  0  0  0
  9 20  1  0  0  0  0
 10 26  1  0  0  0  0
 11 12  2  0  0  0  0
 11 13  1  0  0  0  0
 11 24  1  0  0  0  0
 12 22  1  0  0  0  0
 12 25  1  0  0  0  0
 13 14  2  0  0  0  0
 14 15  1  0  0  0  0
 15 16  2  0  0  0  0
 16 24  1  0  0  0  0
 17 21  1  0  0  0  0
 17 25  1  0  0  0  0
 17 27  2  0  0  0  0
 18 26  1  0  0  0  0
 19 26  1  0  0  0  0
 20 21  1  1  0  0  0
 22 23  2  0  0  0  0
 23 24  1  0  0  0  0
  1 29  1  0  0  0  0
  2 30  1  0  0  0  0
  3 31  1  0  0  0  0
  4 32  1  0  0  0  0
  5 33  1  0  0  0  0
  6 34  1  0  0  0  0
  7 35  1  0  0  0  0
 13 36  1  0  0  0  0
 14 37  1  0  0  0  0
 15 38  1  0  0  0  0
 16 39  1  0  0  0  0
 18 40  1  0  0  0  0
 18 41  1  0  0  0  0
 18 42  1  0  0  0  0
 19 43  1  0  0  0  0
 19 44  1  0  0  0  0
 19 45  1  0  0  0  0
 20 46  1  0  0  0  0
 20 47  1  0  0  0  0
 21 48  1  0  0  0  0
 25 49  1  0  0  0  0
M  END
> <clash_score>
0

> <docking_score>
-6.985232353210449

> <overlap_score>
0.9037607312202454

$$$$
BENZO_252_2
  -OEChem-08222022453D

 49 52  0     1  0  0  0  0  0999 V2000
    9.5890   -2.4950   23.2210 C   0  0  0  0  0  0  0  0  0  0  0  0
    8.2550   -1.0010   24.5520 C   0  0  0  0  0  0  0  0  0  0  0  0
    9.1890   -3.5540   24.0140 C   0  0  0  0  0  0  0  0  0  0  0  0
    7.8700   -2.0610   25.3550 C   0  0  0  0  0  0  0  0  0  0  0  0
   12.0393    0.1762   25.3640 C   0  0  0  0  0  0  0  0  0  0  0  0
   12.9049   -0.7459   25.9099 C   0  0  0  0  0  0  0  0  0  0  0  0
   12.2520   -1.3384   23.6137 C   0  0  0  0  0  0  0  0  0  0  0  0
    9.1280   -1.2090   23.4870 C   0  0  0  0  0  0  0  0  0  0  0  0
   11.6609   -0.1670   24.0339 C   0  0  0  0  0  0  0  0  0  0  0  0
    8.3450   -3.3440   25.0980 C   0  0  0  0  0  0  0  0  0  0  0  0
    6.1460    0.6070   19.9750 C   0  0  0  0  0  0  0  0  0  0  0  0
    7.2710   -0.1460   19.8310 C   0  0  0  0  0  0  0  0  0  0  0  0
    5.3890    1.0010   21.0690 C   0  0  0  0  0  0  0  0  0  0  0  0
    4.2460    1.7520   20.8250 C   0  0  0  0  0  0  0  0  0  0  0  0
    3.8860    2.1050   19.5250 C   0  0  0  0  0  0  0  0  0  0  0  0
    4.6610    1.7170   18.4380 C   0  0  0  0  0  0  0  0  0  0  0  0
    9.0430    0.2380   21.4940 C   0  0  0  0  0  0  0  0  0  0  0  0
    8.4621   -5.7556   25.6632 C   0  0  0  0  0  0  0  0  0  0  0  0
    7.1029   -4.1964   27.0667 C   0  0  0  0  0  0  0  0  0  0  0  0
   10.7220    0.6590   23.1850 C   0  0  0  0  0  0  0  0  0  0  0  0
    9.5820   -0.1080   22.7000 C   0  0  2  0  0  0  0  0  0  0  0  0
    7.5840   -0.2700   18.5160 N   0  0  0  0  0  0  0  0  0  0  0  0
    6.7100    0.3850   17.8100 N   0  0  0  0  0  0  0  0  0  0  0  0
    5.7970    0.9500   18.6730 N   0  0  0  0  0  0  0  0  0  0  0  0
    8.0950   -0.7700   20.8440 N   0  0  0  0  0  0  0  0  0  0  0  0
    7.9717   -4.4175   25.9277 N   0  0  0  0  0  0  0  0  0  0  0  0
    9.2950    1.3000   20.9480 O   0  0  0  0  0  0  0  0  0  0  0  0
   13.2582   -2.0191   24.8206 S   0  0  0  0  0  0  0  0  0  0  0  0
   10.2684   -2.6719   22.3867 H   0  0  0  0  0  0  0  0  0  0  0  0
    7.8717   -0.0016   24.7596 H   0  0  0  0  0  0  0  0  0  0  0  0
    9.5443   -4.5616   23.7817 H   0  0  0  0  0  0  0  0  0  0  0  0
    7.1921   -1.8821   26.1908 H   0  0  0  0  0  0  0  0  0  0  0  0
   11.6967    1.0541   25.8970 H   0  0  0  0  0  0  0  0  0  0  0  0
   13.3474   -0.7326   26.8960 H   0  0  0  0  0  0  0  0  0  0  0  0
   12.1448   -1.8296   22.6565 H   0  0  0  0  0  0  0  0  0  0  0  0
    5.6529    0.7487   22.0767 H   0  0  0  0  0  0  0  0  0  0  0  0
    3.6388    2.0586   21.6675 H   0  0  0  0  0  0  0  0  0  0  0  0
    2.9822    2.6968   19.3330 H   0  0  0  0  0  0  0  0  0  0  0  0
    4.4111    1.9893   17.4360 H   0  0  0  0  0  0  0  0  0  0  0  0
    8.0611   -6.4493   26.4168 H   0  0  0  0  0  0  0  0  0  0  0  0
    8.1365   -6.0740   24.6619 H   0  0  0  0  0  0  0  0  0  0  0  0
    9.5611   -5.7591   25.7097 H   0  0  0  0  0  0  0  0  0  0  0  0
    6.9286   -5.1502   27.5863 H   0  0  0  0  0  0  0  0  0  0  0  0
    7.5780   -3.4842   27.7574 H   0  0  0  0  0  0  0  0  0  0  0  0
    6.1424   -3.7865   26.7209 H   0  0  0  0  0  0  0  0  0  0  0  0
   10.3958    1.5383   23.7557 H   0  0  0  0  0  0  0  0  0  0  0  0
   11.2964    1.0584   22.3376 H   0  0  0  0  0  0  0  0  0  0  0  0
   10.5413   -0.9955   22.0233 H   0  0  0  0  0  0  0  0  0  0  0  0
    8.0713   -1.6185   21.0737 H   0  0  0  0  0  0  0  0  0  0  0  0
  1  3  2  0  0  0  0
  1  8  1  0  0  0  0
  2  4  1  0  0  0  0
  2  8  2  0  0  0  0
  3 10  1  0  0  0  0
  4 10  2  0  0  0  0
  5  6  2  0  0  0  0
  5  9  1  0  0  0  0
  6 28  1  0  0  0  0
  7  9  2  0  0  0  0
  7 28  1  0  0  0  0
  8 21  1  0  0  0  0
  9 20  1  0  0  0  0
 10 26  1  0  0  0  0
 11 12  2  0  0  0  0
 11 13  1  0  0  0  0
 11 24  1  0  0  0  0
 12 22  1  0  0  0  0
 12 25  1  0  0  0  0
 13 14  2  0  0  0  0
 14 15  1  0  0  0  0
 15 16  2  0  0  0  0
 16 24  1  0  0  0  0
 17 21  1  0  0  0  0
 17 25  1  0  0  0  0
 17 27  2  0  0  0  0
 18 26  1  0  0  0  0
 19 26  1  0  0  0  0
 20 21  1  6  0  0  0
 22 23  2  0  0  0  0
 23 24  1  0  0  0  0
  1 29  1  0  0  0  0
  2 30  1  0  0  0  0
  3 31  1  0  0  0  0
  4 32  1  0  0  0  0
  5 33  1  0  0  0  0
  6 34  1  0  0  0  0
  7 35  1  0  0  0  0
 13 36  1  0  0  0  0
 14 37  1  0  0  0  0
 15 38  1  0  0  0  0
 16 39  1  0  0  0  0
 18 40  1  0  0  0  0
 18 41  1  0  0  0  0
 18 42  1  0  0  0  0
 19 43  1  0  0  0  0
 19 44  1  0  0  0  0
 19 45  1  0  0  0  0
 20 46  1  0  0  0  0
 20 47  1  0  0  0  0
 21 48  1  0  0  0  0
 25 49  1  0  0  0  0
M  END
> <clash_score>
0

> <docking_score>
-5.48751163482666

> <overlap_score>
0.8567851185798645

$$$$
BENZO_255_2
  -OEChem-08222022453D

 52 55  0     1  0  0  0  0  0999 V2000
    9.5890   -2.4950   23.2210 C   0  0  0  0  0  0  0  0  0  0  0  0
    8.2550   -1.0010   24.5520 C   0  0  0  0  0  0  0  0  0  0  0  0
    9.1890   -3.5540   24.0140 C   0  0  0  0  0  0  0  0  0  0  0  0
    7.8700   -2.0610   25.3550 C   0  0  0  0  0  0  0  0  0  0  0  0
   12.1294   -0.7684   24.8759 C   0  0  0  0  0  0  0  0  0  0  0  0
   12.9208   -0.6622   22.8272 C   0  0  0  0  0  0  0  0  0  0  0  0
    9.1280   -1.2090   23.4870 C   0  0  0  0  0  0  0  0  0  0  0  0
   11.8786   -0.2190   23.6043 C   0  0  0  0  0  0  0  0  0  0  0  0
    8.3450   -3.3440   25.0980 C   0  0  0  0  0  0  0  0  0  0  0  0
    6.1460    0.6070   19.9750 C   0  0  0  0  0  0  0  0  0  0  0  0
    7.2710   -0.1460   19.8310 C   0  0  0  0  0  0  0  0  0  0  0  0
    5.3890    1.0010   21.0690 C   0  0  0  0  0  0  0  0  0  0  0  0
    4.2460    1.7520   20.8250 C   0  0  0  0  0  0  0  0  0  0  0  0
    3.8860    2.1050   19.5250 C   0  0  0  0  0  0  0  0  0  0  0  0
    4.6610    1.7170   18.4380 C   0  0  0  0  0  0  0  0  0  0  0  0
    9.0430    0.2380   21.4940 C   0  0  0  0  0  0  0  0  0  0  0  0
   14.9196   -2.1033   23.2819 C   0  0  0  0  0  0  0  0  0  0  0  0
    7.2615   -5.5564   25.3807 C   0  0  0  0  0  0  0  0  0  0  0  0
    8.3055   -4.4046   27.3383 C   0  0  0  0  0  0  0  0  0  0  0  0
   10.7220    0.6590   23.1850 C   0  0  0  0  0  0  0  0  0  0  0  0
    9.5820   -0.1080   22.7000 C   0  0  2  0  0  0  0  0  0  0  0  0
   13.2434   -1.5045   24.9090 N   0  0  0  0  0  0  0  0  0  0  0  0
    7.5840   -0.2700   18.5160 N   0  0  0  0  0  0  0  0  0  0  0  0
    6.7100    0.3850   17.8100 N   0  0  0  0  0  0  0  0  0  0  0  0
   13.7018   -1.4209   23.6485 N   0  0  0  0  0  0  0  0  0  0  0  0
    5.7970    0.9500   18.6730 N   0  0  0  0  0  0  0  0  0  0  0  0
    8.0950   -0.7700   20.8440 N   0  0  0  0  0  0  0  0  0  0  0  0
    7.9717   -4.4175   25.9277 N   0  0  0  0  0  0  0  0  0  0  0  0
    9.2950    1.3000   20.9480 O   0  0  0  0  0  0  0  0  0  0  0  0
   10.2684   -2.6719   22.3867 H   0  0  0  0  0  0  0  0  0  0  0  0
    7.8717   -0.0016   24.7596 H   0  0  0  0  0  0  0  0  0  0  0  0
    9.5443   -4.5616   23.7817 H   0  0  0  0  0  0  0  0  0  0  0  0
    7.1921   -1.8821   26.1908 H   0  0  0  0  0  0  0  0  0  0  0  0
   11.5479   -0.6652   25.7811 H   0  0  0  0  0  0  0  0  0  0  0  0
   13.1664   -0.5073   21.7853 H   0  0  0  0  0  0  0  0  0  0  0  0
    5.6529    0.7487   22.0767 H   0  0  0  0  0  0  0  0  0  0  0  0
    3.6388    2.0586   21.6675 H   0  0  0  0  0  0  0  0  0  0  0  0
    2.9822    2.6968   19.3330 H   0  0  0  0  0  0  0  0  0  0  0  0
    4.4111    1.9893   17.4360 H   0  0  0  0  0  0  0  0  0  0  0  0
   15.7545   -1.4186   23.4527 H   0  0  0  0  0  0  0  0  0  0  0  0
   15.0313   -3.0027   23.8939 H   0  0  0  0  0  0  0  0  0  0  0  0
   14.8693   -2.3913   22.2281 H   0  0  0  0  0  0  0  0  0  0  0  0
    7.0614   -6.2836   26.1815 H   0  0  0  0  0  0  0  0  0  0  0  0
    6.3092   -5.2198   24.9451 H   0  0  0  0  0  0  0  0  0  0  0  0
    7.8746   -6.0304   24.6001 H   0  0  0  0  0  0  0  0  0  0  0  0
    7.9313   -5.3239   27.8125 H   0  0  0  0  0  0  0  0  0  0  0  0
    9.3978   -4.3499   27.4560 H   0  0  0  0  0  0  0  0  0  0  0  0
    7.8408   -3.5300   27.8169 H   0  0  0  0  0  0  0  0  0  0  0  0
   10.4369    1.3080   24.0233 H   0  0  0  0  0  0  0  0  0  0  0  0
   11.0815    1.3384   22.3997 H   0  0  0  0  0  0  0  0  0  0  0  0
   10.5413   -0.9955   22.0233 H   0  0  0  0  0  0  0  0  0  0  0  0
    8.0713   -1.6185   21.0737 H   0  0  0  0  0  0  0  0  0  0  0  0
  1  3  2  0  0  0  0
  1  7  1  0  0  0  0
  2  4  1  0  0  0  0
  2  7  2  0  0  0  0
  3  9  1  0  0  0  0
  4  9  2  0  0  0  0
  5  8  1  0  0  0  0
  5 22  2  0  0  0  0
  6  8  2  0  0  0  0
  6 25  1  0  0  0  0
  7 21  1  0  0  0  0
  8 20  1  0  0  0  0
  9 28  1  0  0  0  0
 10 11  2  0  0  0  0
 10 12  1  0  0  0  0
 10 26  1  0  0  0  0
 11 23  1  0  0  0  0
 11 27  1  0  0  0  0
 12 13  2  0  0  0  0
 13 14  1  0  0  0  0
 14 15  2  0  0  0  0
 15 26  1  0  0  0  0
 16 21  1  0  0  0  0
 16 27  1  0  0  0  0
 16 29  2  0  0  0  0
 17 25  1  0  0  0  0
 18 28  1  0  0  0  0
 19 28  1  0  0  0  0
 20 21  1  6  0  0  0
 22 25  1  0  0  0  0
 23 24  2  0  0  0  0
 24 26  1  0  0  0  0
  1 30  1  0  0  0  0
  2 31  1  0  0  0  0
  3 32  1  0  0  0  0
  4 33  1  0  0  0  0
  5 34  1  0  0  0  0
  6 35  1  0  0  0  0
 12 36  1  0  0  0  0
 13 37  1  0  0  0  0
 14 38  1  0  0  0  0
 15 39  1  0  0  0  0
 17 40  1  0  0  0  0
 17 41  1  0  0  0  0
 17 42  1  0  0  0  0
 18 43  1  0  0  0  0
 18 44  1  0  0  0  0
 18 45  1  0  0  0  0
 19 46  1  0  0  0  0
 19 47  1  0  0  0  0
 19 48  1  0  0  0  0
 20 49  1  0  0  0  0
 20 50  1  0  0  0  0
 21 51  1  0  0  0  0
 27 52  1  0  0  0  0
M  END
> <clash_score>
0

> <docking_score>
-6.842867851257324

> <overlap_score>
0.9296174645423889

$$$$
BENZO_255_1
  -OEChem-08222022453D

 52 55  0     1  0  0  0  0  0999 V2000
    9.5890   -2.4950   23.2210 C   0  0  0  0  0  0  0  0  0  0  0  0
    8.2550   -1.0010   24.5520 C   0  0  0  0  0  0  0  0  0  0  0  0
    9.1890   -3.5540   24.0140 C   0  0  0  0  0  0  0  0  0  0  0  0
    7.8700   -2.0610   25.3550 C   0  0  0  0  0  0  0  0  0  0  0  0
   13.2896    0.1553   23.3608 C   0  0  0  0  0  0  0  0  0  0  0  0
   12.2975   -0.5709   21.5378 C   0  0  0  0  0  0  0  0  0  0  0  0
    9.1280   -1.2090   23.4870 C   0  0  0  0  0  0  0  0  0  0  0  0
   12.0437    0.1027   22.7075 C   0  0  0  0  0  0  0  0  0  0  0  0
    8.3450   -3.3440   25.0980 C   0  0  0  0  0  0  0  0  0  0  0  0
    6.1460    0.6070   19.9750 C   0  0  0  0  0  0  0  0  0  0  0  0
    7.2710   -0.1460   19.8310 C   0  0  0  0  0  0  0  0  0  0  0  0
    5.3890    1.0010   21.0690 C   0  0  0  0  0  0  0  0  0  0  0  0
    4.2460    1.7520   20.8250 C   0  0  0  0  0  0  0  0  0  0  0  0
    3.8860    2.1050   19.5250 C   0  0  0  0  0  0  0  0  0  0  0  0
    4.6610    1.7170   18.4380 C   0  0  0  0  0  0  0  0  0  0  0  0
    9.0430    0.2380   21.4940 C   0  0  0  0  0  0  0  0  0  0  0  0
   14.3645   -1.5772   20.5410 C   0  0  0  0  0  0  0  0  0  0  0  0
    7.2615   -5.5564   25.3807 C   0  0  0  0  0  0  0  0  0  0  0  0
    8.3055   -4.4046   27.3383 C   0  0  0  0  0  0  0  0  0  0  0  0
   10.7220    0.6590   23.1850 C   0  0  0  0  0  0  0  0  0  0  0  0
    9.5820   -0.1080   22.7000 C   0  0  1  0  0  0  0  0  0  0  0  0
   14.2626   -0.4379   22.6640 N   0  0  0  0  0  0  0  0  0  0  0  0
    7.5840   -0.2700   18.5160 N   0  0  0  0  0  0  0  0  0  0  0  0
    6.7100    0.3850   17.8100 N   0  0  0  0  0  0  0  0  0  0  0  0
   13.6281   -0.8696   21.5608 N   0  0  0  0  0  0  0  0  0  0  0  0
    5.7970    0.9500   18.6730 N   0  0  0  0  0  0  0  0  0  0  0  0
    8.0950   -0.7700   20.8440 N   0  0  0  0  0  0  0  0  0  0  0  0
    7.9717   -4.4175   25.9277 N   0  0  0  0  0  0  0  0  0  0  0  0
    9.2950    1.3000   20.9480 O   0  0  0  0  0  0  0  0  0  0  0  0
   10.2684   -2.6719   22.3867 H   0  0  0  0  0  0  0  0  0  0  0  0
    7.8717   -0.0016   24.7596 H   0  0  0  0  0  0  0  0  0  0  0  0
    9.5443   -4.5616   23.7817 H   0  0  0  0  0  0  0  0  0  0  0  0
    7.1921   -1.8821   26.1908 H   0  0  0  0  0  0  0  0  0  0  0  0
   13.5314    0.5997   24.3159 H   0  0  0  0  0  0  0  0  0  0  0  0
   11.6602   -0.8572   20.7121 H   0  0  0  0  0  0  0  0  0  0  0  0
    5.6529    0.7487   22.0767 H   0  0  0  0  0  0  0  0  0  0  0  0
    3.6388    2.0586   21.6675 H   0  0  0  0  0  0  0  0  0  0  0  0
    2.9822    2.6968   19.3330 H   0  0  0  0  0  0  0  0  0  0  0  0
    4.4111    1.9893   17.4360 H   0  0  0  0  0  0  0  0  0  0  0  0
   14.7472   -0.8411   19.8291 H   0  0  0  0  0  0  0  0  0  0  0  0
   15.1893   -2.1271   21.0028 H   0  0  0  0  0  0  0  0  0  0  0  0
   13.6985   -2.2851   20.0398 H   0  0  0  0  0  0  0  0  0  0  0  0
    7.0614   -6.2836   26.1815 H   0  0  0  0  0  0  0  0  0  0  0  0
    6.3092   -5.2198   24.9451 H   0  0  0  0  0  0  0  0  0  0  0  0
    7.8746   -6.0304   24.6001 H   0  0  0  0  0  0  0  0  0  0  0  0
    7.9313   -5.3239   27.8125 H   0  0  0  0  0  0  0  0  0  0  0  0
    9.3978   -4.3499   27.4560 H   0  0  0  0  0  0  0  0  0  0  0  0
    7.8408   -3.5300   27.8169 H   0  0  0  0  0  0  0  0  0  0  0  0
   10.7266    0.7141   24.2815 H   0  0  0  0  0  0  0  0  0  0  0  0
   10.6502    1.7003   22.8412 H   0  0  0  0  0  0  0  0  0  0  0  0
    8.7027    0.7972   23.4026 H   0  0  0  0  0  0  0  0  0  0  0  0
    8.0713   -1.6185   21.0737 H   0  0  0  0  0  0  0  0  0  0  0  0
  1  3  2  0  0  0  0
  1  7  1  0  0  0  0
  2  4  1  0  0  0  0
  2  7  2  0  0  0  0
  3  9  1  0  0  0  0
  4  9  2  0  0  0  0
  5  8  1  0  0  0  0
  5 22  2  0  0  0  0
  6  8  2  0  0  0  0
  6 25  1  0  0  0  0
  7 21  1  0  0  0  0
  8 20  1  0  0  0  0
  9 28  1  0  0  0  0
 10 11  2  0  0  0  0
 10 12  1  0  0  0  0
 10 26  1  0  0  0  0
 11 23  1  0  0  0  0
 11 27  1  0  0  0  0
 12 13  2  0  0  0  0
 13 14  1  0  0  0  0
 14 15  2  0  0  0  0
 15 26  1  0  0  0  0
 16 21  1  0  0  0  0
 16 27  1  0  0  0  0
 16 29  2  0  0  0  0
 17 25  1  0  0  0  0
 18 28  1  0  0  0  0
 19 28  1  0  0  0  0
 20 21  1  1  0  0  0
 22 25  1  0  0  0  0
 23 24  2  0  0  0  0
 24 26  1  0  0  0  0
  1 30  1  0  0  0  0
  2 31  1  0  0  0  0
  3 32  1  0  0  0  0
  4 33  1  0  0  0  0
  5 34  1  0  0  0  0
  6 35  1  0  0  0  0
 12 36  1  0  0  0  0
 13 37  1  0  0  0  0
 14 38  1  0  0  0  0
 15 39  1  0  0  0  0
 17 40  1  0  0  0  0
 17 41  1  0  0  0  0
 17 42  1  0  0  0  0
 18 43  1  0  0  0  0
 18 44  1  0  0  0  0
 18 45  1  0  0  0  0
 19 46  1  0  0  0  0
 19 47  1  0  0  0  0
 19 48  1  0  0  0  0
 20 49  1  0  0  0  0
 20 50  1  0  0  0  0
 21 51  1  0  0  0  0
 27 52  1  0  0  0  0
M  END
> <clash_score>
0

> <docking_score>
-8.317842483520508

> <overlap_score>
0.9069620370864868

$$$$
BENZO_254_1
  -OEChem-08222022453D

 52 55  0     1  0  0  0  0  0999 V2000
   13.8165    0.0398   21.0674 C   0  0  0  0  0  0  0  0  0  0  0  0
   12.5963    0.5519   21.5081 C   0  0  0  0  0  0  0  0  0  0  0  0
    9.5890   -2.4950   23.2210 C   0  0  0  0  0  0  0  0  0  0  0  0
    8.2550   -1.0010   24.5520 C   0  0  0  0  0  0  0  0  0  0  0  0
    9.1890   -3.5540   24.0140 C   0  0  0  0  0  0  0  0  0  0  0  0
    7.8700   -2.0610   25.3550 C   0  0  0  0  0  0  0  0  0  0  0  0
   14.4843   -0.9216   21.8261 C   0  0  0  0  0  0  0  0  0  0  0  0
   12.7115   -0.8586   23.4662 C   0  0  0  0  0  0  0  0  0  0  0  0
    9.1280   -1.2090   23.4870 C   0  0  0  0  0  0  0  0  0  0  0  0
   12.0437    0.1027   22.7075 C   0  0  0  0  0  0  0  0  0  0  0  0
    8.3450   -3.3440   25.0980 C   0  0  0  0  0  0  0  0  0  0  0  0
   13.9318   -1.3708   23.0255 C   0  0  0  0  0  0  0  0  0  0  0  0
    6.1460    0.6070   19.9750 C   0  0  0  0  0  0  0  0  0  0  0  0
    7.2710   -0.1460   19.8310 C   0  0  0  0  0  0  0  0  0  0  0  0
    5.3890    1.0010   21.0690 C   0  0  0  0  0  0  0  0  0  0  0  0
    4.2460    1.7520   20.8250 C   0  0  0  0  0  0  0  0  0  0  0  0
    3.8860    2.1050   19.5250 C   0  0  0  0  0  0  0  0  0  0  0  0
    4.6610    1.7170   18.4380 C   0  0  0  0  0  0  0  0  0  0  0  0
    9.0430    0.2380   21.4940 C   0  0  0  0  0  0  0  0  0  0  0  0
    7.2615   -5.5564   25.3807 C   0  0  0  0  0  0  0  0  0  0  0  0
    8.3055   -4.4046   27.3383 C   0  0  0  0  0  0  0  0  0  0  0  0
   10.7220    0.6590   23.1850 C   0  0  0  0  0  0  0  0  0  0  0  0
    9.5820   -0.1080   22.7000 C   0  0  1  0  0  0  0  0  0  0  0  0
    7.5840   -0.2700   18.5160 N   0  0  0  0  0  0  0  0  0  0  0  0
    6.7100    0.3850   17.8100 N   0  0  0  0  0  0  0  0  0  0  0  0
    5.7970    0.9500   18.6730 N   0  0  0  0  0  0  0  0  0  0  0  0
    8.0950   -0.7700   20.8440 N   0  0  0  0  0  0  0  0  0  0  0  0
    7.9717   -4.4175   25.9277 N   0  0  0  0  0  0  0  0  0  0  0  0
    9.2950    1.3000   20.9480 O   0  0  0  0  0  0  0  0  0  0  0  0
   14.7567   -2.5560   23.9617 Cl  0  0  0  0  0  0  0  0  0  0  0  0
   14.2465    0.3899   20.1334 H   0  0  0  0  0  0  0  0  0  0  0  0
   12.0830    1.3007   20.9105 H   0  0  0  0  0  0  0  0  0  0  0  0
   10.2684   -2.6719   22.3867 H   0  0  0  0  0  0  0  0  0  0  0  0
    7.8717   -0.0016   24.7596 H   0  0  0  0  0  0  0  0  0  0  0  0
    9.5443   -4.5616   23.7817 H   0  0  0  0  0  0  0  0  0  0  0  0
    7.1921   -1.8821   26.1908 H   0  0  0  0  0  0  0  0  0  0  0  0
   15.4348   -1.3117   21.4704 H   0  0  0  0  0  0  0  0  0  0  0  0
   12.2763   -1.2059   24.4005 H   0  0  0  0  0  0  0  0  0  0  0  0
    5.6529    0.7487   22.0767 H   0  0  0  0  0  0  0  0  0  0  0  0
    3.6388    2.0586   21.6675 H   0  0  0  0  0  0  0  0  0  0  0  0
    2.9822    2.6968   19.3330 H   0  0  0  0  0  0  0  0  0  0  0  0
    4.4111    1.9893   17.4360 H   0  0  0  0  0  0  0  0  0  0  0  0
    7.0614   -6.2836   26.1815 H   0  0  0  0  0  0  0  0  0  0  0  0
    6.3092   -5.2198   24.9451 H   0  0  0  0  0  0  0  0  0  0  0  0
    7.8746   -6.0304   24.6001 H   0  0  0  0  0  0  0  0  0  0  0  0
    7.9313   -5.3239   27.8125 H   0  0  0  0  0  0  0  0  0  0  0  0
    9.3978   -4.3499   27.4560 H   0  0  0  0  0  0  0  0  0  0  0  0
    7.8408   -3.5300   27.8169 H   0  0  0  0  0  0  0  0  0  0  0  0
   10.7266    0.7141   24.2815 H   0  0  0  0  0  0  0  0  0  0  0  0
   10.6502    1.7003   22.8412 H   0  0  0  0  0  0  0  0  0  0  0  0
    8.7027    0.7972   23.4026 H   0  0  0  0  0  0  0  0  0  0  0  0
    8.0713   -1.6185   21.0737 H   0  0  0  0  0  0  0  0  0  0  0  0
  1  2  2  0  0  0  0
  1  7  1  0  0  0  0
  2 10  1  0  0  0  0
  3  5  2  0  0  0  0
  3  9  1  0  0  0  0
  4  6  1  0  0  0  0
  4  9  2  0  0  0  0
  5 11  1  0  0  0  0
  6 11  2  0  0  0  0
  7 12  2  0  0  0  0
  8 10  2  0  0  0  0
  8 12  1  0  0  0  0
  9 23  1  0  0  0  0
 10 22  1  0  0  0  0
 11 28  1  0  0  0  0
 12 30  1  0  0  0  0
 13 14  2  0  0  0  0
 13 15  1  0  0  0  0
 13 26  1  0  0  0  0
 14 24  1  0  0  0  0
 14 27  1  0  0  0  0
 15 16  2  0  0  0  0
 16 17  1  0  0  0  0
 17 18  2  0  0  0  0
 18 26  1  0  0  0  0
 19 23  1  0  0  0  0
 19 27  1  0  0  0  0
 19 29  2  0  0  0  0
 20 28  1  0  0  0  0
 21 28  1  0  0  0  0
 22 23  1  1  0  0  0
 24 25  2  0  0  0  0
 25 26  1  0  0  0  0
  1 31  1  0  0  0  0
  2 32  1  0  0  0  0
  3 33  1  0  0  0  0
  4 34  1  0  0  0  0
  5 35  1  0  0  0  0
  6 36  1  0  0  0  0
  7 37  1  0  0  0  0
  8 38  1  0  0  0  0
 15 39  1  0  0  0  0
 16 40  1  0  0  0  0
 17 41  1  0  0  0  0
 18 42  1  0  0  0  0
 20 43  1  0  0  0  0
 20 44  1  0  0  0  0
 20 45  1  0  0  0  0
 21 46  1  0  0  0  0
 21 47  1  0  0  0  0
 21 48  1  0  0  0  0
 22 49  1  0  0  0  0
 22 50  1  0  0  0  0
 23 51  1  0  0  0  0
 27 52  1  0  0  0  0
M  END
> <clash_score>
0

> <docking_score>
-6.373320579528809

> <overlap_score>
0.9217570424079895

$$$$
BENZO_254_2
  -OEChem-08222022453D

 52 55  0     1  0  0  0  0  0999 V2000
   13.0334   -1.4852   25.3072 C   0  0  0  0  0  0  0  0  0  0  0  0
   11.9669   -0.6740   24.9199 C   0  0  0  0  0  0  0  0  0  0  0  0
    9.5890   -2.4950   23.2210 C   0  0  0  0  0  0  0  0  0  0  0  0
    8.2550   -1.0010   24.5520 C   0  0  0  0  0  0  0  0  0  0  0  0
    9.1890   -3.5540   24.0140 C   0  0  0  0  0  0  0  0  0  0  0  0
    7.8700   -2.0610   25.3550 C   0  0  0  0  0  0  0  0  0  0  0  0
   14.0118   -1.8413   24.3790 C   0  0  0  0  0  0  0  0  0  0  0  0
   12.8570   -0.5751   22.6760 C   0  0  0  0  0  0  0  0  0  0  0  0
    9.1280   -1.2090   23.4870 C   0  0  0  0  0  0  0  0  0  0  0  0
   11.8786   -0.2190   23.6043 C   0  0  0  0  0  0  0  0  0  0  0  0
    8.3450   -3.3440   25.0980 C   0  0  0  0  0  0  0  0  0  0  0  0
   13.9235   -1.3863   23.0634 C   0  0  0  0  0  0  0  0  0  0  0  0
    6.1460    0.6070   19.9750 C   0  0  0  0  0  0  0  0  0  0  0  0
    7.2710   -0.1460   19.8310 C   0  0  0  0  0  0  0  0  0  0  0  0
    5.3890    1.0010   21.0690 C   0  0  0  0  0  0  0  0  0  0  0  0
    4.2460    1.7520   20.8250 C   0  0  0  0  0  0  0  0  0  0  0  0
    3.8860    2.1050   19.5250 C   0  0  0  0  0  0  0  0  0  0  0  0
    4.6610    1.7170   18.4380 C   0  0  0  0  0  0  0  0  0  0  0  0
    9.0430    0.2380   21.4940 C   0  0  0  0  0  0  0  0  0  0  0  0
    7.2615   -5.5564   25.3807 C   0  0  0  0  0  0  0  0  0  0  0  0
    8.3055   -4.4046   27.3383 C   0  0  0  0  0  0  0  0  0  0  0  0
   10.7220    0.6590   23.1850 C   0  0  0  0  0  0  0  0  0  0  0  0
    9.5820   -0.1080   22.7000 C   0  0  2  0  0  0  0  0  0  0  0  0
    7.5840   -0.2700   18.5160 N   0  0  0  0  0  0  0  0  0  0  0  0
    6.7100    0.3850   17.8100 N   0  0  0  0  0  0  0  0  0  0  0  0
    5.7970    0.9500   18.6730 N   0  0  0  0  0  0  0  0  0  0  0  0
    8.0950   -0.7700   20.8440 N   0  0  0  0  0  0  0  0  0  0  0  0
    7.9717   -4.4175   25.9277 N   0  0  0  0  0  0  0  0  0  0  0  0
    9.2950    1.3000   20.9480 O   0  0  0  0  0  0  0  0  0  0  0  0
   15.1303   -1.8270   21.9183 Cl  0  0  0  0  0  0  0  0  0  0  0  0
   13.1017   -1.8394   26.3318 H   0  0  0  0  0  0  0  0  0  0  0  0
   11.2091   -0.4015   25.6498 H   0  0  0  0  0  0  0  0  0  0  0  0
   10.2684   -2.6719   22.3867 H   0  0  0  0  0  0  0  0  0  0  0  0
    7.8717   -0.0016   24.7596 H   0  0  0  0  0  0  0  0  0  0  0  0
    9.5443   -4.5616   23.7817 H   0  0  0  0  0  0  0  0  0  0  0  0
    7.1921   -1.8821   26.1908 H   0  0  0  0  0  0  0  0  0  0  0  0
   14.8373   -2.4744   24.6949 H   0  0  0  0  0  0  0  0  0  0  0  0
   12.7839   -0.2174   21.6515 H   0  0  0  0  0  0  0  0  0  0  0  0
    5.6529    0.7487   22.0767 H   0  0  0  0  0  0  0  0  0  0  0  0
    3.6388    2.0586   21.6675 H   0  0  0  0  0  0  0  0  0  0  0  0
    2.9822    2.6968   19.3330 H   0  0  0  0  0  0  0  0  0  0  0  0
    4.4111    1.9893   17.4360 H   0  0  0  0  0  0  0  0  0  0  0  0
    7.0614   -6.2836   26.1815 H   0  0  0  0  0  0  0  0  0  0  0  0
    6.3092   -5.2198   24.9451 H   0  0  0  0  0  0  0  0  0  0  0  0
    7.8746   -6.0304   24.6001 H   0  0  0  0  0  0  0  0  0  0  0  0
    7.9313   -5.3239   27.8125 H   0  0  0  0  0  0  0  0  0  0  0  0
    9.3978   -4.3499   27.4560 H   0  0  0  0  0  0  0  0  0  0  0  0
    7.8408   -3.5300   27.8169 H   0  0  0  0  0  0  0  0  0  0  0  0
   10.4369    1.3080   24.0233 H   0  0  0  0  0  0  0  0  0  0  0  0
   11.0815    1.3384   22.3997 H   0  0  0  0  0  0  0  0  0  0  0  0
   10.5413   -0.9955   22.0233 H   0  0  0  0  0  0  0  0  0  0  0  0
    8.0713   -1.6185   21.0737 H   0  0  0  0  0  0  0  0  0  0  0  0
  1  2  2  0  0  0  0
  1  7  1  0  0  0  0
  2 10  1  0  0  0  0
  3  5  2  0  0  0  0
  3  9  1  0  0  0  0
  4  6  1  0  0  0  0
  4  9  2  0  0  0  0
  5 11  1  0  0  0  0
  6 11  2  0  0  0  0
  7 12  2  0  0  0  0
  8 10  2  0  0  0  0
  8 12  1  0  0  0  0
  9 23  1  0  0  0  0
 10 22  1  0  0  0  0
 11 28  1  0  0  0  0
 12 30  1  0  0  0  0
 13 14  2  0  0  0  0
 13 15  1  0  0  0  0
 13 26  1  0  0  0  0
 14 24  1  0  0  0  0
 14 27  1  0  0  0  0
 15 16  2  0  0  0  0
 16 17  1  0  0  0  0
 17 18  2  0  0  0  0
 18 26  1  0  0  0  0
 19 23  1  0  0  0  0
 19 27  1  0  0  0  0
 19 29  2  0  0  0  0
 20 28  1  0  0  0  0
 21 28  1  0  0  0  0
 22 23  1  6  0  0  0
 24 25  2  0  0  0  0
 25 26  1  0  0  0  0
  1 31  1  0  0  0  0
  2 32  1  0  0  0  0
  3 33  1  0  0  0  0
  4 34  1  0  0  0  0
  5 35  1  0  0  0  0
  6 36  1  0  0  0  0
  7 37  1  0  0  0  0
  8 38  1  0  0  0  0
 15 39  1  0  0  0  0
 16 40  1  0  0  0  0
 17 41  1  0  0  0  0
 18 42  1  0  0  0  0
 20 43  1  0  0  0  0
 20 44  1  0  0  0  0
 20 45  1  0  0  0  0
 21 46  1  0  0  0  0
 21 47  1  0  0  0  0
 21 48  1  0  0  0  0
 22 49  1  0  0  0  0
 22 50  1  0  0  0  0
 23 51  1  0  0  0  0
 27 52  1  0  0  0  0
M  END
> <clash_score>
0

> <docking_score>
-6.893577575683594

> <overlap_score>
0.9340449571609497

$$$$
BENZO_257_1
  -OEChem-08222022453D

 54 57  0     1  0  0  0  0  0999 V2000
   14.4830   -0.9237   21.8248 C   0  0  0  0  0  0  0  0  0  0  0  0
   13.9310   -1.3719   23.0248 C   0  0  0  0  0  0  0  0  0  0  0  0
   13.8154    0.0379   21.0662 C   0  0  0  0  0  0  0  0  0  0  0  0
   12.7114   -0.8588   23.4661 C   0  0  0  0  0  0  0  0  0  0  0  0
   12.5958    0.5510   21.5075 C   0  0  0  0  0  0  0  0  0  0  0  0
    9.5890   -2.4950   23.2210 C   0  0  0  0  0  0  0  0  0  0  0  0
    8.2550   -1.0010   24.5520 C   0  0  0  0  0  0  0  0  0  0  0  0
    9.1890   -3.5540   24.0140 C   0  0  0  0  0  0  0  0  0  0  0  0
    7.8700   -2.0610   25.3550 C   0  0  0  0  0  0  0  0  0  0  0  0
   12.0437    0.1027   22.7075 C   0  0  0  0  0  0  0  0  0  0  0  0
    9.1280   -1.2090   23.4870 C   0  0  0  0  0  0  0  0  0  0  0  0
    8.3450   -3.3440   25.0980 C   0  0  0  0  0  0  0  0  0  0  0  0
    6.1460    0.6070   19.9750 C   0  0  0  0  0  0  0  0  0  0  0  0
    7.2710   -0.1460   19.8310 C   0  0  0  0  0  0  0  0  0  0  0  0
    5.3890    1.0010   21.0690 C   0  0  0  0  0  0  0  0  0  0  0  0
    4.2460    1.7520   20.8250 C   0  0  0  0  0  0  0  0  0  0  0  0
    3.8860    2.1050   19.5250 C   0  0  0  0  0  0  0  0  0  0  0  0
    4.6610    1.7170   18.4380 C   0  0  0  0  0  0  0  0  0  0  0  0
    8.2023   -4.5553   27.2977 C   0  0  0  0  0  0  0  0  0  0  0  0
    9.0430    0.2380   21.4940 C   0  0  0  0  0  0  0  0  0  0  0  0
    7.8890   -6.0855   29.2893 C   0  0  0  0  0  0  0  0  0  0  0  0
   10.7220    0.6590   23.1850 C   0  0  0  0  0  0  0  0  0  0  0  0
    7.6346   -5.8715   27.8079 C   0  0  0  0  0  0  0  0  0  0  0  0
    9.5820   -0.1080   22.7000 C   0  0  1  0  0  0  0  0  0  0  0  0
    7.5840   -0.2700   18.5160 N   0  0  0  0  0  0  0  0  0  0  0  0
    6.7100    0.3850   17.8100 N   0  0  0  0  0  0  0  0  0  0  0  0
    5.7970    0.9500   18.6730 N   0  0  0  0  0  0  0  0  0  0  0  0
    7.9771   -4.4057   25.9197 N   0  0  0  0  0  0  0  0  0  0  0  0
    8.0950   -0.7700   20.8440 N   0  0  0  0  0  0  0  0  0  0  0  0
    8.7739   -3.7626   28.0389 O   0  0  0  0  0  0  0  0  0  0  0  0
    9.2950    1.3000   20.9480 O   0  0  0  0  0  0  0  0  0  0  0  0
   15.4334   -1.3223   21.4820 H   0  0  0  0  0  0  0  0  0  0  0  0
   14.4512   -2.1198   23.6162 H   0  0  0  0  0  0  0  0  0  0  0  0
   14.2454    0.3879   20.1325 H   0  0  0  0  0  0  0  0  0  0  0  0
   12.2887   -1.2141   24.4023 H   0  0  0  0  0  0  0  0  0  0  0  0
   12.0827    1.2998   20.9098 H   0  0  0  0  0  0  0  0  0  0  0  0
   10.2695   -2.6718   22.3873 H   0  0  0  0  0  0  0  0  0  0  0  0
    7.8712   -0.0014   24.7587 H   0  0  0  0  0  0  0  0  0  0  0  0
    9.5431   -4.5618   23.7801 H   0  0  0  0  0  0  0  0  0  0  0  0
    7.1923   -1.8823   26.1912 H   0  0  0  0  0  0  0  0  0  0  0  0
    5.6529    0.7487   22.0767 H   0  0  0  0  0  0  0  0  0  0  0  0
    3.6388    2.0586   21.6675 H   0  0  0  0  0  0  0  0  0  0  0  0
    2.9822    2.6968   19.3330 H   0  0  0  0  0  0  0  0  0  0  0  0
    4.4111    1.9893   17.4360 H   0  0  0  0  0  0  0  0  0  0  0  0
    8.9617   -6.0800   29.5089 H   0  0  0  0  0  0  0  0  0  0  0  0
    7.4789   -7.0476   29.6112 H   0  0  0  0  0  0  0  0  0  0  0  0
    7.4201   -5.2966   29.8866 H   0  0  0  0  0  0  0  0  0  0  0  0
   10.7266    0.7141   24.2815 H   0  0  0  0  0  0  0  0  0  0  0  0
   10.6502    1.7003   22.8412 H   0  0  0  0  0  0  0  0  0  0  0  0
    6.5553   -5.8815   27.6173 H   0  0  0  0  0  0  0  0  0  0  0  0
    8.0879   -6.6901   27.2371 H   0  0  0  0  0  0  0  0  0  0  0  0
    8.7027    0.7972   23.4026 H   0  0  0  0  0  0  0  0  0  0  0  0
    7.4774   -5.1800   25.4671 H   0  0  0  0  0  0  0  0  0  0  0  0
    8.0713   -1.6185   21.0737 H   0  0  0  0  0  0  0  0  0  0  0  0
  1  2  1  0  0  0  0
  1  3  2  0  0  0  0
  2  4  2  0  0  0  0
  3  5  1  0  0  0  0
  4 10  1  0  0  0  0
  5 10  2  0  0  0  0
  6  8  2  0  0  0  0
  6 11  1  0  0  0  0
  7  9  1  0  0  0  0
  7 11  2  0  0  0  0
  8 12  1  0  0  0  0
  9 12  2  0  0  0  0
 10 22  1  0  0  0  0
 11 24  1  0  0  0  0
 12 28  1  0  0  0  0
 13 14  2  0  0  0  0
 13 15  1  0  0  0  0
 13 27  1  0  0  0  0
 14 25  1  0  0  0  0
 14 29  1  0  0  0  0
 15 16  2  0  0  0  0
 16 17  1  0  0  0  0
 17 18  2  0  0  0  0
 18 27  1  0  0  0  0
 19 23  1  0  0  0  0
 19 28  1  0  0  0  0
 19 30  2  0  0  0  0
 20 24  1  0  0  0  0
 20 29  1  0  0  0  0
 20 31  2  0  0  0  0
 21 23  1  0  0  0  0
 22 24  1  1  0  0  0
 25 26  2  0  0  0  0
 26 27  1  0  0  0  0
  1 32  1  0  0  0  0
  2 33  1  0  0  0  0
  3 34  1  0  0  0  0
  4 35  1  0  0  0  0
  5 36  1  0  0  0  0
  6 37  1  0  0  0  0
  7 38  1  0  0  0  0
  8 39  1  0  0  0  0
  9 40  1  0  0  0  0
 15 41  1  0  0  0  0
 16 42  1  0  0  0  0
 17 43  1  0  0  0  0
 18 44  1  0  0  0  0
 21 45  1  0  0  0  0
 21 46  1  0  0  0  0
 21 47  1  0  0  0  0
 22 48  1  0  0  0  0
 22 49  1  0  0  0  0
 23 50  1  0  0  0  0
 23 51  1  0  0  0  0
 24 52  1  0  0  0  0
 28 53  1  0  0  0  0
 29 54  1  0  0  0  0
M  END
> <clash_score>
0

> <docking_score>
-7.201107978820801

> <overlap_score>
0.9700944423675537

$$$$
BENZO_257_2
  -OEChem-08222022453D

 54 57  0     1  0  0  0  0  0999 V2000
   14.0137   -1.8398   24.3768 C   0  0  0  0  0  0  0  0  0  0  0  0
   13.0361   -1.4844   25.3061 C   0  0  0  0  0  0  0  0  0  0  0  0
   13.9239   -1.3848   23.0613 C   0  0  0  0  0  0  0  0  0  0  0  0
   11.9686   -0.6740   24.9198 C   0  0  0  0  0  0  0  0  0  0  0  0
   12.8563   -0.5744   22.6750 C   0  0  0  0  0  0  0  0  0  0  0  0
    9.5890   -2.4950   23.2210 C   0  0  0  0  0  0  0  0  0  0  0  0
    8.2550   -1.0010   24.5520 C   0  0  0  0  0  0  0  0  0  0  0  0
    9.1890   -3.5540   24.0140 C   0  0  0  0  0  0  0  0  0  0  0  0
    7.8700   -2.0610   25.3550 C   0  0  0  0  0  0  0  0  0  0  0  0
   11.8786   -0.2190   23.6043 C   0  0  0  0  0  0  0  0  0  0  0  0
    9.1280   -1.2090   23.4870 C   0  0  0  0  0  0  0  0  0  0  0  0
    8.3450   -3.3440   25.0980 C   0  0  0  0  0  0  0  0  0  0  0  0
    6.1460    0.6070   19.9750 C   0  0  0  0  0  0  0  0  0  0  0  0
    7.2710   -0.1460   19.8310 C   0  0  0  0  0  0  0  0  0  0  0  0
    5.3890    1.0010   21.0690 C   0  0  0  0  0  0  0  0  0  0  0  0
    4.2460    1.7520   20.8250 C   0  0  0  0  0  0  0  0  0  0  0  0
    3.8860    2.1050   19.5250 C   0  0  0  0  0  0  0  0  0  0  0  0
    4.6610    1.7170   18.4380 C   0  0  0  0  0  0  0  0  0  0  0  0
    7.6600   -4.3754   27.2874 C   0  0  0  0  0  0  0  0  0  0  0  0
    9.0430    0.2380   21.4940 C   0  0  0  0  0  0  0  0  0  0  0  0
    8.4363   -6.7635   27.6039 C   0  0  0  0  0  0  0  0  0  0  0  0
   10.7220    0.6590   23.1850 C   0  0  0  0  0  0  0  0  0  0  0  0
    7.3108   -5.7640   27.8018 C   0  0  0  0  0  0  0  0  0  0  0  0
    9.5820   -0.1080   22.7000 C   0  0  2  0  0  0  0  0  0  0  0  0
    7.5840   -0.2700   18.5160 N   0  0  0  0  0  0  0  0  0  0  0  0
    6.7100    0.3850   17.8100 N   0  0  0  0  0  0  0  0  0  0  0  0
    5.7970    0.9500   18.6730 N   0  0  0  0  0  0  0  0  0  0  0  0
    7.9771   -4.4057   25.9197 N   0  0  0  0  0  0  0  0  0  0  0  0
    8.0950   -0.7700   20.8440 N   0  0  0  0  0  0  0  0  0  0  0  0
    7.6497   -3.3897   28.0173 O   0  0  0  0  0  0  0  0  0  0  0  0
    9.2950    1.3000   20.9480 O   0  0  0  0  0  0  0  0  0  0  0  0
   14.8456   -2.4698   24.6781 H   0  0  0  0  0  0  0  0  0  0  0  0
   13.1065   -1.8377   26.3307 H   0  0  0  0  0  0  0  0  0  0  0  0
   14.6854   -1.6605   22.3378 H   0  0  0  0  0  0  0  0  0  0  0  0
   11.2114   -0.4022   25.6506 H   0  0  0  0  0  0  0  0  0  0  0  0
   12.7944   -0.2247   21.6479 H   0  0  0  0  0  0  0  0  0  0  0  0
   10.2695   -2.6718   22.3873 H   0  0  0  0  0  0  0  0  0  0  0  0
    7.8712   -0.0014   24.7587 H   0  0  0  0  0  0  0  0  0  0  0  0
    9.5431   -4.5618   23.7801 H   0  0  0  0  0  0  0  0  0  0  0  0
    7.1923   -1.8823   26.1912 H   0  0  0  0  0  0  0  0  0  0  0  0
    5.6529    0.7487   22.0767 H   0  0  0  0  0  0  0  0  0  0  0  0
    3.6388    2.0586   21.6675 H   0  0  0  0  0  0  0  0  0  0  0  0
    2.9822    2.6968   19.3330 H   0  0  0  0  0  0  0  0  0  0  0  0
    4.4111    1.9893   17.4360 H   0  0  0  0  0  0  0  0  0  0  0  0
    8.6963   -6.8583   26.5445 H   0  0  0  0  0  0  0  0  0  0  0  0
    8.1391   -7.7500   27.9727 H   0  0  0  0  0  0  0  0  0  0  0  0
    9.3369   -6.4534   28.1441 H   0  0  0  0  0  0  0  0  0  0  0  0
   10.4369    1.3080   24.0233 H   0  0  0  0  0  0  0  0  0  0  0  0
   11.0815    1.3384   22.3997 H   0  0  0  0  0  0  0  0  0  0  0  0
    7.0718   -5.6894   28.8689 H   0  0  0  0  0  0  0  0  0  0  0  0
    6.4145   -6.1140   27.2767 H   0  0  0  0  0  0  0  0  0  0  0  0
   10.5413   -0.9955   22.0233 H   0  0  0  0  0  0  0  0  0  0  0  0
    7.9294   -5.3301   25.4756 H   0  0  0  0  0  0  0  0  0  0  0  0
    8.0713   -1.6185   21.0737 H   0  0  0  0  0  0  0  0  0  0  0  0
  1  2  1  0  0  0  0
  1  3  2  0  0  0  0
  2  4  2  0  0  0  0
  3  5  1  0  0  0  0
  4 10  1  0  0  0  0
  5 10  2  0  0  0  0
  6  8  2  0  0  0  0
  6 11  1  0  0  0  0
  7  9  1  0  0  0  0
  7 11  2  0  0  0  0
  8 12  1  0  0  0  0
  9 12  2  0  0  0  0
 10 22  1  0  0  0  0
 11 24  1  0  0  0  0
 12 28  1  0  0  0  0
 13 14  2  0  0  0  0
 13 15  1  0  0  0  0
 13 27  1  0  0  0  0
 14 25  1  0  0  0  0
 14 29  1  0  0  0  0
 15 16  2  0  0  0  0
 16 17  1  0  0  0  0
 17 18  2  0  0  0  0
 18 27  1  0  0  0  0
 19 23  1  0  0  0  0
 19 28  1  0  0  0  0
 19 30  2  0  0  0  0
 20 24  1  0  0  0  0
 20 29  1  0  0  0  0
 20 31  2  0  0  0  0
 21 23  1  0  0  0  0
 22 24  1  6  0  0  0
 25 26  2  0  0  0  0
 26 27  1  0  0  0  0
  1 32  1  0  0  0  0
  2 33  1  0  0  0  0
  3 34  1  0  0  0  0
  4 35  1  0  0  0  0
  5 36  1  0  0  0  0
  6 37  1  0  0  0  0
  7 38  1  0  0  0  0
  8 39  1  0  0  0  0
  9 40  1  0  0  0  0
 15 41  1  0  0  0  0
 16 42  1  0  0  0  0
 17 43  1  0  0  0  0
 18 44  1  0  0  0  0
 21 45  1  0  0  0  0
 21 46  1  0  0  0  0
 21 47  1  0  0  0  0
 22 48  1  0  0  0  0
 22 49  1  0  0  0  0
 23 50  1  0  0  0  0
 23 51  1  0  0  0  0
 24 52  1  0  0  0  0
 28 53  1  0  0  0  0
 29 54  1  0  0  0  0
M  END
> <clash_score>
0

> <docking_score>
-7.541962146759033

> <overlap_score>
0.9671679735183716

$$$$
BENZO_256_1
  -OEChem-08222022453D

 51 54  0     1  0  0  0  0  0999 V2000
    9.5890   -2.4950   23.2210 C   0  0  0  0  0  0  0  0  0  0  0  0
    8.2550   -1.0010   24.5520 C   0  0  0  0  0  0  0  0  0  0  0  0
    9.1890   -3.5540   24.0140 C   0  0  0  0  0  0  0  0  0  0  0  0
    7.8700   -2.0610   25.3550 C   0  0  0  0  0  0  0  0  0  0  0  0
   13.1058   -0.2791   23.5772 C   0  0  0  0  0  0  0  0  0  0  0  0
   14.1974   -0.7534   22.8836 C   0  0  0  0  0  0  0  0  0  0  0  0
   12.3642   -0.0940   21.3822 C   0  0  0  0  0  0  0  0  0  0  0  0
    9.1280   -1.2090   23.4870 C   0  0  0  0  0  0  0  0  0  0  0  0
   12.0437    0.1027   22.7075 C   0  0  0  0  0  0  0  0  0  0  0  0
    8.3450   -3.3440   25.0980 C   0  0  0  0  0  0  0  0  0  0  0  0
    6.1460    0.6070   19.9750 C   0  0  0  0  0  0  0  0  0  0  0  0
    7.2710   -0.1460   19.8310 C   0  0  0  0  0  0  0  0  0  0  0  0
    5.3890    1.0010   21.0690 C   0  0  0  0  0  0  0  0  0  0  0  0
    4.2460    1.7520   20.8250 C   0  0  0  0  0  0  0  0  0  0  0  0
    3.8860    2.1050   19.5250 C   0  0  0  0  0  0  0  0  0  0  0  0
    4.6610    1.7170   18.4380 C   0  0  0  0  0  0  0  0  0  0  0  0
    8.2023   -4.5553   27.2977 C   0  0  0  0  0  0  0  0  0  0  0  0
    9.0430    0.2380   21.4940 C   0  0  0  0  0  0  0  0  0  0  0  0
    7.8890   -6.0855   29.2893 C   0  0  0  0  0  0  0  0  0  0  0  0
   10.7220    0.6590   23.1850 C   0  0  0  0  0  0  0  0  0  0  0  0
    7.6346   -5.8715   27.8079 C   0  0  0  0  0  0  0  0  0  0  0  0
    9.5820   -0.1080   22.7000 C   0  0  1  0  0  0  0  0  0  0  0  0
    7.5840   -0.2700   18.5160 N   0  0  0  0  0  0  0  0  0  0  0  0
    6.7100    0.3850   17.8100 N   0  0  0  0  0  0  0  0  0  0  0  0
    5.7970    0.9500   18.6730 N   0  0  0  0  0  0  0  0  0  0  0  0
    7.9771   -4.4057   25.9197 N   0  0  0  0  0  0  0  0  0  0  0  0
    8.0950   -0.7700   20.8440 N   0  0  0  0  0  0  0  0  0  0  0  0
    8.7739   -3.7626   28.0389 O   0  0  0  0  0  0  0  0  0  0  0  0
    9.2950    1.3000   20.9480 O   0  0  0  0  0  0  0  0  0  0  0  0
   13.9398   -0.7369   21.1908 S   0  0  0  0  0  0  0  0  0  0  0  0
   10.2695   -2.6718   22.3873 H   0  0  0  0  0  0  0  0  0  0  0  0
    7.8712   -0.0014   24.7587 H   0  0  0  0  0  0  0  0  0  0  0  0
    9.5431   -4.5618   23.7801 H   0  0  0  0  0  0  0  0  0  0  0  0
    7.1923   -1.8823   26.1912 H   0  0  0  0  0  0  0  0  0  0  0  0
   13.0750   -0.2107   24.6573 H   0  0  0  0  0  0  0  0  0  0  0  0
   15.1341   -1.1080   23.2899 H   0  0  0  0  0  0  0  0  0  0  0  0
   11.7521    0.1087   20.5143 H   0  0  0  0  0  0  0  0  0  0  0  0
    5.6529    0.7487   22.0767 H   0  0  0  0  0  0  0  0  0  0  0  0
    3.6388    2.0586   21.6675 H   0  0  0  0  0  0  0  0  0  0  0  0
    2.9822    2.6968   19.3330 H   0  0  0  0  0  0  0  0  0  0  0  0
    4.4111    1.9893   17.4360 H   0  0  0  0  0  0  0  0  0  0  0  0
    8.9617   -6.0800   29.5089 H   0  0  0  0  0  0  0  0  0  0  0  0
    7.4789   -7.0476   29.6112 H   0  0  0  0  0  0  0  0  0  0  0  0
    7.4201   -5.2966   29.8866 H   0  0  0  0  0  0  0  0  0  0  0  0
   10.7266    0.7141   24.2815 H   0  0  0  0  0  0  0  0  0  0  0  0
   10.6502    1.7003   22.8412 H   0  0  0  0  0  0  0  0  0  0  0  0
    6.5553   -5.8815   27.6173 H   0  0  0  0  0  0  0  0  0  0  0  0
    8.0879   -6.6901   27.2371 H   0  0  0  0  0  0  0  0  0  0  0  0
    8.7027    0.7972   23.4026 H   0  0  0  0  0  0  0  0  0  0  0  0
    7.4774   -5.1800   25.4671 H   0  0  0  0  0  0  0  0  0  0  0  0
    8.0713   -1.6185   21.0737 H   0  0  0  0  0  0  0  0  0  0  0  0
  1  3  2  0  0  0  0
  1  8  1  0  0  0  0
  2  4  1  0  0  0  0
  2  8  2  0  0  0  0
  3 10  1  0  0  0  0
  4 10  2  0  0  0  0
  5  6  2  0  0  0  0
  5  9  1  0  0  0  0
  6 30  1  0  0  0  0
  7  9  2  0  0  0  0
  7 30  1  0  0  0  0
  8 22  1  0  0  0  0
  9 20  1  0  0  0  0
 10 26  1  0  0  0  0
 11 12  2  0  0  0  0
 11 13  1  0  0  0  0
 11 25  1  0  0  0  0
 12 23  1  0  0  0  0
 12 27  1  0  0  0  0
 13 14  2  0  0  0  0
 14 15  1  0  0  0  0
 15 16  2  0  0  0  0
 16 25  1  0  0  0  0
 17 21  1  0  0  0  0
 17 26  1  0  0  0  0
 17 28  2  0  0  0  0
 18 22  1  0  0  0  0
 18 27  1  0  0  0  0
 18 29  2  0  0  0  0
 19 21  1  0  0  0  0
 20 22  1  1  0  0  0
 23 24  2  0  0  0  0
 24 25  1  0  0  0  0
  1 31  1  0  0  0  0
  2 32  1  0  0  0  0
  3 33  1  0  0  0  0
  4 34  1  0  0  0  0
  5 35  1  0  0  0  0
  6 36  1  0  0  0  0
  7 37  1  0  0  0  0
 13 38  1  0  0  0  0
 14 39  1  0  0  0  0
 15 40  1  0  0  0  0
 16 41  1  0  0  0  0
 19 42  1  0  0  0  0
 19 43  1  0  0  0  0
 19 44  1  0  0  0  0
 20 45  1  0  0  0  0
 20 46  1  0  0  0  0
 21 47  1  0  0  0  0
 21 48  1  0  0  0  0
 22 49  1  0  0  0  0
 26 50  1  0  0  0  0
 27 51  1  0  0  0  0
M  END
> <clash_score>
0

> <docking_score>
-7.260231971740723

> <overlap_score>
0.9602521657943726

$$$$
BENZO_256_2
  -OEChem-08222022453D

 51 54  0     1  0  0  0  0  0999 V2000
    9.5890   -2.4950   23.2210 C   0  0  0  0  0  0  0  0  0  0  0  0
    8.2550   -1.0010   24.5520 C   0  0  0  0  0  0  0  0  0  0  0  0
    9.1890   -3.5540   24.0140 C   0  0  0  0  0  0  0  0  0  0  0  0
    7.8700   -2.0610   25.3550 C   0  0  0  0  0  0  0  0  0  0  0  0
   12.0393    0.1762   25.3640 C   0  0  0  0  0  0  0  0  0  0  0  0
   12.9049   -0.7459   25.9099 C   0  0  0  0  0  0  0  0  0  0  0  0
   12.2520   -1.3384   23.6137 C   0  0  0  0  0  0  0  0  0  0  0  0
    9.1280   -1.2090   23.4870 C   0  0  0  0  0  0  0  0  0  0  0  0
   11.6609   -0.1670   24.0339 C   0  0  0  0  0  0  0  0  0  0  0  0
    8.3450   -3.3440   25.0980 C   0  0  0  0  0  0  0  0  0  0  0  0
    6.1460    0.6070   19.9750 C   0  0  0  0  0  0  0  0  0  0  0  0
    7.2710   -0.1460   19.8310 C   0  0  0  0  0  0  0  0  0  0  0  0
    5.3890    1.0010   21.0690 C   0  0  0  0  0  0  0  0  0  0  0  0
    4.2460    1.7520   20.8250 C   0  0  0  0  0  0  0  0  0  0  0  0
    3.8860    2.1050   19.5250 C   0  0  0  0  0  0  0  0  0  0  0  0
    4.6610    1.7170   18.4380 C   0  0  0  0  0  0  0  0  0  0  0  0
    7.1413   -4.3810   27.0479 C   0  0  0  0  0  0  0  0  0  0  0  0
    9.0430    0.2380   21.4940 C   0  0  0  0  0  0  0  0  0  0  0  0
    8.0772   -6.0676   28.6865 C   0  0  0  0  0  0  0  0  0  0  0  0
   10.7220    0.6590   23.1850 C   0  0  0  0  0  0  0  0  0  0  0  0
    7.0010   -5.7673   27.6587 C   0  0  0  0  0  0  0  0  0  0  0  0
    9.5820   -0.1080   22.7000 C   0  0  2  0  0  0  0  0  0  0  0  0
    7.5840   -0.2700   18.5160 N   0  0  0  0  0  0  0  0  0  0  0  0
    6.7100    0.3850   17.8100 N   0  0  0  0  0  0  0  0  0  0  0  0
    5.7970    0.9500   18.6730 N   0  0  0  0  0  0  0  0  0  0  0  0
    7.9771   -4.4057   25.9197 N   0  0  0  0  0  0  0  0  0  0  0  0
    8.0950   -0.7700   20.8440 N   0  0  0  0  0  0  0  0  0  0  0  0
    6.5743   -3.4014   27.5207 O   0  0  0  0  0  0  0  0  0  0  0  0
    9.2950    1.3000   20.9480 O   0  0  0  0  0  0  0  0  0  0  0  0
   13.2582   -2.0191   24.8206 S   0  0  0  0  0  0  0  0  0  0  0  0
   10.2695   -2.6718   22.3873 H   0  0  0  0  0  0  0  0  0  0  0  0
    7.8712   -0.0014   24.7587 H   0  0  0  0  0  0  0  0  0  0  0  0
    9.5431   -4.5618   23.7801 H   0  0  0  0  0  0  0  0  0  0  0  0
    7.1923   -1.8823   26.1912 H   0  0  0  0  0  0  0  0  0  0  0  0
   11.6967    1.0541   25.8970 H   0  0  0  0  0  0  0  0  0  0  0  0
   13.3474   -0.7326   26.8960 H   0  0  0  0  0  0  0  0  0  0  0  0
   12.1448   -1.8296   22.6565 H   0  0  0  0  0  0  0  0  0  0  0  0
    5.6529    0.7487   22.0767 H   0  0  0  0  0  0  0  0  0  0  0  0
    3.6388    2.0586   21.6675 H   0  0  0  0  0  0  0  0  0  0  0  0
    2.9822    2.6968   19.3330 H   0  0  0  0  0  0  0  0  0  0  0  0
    4.4111    1.9893   17.4360 H   0  0  0  0  0  0  0  0  0  0  0  0
    9.0755   -6.0011   28.2415 H   0  0  0  0  0  0  0  0  0  0  0  0
    7.9488   -7.0771   29.0890 H   0  0  0  0  0  0  0  0  0  0  0  0
    8.0335   -5.3588   29.5201 H   0  0  0  0  0  0  0  0  0  0  0  0
   10.3958    1.5383   23.7557 H   0  0  0  0  0  0  0  0  0  0  0  0
   11.2964    1.0584   22.3376 H   0  0  0  0  0  0  0  0  0  0  0  0
    6.0144   -5.8409   28.1306 H   0  0  0  0  0  0  0  0  0  0  0  0
    7.0481   -6.5087   26.8528 H   0  0  0  0  0  0  0  0  0  0  0  0
   10.5413   -0.9955   22.0233 H   0  0  0  0  0  0  0  0  0  0  0  0
    8.3618   -5.3256   25.6750 H   0  0  0  0  0  0  0  0  0  0  0  0
    8.0713   -1.6185   21.0737 H   0  0  0  0  0  0  0  0  0  0  0  0
  1  3  2  0  0  0  0
  1  8  1  0  0  0  0
  2  4  1  0  0  0  0
  2  8  2  0  0  0  0
  3 10  1  0  0  0  0
  4 10  2  0  0  0  0
  5  6  2  0  0  0  0
  5  9  1  0  0  0  0
  6 30  1  0  0  0  0
  7  9  2  0  0  0  0
  7 30  1  0  0  0  0
  8 22  1  0  0  0  0
  9 20  1  0  0  0  0
 10 26  1  0  0  0  0
 11 12  2  0  0  0  0
 11 13  1  0  0  0  0
 11 25  1  0  0  0  0
 12 23  1  0  0  0  0
 12 27  1  0  0  0  0
 13 14  2  0  0  0  0
 14 15  1  0  0  0  0
 15 16  2  0  0  0  0
 16 25  1  0  0  0  0
 17 21  1  0  0  0  0
 17 26  1  0  0  0  0
 17 28  2  0  0  0  0
 18 22  1  0  0  0  0
 18 27  1  0  0  0  0
 18 29  2  0  0  0  0
 19 21  1  0  0  0  0
 20 22  1  6  0  0  0
 23 24  2  0  0  0  0
 24 25  1  0  0  0  0
  1 31  1  0  0  0  0
  2 32  1  0  0  0  0
  3 33  1  0  0  0  0
  4 34  1  0  0  0  0
  5 35  1  0  0  0  0
  6 36  1  0  0  0  0
  7 37  1  0  0  0  0
 13 38  1  0  0  0  0
 14 39  1  0  0  0  0
 15 40  1  0  0  0  0
 16 41  1  0  0  0  0
 19 42  1  0  0  0  0
 19 43  1  0  0  0  0
 19 44  1  0  0  0  0
 20 45  1  0  0  0  0
 20 46  1  0  0  0  0
 21 47  1  0  0  0  0
 21 48  1  0  0  0  0
 22 49  1  0  0  0  0
 26 50  1  0  0  0  0
 27 51  1  0  0  0  0
M  END
> <clash_score>
0

> <docking_score>
-5.050717830657959

> <overlap_score>
0.8939521312713623

$$$$
BENZO_260_1
  -OEChem-08222022463D

 56 60  0     1  0  0  0  0  0999 V2000
    9.5890   -2.4950   23.2210 C   0  0  0  0  0  0  0  0  0  0  0  0
    8.2550   -1.0010   24.5520 C   0  0  0  0  0  0  0  0  0  0  0  0
    9.1890   -3.5540   24.0140 C   0  0  0  0  0  0  0  0  0  0  0  0
    7.8700   -2.0610   25.3550 C   0  0  0  0  0  0  0  0  0  0  0  0
   12.0564    0.2022   25.3592 C   0  0  0  0  0  0  0  0  0  0  0  0
   12.9336   -0.7085   25.9059 C   0  0  0  0  0  0  0  0  0  0  0  0
   12.2727   -1.3216   23.6174 C   0  0  0  0  0  0  0  0  0  0  0  0
    9.1280   -1.2090   23.4870 C   0  0  0  0  0  0  0  0  0  0  0  0
   11.6734   -0.1530   24.0335 C   0  0  0  0  0  0  0  0  0  0  0  0
    8.3450   -3.3440   25.0980 C   0  0  0  0  0  0  0  0  0  0  0  0
    6.1460    0.6070   19.9750 C   0  0  0  0  0  0  0  0  0  0  0  0
    7.2710   -0.1460   19.8310 C   0  0  0  0  0  0  0  0  0  0  0  0
    5.3890    1.0010   21.0690 C   0  0  0  0  0  0  0  0  0  0  0  0
    4.2460    1.7520   20.8250 C   0  0  0  0  0  0  0  0  0  0  0  0
    3.8860    2.1050   19.5250 C   0  0  0  0  0  0  0  0  0  0  0  0
    4.6610    1.7170   18.4380 C   0  0  0  0  0  0  0  0  0  0  0  0
    9.0430    0.2380   21.4940 C   0  0  0  0  0  0  0  0  0  0  0  0
    7.9496   -4.9537   28.7345 C   0  0  0  0  0  0  0  0  0  0  0  0
    6.8919   -4.0607   28.0818 C   0  0  0  0  0  0  0  0  0  0  0  0
    9.2470   -4.9693   27.9230 C   0  0  0  0  0  0  0  0  0  0  0  0
    6.6889   -4.4385   26.6147 C   0  0  0  0  0  0  0  0  0  0  0  0
    8.9871   -5.3207   26.4549 C   0  0  0  0  0  0  0  0  0  0  0  0
   10.7220    0.6590   23.1850 C   0  0  0  0  0  0  0  0  0  0  0  0
    9.5820   -0.1080   22.7000 C   0  0  1  0  0  0  0  0  0  0  0  0
    7.5840   -0.2700   18.5160 N   0  0  0  0  0  0  0  0  0  0  0  0
    6.7100    0.3850   17.8100 N   0  0  0  0  0  0  0  0  0  0  0  0
    5.7970    0.9500   18.6730 N   0  0  0  0  0  0  0  0  0  0  0  0
    7.9769   -4.4027   25.9163 N   0  0  0  0  0  0  0  0  0  0  0  0
    8.0950   -0.7700   20.8440 N   0  0  0  0  0  0  0  0  0  0  0  0
    9.2950    1.3000   20.9480 O   0  0  0  0  0  0  0  0  0  0  0  0
   13.2921   -1.9853   24.8226 S   0  0  0  0  0  0  0  0  0  0  0  0
   10.2684   -2.6719   22.3867 H   0  0  0  0  0  0  0  0  0  0  0  0
    7.8717   -0.0016   24.7596 H   0  0  0  0  0  0  0  0  0  0  0  0
    9.5443   -4.5616   23.7817 H   0  0  0  0  0  0  0  0  0  0  0  0
    7.1921   -1.8821   26.1908 H   0  0  0  0  0  0  0  0  0  0  0  0
   11.7089    1.0804   25.8886 H   0  0  0  0  0  0  0  0  0  0  0  0
   13.3816   -0.6847   26.8892 H   0  0  0  0  0  0  0  0  0  0  0  0
   12.1644   -1.8199   22.6640 H   0  0  0  0  0  0  0  0  0  0  0  0
    5.6529    0.7487   22.0767 H   0  0  0  0  0  0  0  0  0  0  0  0
    3.6388    2.0586   21.6675 H   0  0  0  0  0  0  0  0  0  0  0  0
    2.9822    2.6968   19.3330 H   0  0  0  0  0  0  0  0  0  0  0  0
    4.4111    1.9893   17.4360 H   0  0  0  0  0  0  0  0  0  0  0  0
    8.1558   -4.5961   29.7550 H   0  0  0  0  0  0  0  0  0  0  0  0
    7.5611   -5.9778   28.8324 H   0  0  0  0  0  0  0  0  0  0  0  0
    5.9459   -4.1594   28.6209 H   0  0  0  0  0  0  0  0  0  0  0  0
    7.2011   -3.0160   28.1536 H   0  0  0  0  0  0  0  0  0  0  0  0
    9.7290   -3.9880   27.9846 H   0  0  0  0  0  0  0  0  0  0  0  0
    9.9437   -5.6964   28.3562 H   0  0  0  0  0  0  0  0  0  0  0  0
    6.2543   -5.4402   26.5659 H   0  0  0  0  0  0  0  0  0  0  0  0
    5.9909   -3.7397   26.1451 H   0  0  0  0  0  0  0  0  0  0  0  0
    9.9128   -5.2367   25.8843 H   0  0  0  0  0  0  0  0  0  0  0  0
    8.6365   -6.3517   26.3987 H   0  0  0  0  0  0  0  0  0  0  0  0
   10.3911    1.5389   23.7520 H   0  0  0  0  0  0  0  0  0  0  0  0
   11.2877    1.0581   22.3316 H   0  0  0  0  0  0  0  0  0  0  0  0
   10.5438   -0.9939   22.0202 H   0  0  0  0  0  0  0  0  0  0  0  0
    8.0917   -1.6083   21.0911 H   0  0  0  0  0  0  0  0  0  0  0  0
  1  3  2  0  0  0  0
  1  8  1  0  0  0  0
  2  4  1  0  0  0  0
  2  8  2  0  0  0  0
  3 10  1  0  0  0  0
  4 10  2  0  0  0  0
  5  6  2  0  0  0  0
  5  9  1  0  0  0  0
  6 31  1  0  0  0  0
  7  9  2  0  0  0  0
  7 31  1  0  0  0  0
  8 24  1  0  0  0  0
  9 23  1  0  0  0  0
 10 28  1  0  0  0  0
 11 12  2  0  0  0  0
 11 13  1  0  0  0  0
 11 27  1  0  0  0  0
 12 25  1  0  0  0  0
 12 29  1  0  0  0  0
 13 14  2  0  0  0  0
 14 15  1  0  0  0  0
 15 16  2  0  0  0  0
 16 27  1  0  0  0  0
 17 24  1  1  0  0  0
 17 29  1  0  0  0  0
 17 30  2  0  0  0  0
 18 19  1  0  0  0  0
 18 20  1  0  0  0  0
 19 21  1  0  0  0  0
 20 22  1  0  0  0  0
 21 28  1  0  0  0  0
 22 28  1  0  0  0  0
 23 24  1  0  0  0  0
 25 26  2  0  0  0  0
 26 27  1  0  0  0  0
  1 32  1  0  0  0  0
  2 33  1  0  0  0  0
  3 34  1  0  0  0  0
  4 35  1  0  0  0  0
  5 36  1  0  0  0  0
  6 37  1  0  0  0  0
  7 38  1  0  0  0  0
 13 39  1  0  0  0  0
 14 40  1  0  0  0  0
 15 41  1  0  0  0  0
 16 42  1  0  0  0  0
 18 43  1  0  0  0  0
 18 44  1  0  0  0  0
 19 45  1  0  0  0  0
 19 46  1  0  0  0  0
 20 47  1  0  0  0  0
 20 48  1  0  0  0  0
 21 49  1  0  0  0  0
 21 50  1  0  0  0  0
 22 51  1  0  0  0  0
 22 52  1  0  0  0  0
 23 53  1  0  0  0  0
 23 54  1  0  0  0  0
 24 55  1  0  0  0  0
 29 56  1  0  0  0  0
M  END
> <clash_score>
0

> <docking_score>
-6.129159927368164

> <overlap_score>
0.9137670397758484

$$$$
BENZO_261_1
  -OEChem-08222022463D

 59 63  0     1  0  0  0  0  0999 V2000
   14.0446   -1.7964   24.3813 C   0  0  0  0  0  0  0  0  0  0  0  0
   13.0634   -1.4503   25.3102 C   0  0  0  0  0  0  0  0  0  0  0  0
   13.9484   -1.3461   23.0646 C   0  0  0  0  0  0  0  0  0  0  0  0
   11.9858   -0.6540   24.9225 C   0  0  0  0  0  0  0  0  0  0  0  0
   12.8708   -0.5498   22.6769 C   0  0  0  0  0  0  0  0  0  0  0  0
    9.5890   -2.4950   23.2210 C   0  0  0  0  0  0  0  0  0  0  0  0
    8.2550   -1.0010   24.5520 C   0  0  0  0  0  0  0  0  0  0  0  0
    9.1890   -3.5540   24.0140 C   0  0  0  0  0  0  0  0  0  0  0  0
    7.8700   -2.0610   25.3550 C   0  0  0  0  0  0  0  0  0  0  0  0
   11.8895   -0.2037   23.6058 C   0  0  0  0  0  0  0  0  0  0  0  0
    9.1280   -1.2090   23.4870 C   0  0  0  0  0  0  0  0  0  0  0  0
    8.3450   -3.3440   25.0980 C   0  0  0  0  0  0  0  0  0  0  0  0
    6.1460    0.6070   19.9750 C   0  0  0  0  0  0  0  0  0  0  0  0
    7.2710   -0.1460   19.8310 C   0  0  0  0  0  0  0  0  0  0  0  0
    5.3890    1.0010   21.0690 C   0  0  0  0  0  0  0  0  0  0  0  0
    4.2460    1.7520   20.8250 C   0  0  0  0  0  0  0  0  0  0  0  0
    3.8860    2.1050   19.5250 C   0  0  0  0  0  0  0  0  0  0  0  0
    4.6610    1.7170   18.4380 C   0  0  0  0  0  0  0  0  0  0  0  0
    9.0430    0.2380   21.4940 C   0  0  0  0  0  0  0  0  0  0  0  0
    7.9496   -4.9537   28.7345 C   0  0  0  0  0  0  0  0  0  0  0  0
    6.8919   -4.0607   28.0818 C   0  0  0  0  0  0  0  0  0  0  0  0
    9.2470   -4.9693   27.9230 C   0  0  0  0  0  0  0  0  0  0  0  0
    6.6889   -4.4385   26.6147 C   0  0  0  0  0  0  0  0  0  0  0  0
    8.9871   -5.3207   26.4549 C   0  0  0  0  0  0  0  0  0  0  0  0
   10.7220    0.6590   23.1850 C   0  0  0  0  0  0  0  0  0  0  0  0
    9.5820   -0.1080   22.7000 C   0  0  1  0  0  0  0  0  0  0  0  0
    7.5840   -0.2700   18.5160 N   0  0  0  0  0  0  0  0  0  0  0  0
    6.7100    0.3850   17.8100 N   0  0  0  0  0  0  0  0  0  0  0  0
    5.7970    0.9500   18.6730 N   0  0  0  0  0  0  0  0  0  0  0  0
    7.9769   -4.4027   25.9163 N   0  0  0  0  0  0  0  0  0  0  0  0
    8.0950   -0.7700   20.8440 N   0  0  0  0  0  0  0  0  0  0  0  0
    9.2950    1.3000   20.9480 O   0  0  0  0  0  0  0  0  0  0  0  0
   14.8843   -2.4154   24.6836 H   0  0  0  0  0  0  0  0  0  0  0  0
   13.1388   -1.8000   26.3358 H   0  0  0  0  0  0  0  0  0  0  0  0
   14.7127   -1.6145   22.3413 H   0  0  0  0  0  0  0  0  0  0  0  0
   11.2259   -0.3895   25.6531 H   0  0  0  0  0  0  0  0  0  0  0  0
   12.8039   -0.2037   21.6488 H   0  0  0  0  0  0  0  0  0  0  0  0
   10.2684   -2.6719   22.3867 H   0  0  0  0  0  0  0  0  0  0  0  0
    7.8717   -0.0016   24.7596 H   0  0  0  0  0  0  0  0  0  0  0  0
    9.5443   -4.5616   23.7817 H   0  0  0  0  0  0  0  0  0  0  0  0
    7.1921   -1.8821   26.1908 H   0  0  0  0  0  0  0  0  0  0  0  0
    5.6529    0.7487   22.0767 H   0  0  0  0  0  0  0  0  0  0  0  0
    3.6388    2.0586   21.6675 H   0  0  0  0  0  0  0  0  0  0  0  0
    2.9822    2.6968   19.3330 H   0  0  0  0  0  0  0  0  0  0  0  0
    4.4111    1.9893   17.4360 H   0  0  0  0  0  0  0  0  0  0  0  0
    8.1558   -4.5961   29.7550 H   0  0  0  0  0  0  0  0  0  0  0  0
    7.5611   -5.9778   28.8324 H   0  0  0  0  0  0  0  0  0  0  0  0
    5.9459   -4.1594   28.6209 H   0  0  0  0  0  0  0  0  0  0  0  0
    7.2011   -3.0160   28.1536 H   0  0  0  0  0  0  0  0  0  0  0  0
    9.7290   -3.9880   27.9846 H   0  0  0  0  0  0  0  0  0  0  0  0
    9.9437   -5.6964   28.3562 H   0  0  0  0  0  0  0  0  0  0  0  0
    6.2543   -5.4402   26.5659 H   0  0  0  0  0  0  0  0  0  0  0  0
    5.9909   -3.7397   26.1451 H   0  0  0  0  0  0  0  0  0  0  0  0
    9.9128   -5.2367   25.8843 H   0  0  0  0  0  0  0  0  0  0  0  0
    8.6365   -6.3517   26.3987 H   0  0  0  0  0  0  0  0  0  0  0  0
   10.4315    1.3089   24.0208 H   0  0  0  0  0  0  0  0  0  0  0  0
   11.0719    1.3385   22.3955 H   0  0  0  0  0  0  0  0  0  0  0  0
   10.5438   -0.9939   22.0202 H   0  0  0  0  0  0  0  0  0  0  0  0
    8.0917   -1.6083   21.0911 H   0  0  0  0  0  0  0  0  0  0  0  0
  1  2  1  0  0  0  0
  1  3  2  0  0  0  0
  2  4  2  0  0  0  0
  3  5  1  0  0  0  0
  4 10  1  0  0  0  0
  5 10  2  0  0  0  0
  6  8  2  0  0  0  0
  6 11  1  0  0  0  0
  7  9  1  0  0  0  0
  7 11  2  0  0  0  0
  8 12  1  0  0  0  0
  9 12  2  0  0  0  0
 10 25  1  0  0  0  0
 11 26  1  0  0  0  0
 12 30  1  0  0  0  0
 13 14  2  0  0  0  0
 13 15  1  0  0  0  0
 13 29  1  0  0  0  0
 14 27  1  0  0  0  0
 14 31  1  0  0  0  0
 15 16  2  0  0  0  0
 16 17  1  0  0  0  0
 17 18  2  0  0  0  0
 18 29  1  0  0  0  0
 19 26  1  1  0  0  0
 19 31  1  0  0  0  0
 19 32  2  0  0  0  0
 20 21  1  0  0  0  0
 20 22  1  0  0  0  0
 21 23  1  0  0  0  0
 22 24  1  0  0  0  0
 23 30  1  0  0  0  0
 24 30  1  0  0  0  0
 25 26  1  0  0  0  0
 27 28  2  0  0  0  0
 28 29  1  0  0  0  0
  1 33  1  0  0  0  0
  2 34  1  0  0  0  0
  3 35  1  0  0  0  0
  4 36  1  0  0  0  0
  5 37  1  0  0  0  0
  6 38  1  0  0  0  0
  7 39  1  0  0  0  0
  8 40  1  0  0  0  0
  9 41  1  0  0  0  0
 15 42  1  0  0  0  0
 16 43  1  0  0  0  0
 17 44  1  0  0  0  0
 18 45  1  0  0  0  0
 20 46  1  0  0  0  0
 20 47  1  0  0  0  0
 21 48  1  0  0  0  0
 21 49  1  0  0  0  0
 22 50  1  0  0  0  0
 22 51  1  0  0  0  0
 23 52  1  0  0  0  0
 23 53  1  0  0  0  0
 24 54  1  0  0  0  0
 24 55  1  0  0  0  0
 25 56  1  0  0  0  0
 25 57  1  0  0  0  0
 26 58  1  0  0  0  0
 31 59  1  0  0  0  0
M  END
> <clash_score>
0

> <docking_score>
-8.320791244506836

> <overlap_score>
0.9715715050697327

$$$$
BENZO_260_2
  -OEChem-08222022463D

 56 60  0     1  0  0  0  0  0999 V2000
    9.5890   -2.4950   23.2210 C   0  0  0  0  0  0  0  0  0  0  0  0
    8.2550   -1.0010   24.5520 C   0  0  0  0  0  0  0  0  0  0  0  0
    9.1890   -3.5540   24.0140 C   0  0  0  0  0  0  0  0  0  0  0  0
    7.8700   -2.0610   25.3550 C   0  0  0  0  0  0  0  0  0  0  0  0
   13.1119   -0.2538   23.5994 C   0  0  0  0  0  0  0  0  0  0  0  0
   14.2134   -0.7202   22.9163 C   0  0  0  0  0  0  0  0  0  0  0  0
   12.3853   -0.0855   21.3980 C   0  0  0  0  0  0  0  0  0  0  0  0
    9.1280   -1.2090   23.4870 C   0  0  0  0  0  0  0  0  0  0  0  0
   12.0528    0.1138   22.7200 C   0  0  0  0  0  0  0  0  0  0  0  0
    8.3450   -3.3440   25.0980 C   0  0  0  0  0  0  0  0  0  0  0  0
    6.1460    0.6070   19.9750 C   0  0  0  0  0  0  0  0  0  0  0  0
    7.2710   -0.1460   19.8310 C   0  0  0  0  0  0  0  0  0  0  0  0
    5.3890    1.0010   21.0690 C   0  0  0  0  0  0  0  0  0  0  0  0
    4.2460    1.7520   20.8250 C   0  0  0  0  0  0  0  0  0  0  0  0
    3.8860    2.1050   19.5250 C   0  0  0  0  0  0  0  0  0  0  0  0
    4.6610    1.7170   18.4380 C   0  0  0  0  0  0  0  0  0  0  0  0
    9.0430    0.2380   21.4940 C   0  0  0  0  0  0  0  0  0  0  0  0
    7.9496   -4.9537   28.7345 C   0  0  0  0  0  0  0  0  0  0  0  0
    6.8919   -4.0607   28.0818 C   0  0  0  0  0  0  0  0  0  0  0  0
    9.2470   -4.9693   27.9230 C   0  0  0  0  0  0  0  0  0  0  0  0
    6.6889   -4.4385   26.6147 C   0  0  0  0  0  0  0  0  0  0  0  0
    8.9871   -5.3207   26.4549 C   0  0  0  0  0  0  0  0  0  0  0  0
   10.7220    0.6590   23.1850 C   0  0  0  0  0  0  0  0  0  0  0  0
    9.5820   -0.1080   22.7000 C   0  0  2  0  0  0  0  0  0  0  0  0
    7.5840   -0.2700   18.5160 N   0  0  0  0  0  0  0  0  0  0  0  0
    6.7100    0.3850   17.8100 N   0  0  0  0  0  0  0  0  0  0  0  0
    5.7970    0.9500   18.6730 N   0  0  0  0  0  0  0  0  0  0  0  0
    7.9769   -4.4027   25.9163 N   0  0  0  0  0  0  0  0  0  0  0  0
    8.0950   -0.7700   20.8440 N   0  0  0  0  0  0  0  0  0  0  0  0
    9.2950    1.3000   20.9480 O   0  0  0  0  0  0  0  0  0  0  0  0
   13.9685   -0.7136   21.2215 S   0  0  0  0  0  0  0  0  0  0  0  0
   10.2684   -2.6719   22.3867 H   0  0  0  0  0  0  0  0  0  0  0  0
    7.8717   -0.0016   24.7596 H   0  0  0  0  0  0  0  0  0  0  0  0
    9.5443   -4.5616   23.7817 H   0  0  0  0  0  0  0  0  0  0  0  0
    7.1921   -1.8821   26.1908 H   0  0  0  0  0  0  0  0  0  0  0  0
   13.0722   -0.1810   24.6790 H   0  0  0  0  0  0  0  0  0  0  0  0
   15.1504   -1.0638   23.3312 H   0  0  0  0  0  0  0  0  0  0  0  0
   11.7779    0.1074   20.5246 H   0  0  0  0  0  0  0  0  0  0  0  0
    5.6529    0.7487   22.0767 H   0  0  0  0  0  0  0  0  0  0  0  0
    3.6388    2.0586   21.6675 H   0  0  0  0  0  0  0  0  0  0  0  0
    2.9822    2.6968   19.3330 H   0  0  0  0  0  0  0  0  0  0  0  0
    4.4111    1.9893   17.4360 H   0  0  0  0  0  0  0  0  0  0  0  0
    8.1558   -4.5961   29.7550 H   0  0  0  0  0  0  0  0  0  0  0  0
    7.5611   -5.9778   28.8324 H   0  0  0  0  0  0  0  0  0  0  0  0
    5.9459   -4.1594   28.6209 H   0  0  0  0  0  0  0  0  0  0  0  0
    7.2011   -3.0160   28.1536 H   0  0  0  0  0  0  0  0  0  0  0  0
    9.7290   -3.9880   27.9846 H   0  0  0  0  0  0  0  0  0  0  0  0
    9.9437   -5.6964   28.3562 H   0  0  0  0  0  0  0  0  0  0  0  0
    6.2543   -5.4402   26.5659 H   0  0  0  0  0  0  0  0  0  0  0  0
    5.9909   -3.7397   26.1451 H   0  0  0  0  0  0  0  0  0  0  0  0
    9.9128   -5.2367   25.8843 H   0  0  0  0  0  0  0  0  0  0  0  0
    8.6365   -6.3517   26.3987 H   0  0  0  0  0  0  0  0  0  0  0  0
   10.7177    0.7189   24.2812 H   0  0  0  0  0  0  0  0  0  0  0  0
   10.6426    1.6980   22.8361 H   0  0  0  0  0  0  0  0  0  0  0  0
    8.7036    0.8022   23.4008 H   0  0  0  0  0  0  0  0  0  0  0  0
    8.0917   -1.6083   21.0911 H   0  0  0  0  0  0  0  0  0  0  0  0
  1  3  2  0  0  0  0
  1  8  1  0  0  0  0
  2  4  1  0  0  0  0
  2  8  2  0  0  0  0
  3 10  1  0  0  0  0
  4 10  2  0  0  0  0
  5  6  2  0  0  0  0
  5  9  1  0  0  0  0
  6 31  1  0  0  0  0
  7  9  2  0  0  0  0
  7 31  1  0  0  0  0
  8 24  1  0  0  0  0
  9 23  1  0  0  0  0
 10 28  1  0  0  0  0
 11 12  2  0  0  0  0
 11 13  1  0  0  0  0
 11 27  1  0  0  0  0
 12 25  1  0  0  0  0
 12 29  1  0  0  0  0
 13 14  2  0  0  0  0
 14 15  1  0  0  0  0
 15 16  2  0  0  0  0
 16 27  1  0  0  0  0
 17 24  1  6  0  0  0
 17 29  1  0  0  0  0
 17 30  2  0  0  0  0
 18 19  1  0  0  0  0
 18 20  1  0  0  0  0
 19 21  1  0  0  0  0
 20 22  1  0  0  0  0
 21 28  1  0  0  0  0
 22 28  1  0  0  0  0
 23 24  1  0  0  0  0
 25 26  2  0  0  0  0
 26 27  1  0  0  0  0
  1 32  1  0  0  0  0
  2 33  1  0  0  0  0
  3 34  1  0  0  0  0
  4 35  1  0  0  0  0
  5 36  1  0  0  0  0
  6 37  1  0  0  0  0
  7 38  1  0  0  0  0
 13 39  1  0  0  0  0
 14 40  1  0  0  0  0
 15 41  1  0  0  0  0
 16 42  1  0  0  0  0
 18 43  1  0  0  0  0
 18 44  1  0  0  0  0
 19 45  1  0  0  0  0
 19 46  1  0  0  0  0
 20 47  1  0  0  0  0
 20 48  1  0  0  0  0
 21 49  1  0  0  0  0
 21 50  1  0  0  0  0
 22 51  1  0  0  0  0
 22 52  1  0  0  0  0
 23 53  1  0  0  0  0
 23 54  1  0  0  0  0
 24 55  1  0  0  0  0
 29 56  1  0  0  0  0
M  END
> <clash_score>
0

> <docking_score>
-7.477949142456055

> <overlap_score>
0.946659505367279

$$$$
BENZO_261_2
  -OEChem-08222022463D

 59 63  0     1  0  0  0  0  0999 V2000
   14.5084   -0.8935   21.8609 C   0  0  0  0  0  0  0  0  0  0  0  0
   14.4162   -0.2303   23.0845 C   0  0  0  0  0  0  0  0  0  0  0  0
   13.3727   -1.0531   21.0668 C   0  0  0  0  0  0  0  0  0  0  0  0
   13.1884    0.2733   23.5141 C   0  0  0  0  0  0  0  0  0  0  0  0
   12.1449   -0.5495   21.4964 C   0  0  0  0  0  0  0  0  0  0  0  0
    9.5890   -2.4950   23.2210 C   0  0  0  0  0  0  0  0  0  0  0  0
    8.2550   -1.0010   24.5520 C   0  0  0  0  0  0  0  0  0  0  0  0
    9.1890   -3.5540   24.0140 C   0  0  0  0  0  0  0  0  0  0  0  0
    7.8700   -2.0610   25.3550 C   0  0  0  0  0  0  0  0  0  0  0  0
   12.0528    0.1138   22.7200 C   0  0  0  0  0  0  0  0  0  0  0  0
    9.1280   -1.2090   23.4870 C   0  0  0  0  0  0  0  0  0  0  0  0
    8.3450   -3.3440   25.0980 C   0  0  0  0  0  0  0  0  0  0  0  0
    6.1460    0.6070   19.9750 C   0  0  0  0  0  0  0  0  0  0  0  0
    7.2710   -0.1460   19.8310 C   0  0  0  0  0  0  0  0  0  0  0  0
    5.3890    1.0010   21.0690 C   0  0  0  0  0  0  0  0  0  0  0  0
    4.2460    1.7520   20.8250 C   0  0  0  0  0  0  0  0  0  0  0  0
    3.8860    2.1050   19.5250 C   0  0  0  0  0  0  0  0  0  0  0  0
    4.6610    1.7170   18.4380 C   0  0  0  0  0  0  0  0  0  0  0  0
    9.0430    0.2380   21.4940 C   0  0  0  0  0  0  0  0  0  0  0  0
    7.9496   -4.9537   28.7345 C   0  0  0  0  0  0  0  0  0  0  0  0
    6.8919   -4.0607   28.0818 C   0  0  0  0  0  0  0  0  0  0  0  0
    9.2470   -4.9693   27.9230 C   0  0  0  0  0  0  0  0  0  0  0  0
    6.6889   -4.4385   26.6147 C   0  0  0  0  0  0  0  0  0  0  0  0
    8.9871   -5.3207   26.4549 C   0  0  0  0  0  0  0  0  0  0  0  0
   10.7220    0.6590   23.1850 C   0  0  0  0  0  0  0  0  0  0  0  0
    9.5820   -0.1080   22.7000 C   0  0  2  0  0  0  0  0  0  0  0  0
    7.5840   -0.2700   18.5160 N   0  0  0  0  0  0  0  0  0  0  0  0
    6.7100    0.3850   17.8100 N   0  0  0  0  0  0  0  0  0  0  0  0
    5.7970    0.9500   18.6730 N   0  0  0  0  0  0  0  0  0  0  0  0
    7.9769   -4.4027   25.9163 N   0  0  0  0  0  0  0  0  0  0  0  0
    8.0950   -0.7700   20.8440 N   0  0  0  0  0  0  0  0  0  0  0  0
    9.2950    1.3000   20.9480 O   0  0  0  0  0  0  0  0  0  0  0  0
   15.4647   -1.2844   21.5259 H   0  0  0  0  0  0  0  0  0  0  0  0
   15.3006   -0.1050   23.7024 H   0  0  0  0  0  0  0  0  0  0  0  0
   13.4443   -1.5684   20.1136 H   0  0  0  0  0  0  0  0  0  0  0  0
   13.1260    0.7885   24.4690 H   0  0  0  0  0  0  0  0  0  0  0  0
   11.2654   -0.6786   20.8711 H   0  0  0  0  0  0  0  0  0  0  0  0
   10.2684   -2.6719   22.3867 H   0  0  0  0  0  0  0  0  0  0  0  0
    7.8717   -0.0016   24.7596 H   0  0  0  0  0  0  0  0  0  0  0  0
    9.5443   -4.5616   23.7817 H   0  0  0  0  0  0  0  0  0  0  0  0
    7.1921   -1.8821   26.1908 H   0  0  0  0  0  0  0  0  0  0  0  0
    5.6529    0.7487   22.0767 H   0  0  0  0  0  0  0  0  0  0  0  0
    3.6388    2.0586   21.6675 H   0  0  0  0  0  0  0  0  0  0  0  0
    2.9822    2.6968   19.3330 H   0  0  0  0  0  0  0  0  0  0  0  0
    4.4111    1.9893   17.4360 H   0  0  0  0  0  0  0  0  0  0  0  0
    8.1558   -4.5961   29.7550 H   0  0  0  0  0  0  0  0  0  0  0  0
    7.5611   -5.9778   28.8324 H   0  0  0  0  0  0  0  0  0  0  0  0
    5.9459   -4.1594   28.6209 H   0  0  0  0  0  0  0  0  0  0  0  0
    7.2011   -3.0160   28.1536 H   0  0  0  0  0  0  0  0  0  0  0  0
    9.7290   -3.9880   27.9846 H   0  0  0  0  0  0  0  0  0  0  0  0
    9.9437   -5.6964   28.3562 H   0  0  0  0  0  0  0  0  0  0  0  0
    6.2543   -5.4402   26.5659 H   0  0  0  0  0  0  0  0  0  0  0  0
    5.9909   -3.7397   26.1451 H   0  0  0  0  0  0  0  0  0  0  0  0
    9.9128   -5.2367   25.8843 H   0  0  0  0  0  0  0  0  0  0  0  0
    8.6365   -6.3517   26.3987 H   0  0  0  0  0  0  0  0  0  0  0  0
   10.7177    0.7189   24.2812 H   0  0  0  0  0  0  0  0  0  0  0  0
   10.6426    1.6980   22.8361 H   0  0  0  0  0  0  0  0  0  0  0  0
    8.7036    0.8022   23.4008 H   0  0  0  0  0  0  0  0  0  0  0  0
    8.0917   -1.6083   21.0911 H   0  0  0  0  0  0  0  0  0  0  0  0
  1  2  1  0  0  0  0
  1  3  2  0  0  0  0
  2  4  2  0  0  0  0
  3  5  1  0  0  0  0
  4 10  1  0  0  0  0
  5 10  2  0  0  0  0
  6  8  2  0  0  0  0
  6 11  1  0  0  0  0
  7  9  1  0  0  0  0
  7 11  2  0  0  0  0
  8 12  1  0  0  0  0
  9 12  2  0  0  0  0
 10 25  1  0  0  0  0
 11 26  1  0  0  0  0
 12 30  1  0  0  0  0
 13 14  2  0  0  0  0
 13 15  1  0  0  0  0
 13 29  1  0  0  0  0
 14 27  1  0  0  0  0
 14 31  1  0  0  0  0
 15 16  2  0  0  0  0
 16 17  1  0  0  0  0
 17 18  2  0  0  0  0
 18 29  1  0  0  0  0
 19 26  1  6  0  0  0
 19 31  1  0  0  0  0
 19 32  2  0  0  0  0
 20 21  1  0  0  0  0
 20 22  1  0  0  0  0
 21 23  1  0  0  0  0
 22 24  1  0  0  0  0
 23 30  1  0  0  0  0
 24 30  1  0  0  0  0
 25 26  1  0  0  0  0
 27 28  2  0  0  0  0
 28 29  1  0  0  0  0
  1 33  1  0  0  0  0
  2 34  1  0  0  0  0
  3 35  1  0  0  0  0
  4 36  1  0  0  0  0
  5 37  1  0  0  0  0
  6 38  1  0  0  0  0
  7 39  1  0  0  0  0
  8 40  1  0  0  0  0
  9 41  1  0  0  0  0
 15 42  1  0  0  0  0
 16 43  1  0  0  0  0
 17 44  1  0  0  0  0
 18 45  1  0  0  0  0
 20 46  1  0  0  0  0
 20 47  1  0  0  0  0
 21 48  1  0  0  0  0
 21 49  1  0  0  0  0
 22 50  1  0  0  0  0
 22 51  1  0  0  0  0
 23 52  1  0  0  0  0
 23 53  1  0  0  0  0
 24 54  1  0  0  0  0
 24 55  1  0  0  0  0
 25 56  1  0  0  0  0
 25 57  1  0  0  0  0
 26 58  1  0  0  0  0
 31 59  1  0  0  0  0
M  END
> <clash_score>
0

> <docking_score>
-7.697593688964844

> <overlap_score>
0.9501305818557739

$$$$
BENZO_258_1
  -OEChem-08222022463D

 54 57  0     1  0  0  0  0  0999 V2000
   13.8165    0.0398   21.0674 C   0  0  0  0  0  0  0  0  0  0  0  0
   12.5963    0.5519   21.5081 C   0  0  0  0  0  0  0  0  0  0  0  0
    9.5890   -2.4950   23.2210 C   0  0  0  0  0  0  0  0  0  0  0  0
    8.2550   -1.0010   24.5520 C   0  0  0  0  0  0  0  0  0  0  0  0
    9.1890   -3.5540   24.0140 C   0  0  0  0  0  0  0  0  0  0  0  0
    7.8700   -2.0610   25.3550 C   0  0  0  0  0  0  0  0  0  0  0  0
   14.4843   -0.9216   21.8261 C   0  0  0  0  0  0  0  0  0  0  0  0
   12.7115   -0.8586   23.4662 C   0  0  0  0  0  0  0  0  0  0  0  0
    9.1280   -1.2090   23.4870 C   0  0  0  0  0  0  0  0  0  0  0  0
   12.0437    0.1027   22.7075 C   0  0  0  0  0  0  0  0  0  0  0  0
    8.3450   -3.3440   25.0980 C   0  0  0  0  0  0  0  0  0  0  0  0
   13.9318   -1.3708   23.0255 C   0  0  0  0  0  0  0  0  0  0  0  0
    6.1460    0.6070   19.9750 C   0  0  0  0  0  0  0  0  0  0  0  0
    7.2710   -0.1460   19.8310 C   0  0  0  0  0  0  0  0  0  0  0  0
    5.3890    1.0010   21.0690 C   0  0  0  0  0  0  0  0  0  0  0  0
    4.2460    1.7520   20.8250 C   0  0  0  0  0  0  0  0  0  0  0  0
    3.8860    2.1050   19.5250 C   0  0  0  0  0  0  0  0  0  0  0  0
    4.6610    1.7170   18.4380 C   0  0  0  0  0  0  0  0  0  0  0  0
    8.2023   -4.5553   27.2977 C   0  0  0  0  0  0  0  0  0  0  0  0
    9.0430    0.2380   21.4940 C   0  0  0  0  0  0  0  0  0  0  0  0
    7.8890   -6.0855   29.2893 C   0  0  0  0  0  0  0  0  0  0  0  0
   10.7220    0.6590   23.1850 C   0  0  0  0  0  0  0  0  0  0  0  0
    7.6346   -5.8715   27.8079 C   0  0  0  0  0  0  0  0  0  0  0  0
    9.5820   -0.1080   22.7000 C   0  0  1  0  0  0  0  0  0  0  0  0
    7.5840   -0.2700   18.5160 N   0  0  0  0  0  0  0  0  0  0  0  0
    6.7100    0.3850   17.8100 N   0  0  0  0  0  0  0  0  0  0  0  0
    5.7970    0.9500   18.6730 N   0  0  0  0  0  0  0  0  0  0  0  0
    7.9771   -4.4057   25.9197 N   0  0  0  0  0  0  0  0  0  0  0  0
    8.0950   -0.7700   20.8440 N   0  0  0  0  0  0  0  0  0  0  0  0
    8.7739   -3.7626   28.0389 O   0  0  0  0  0  0  0  0  0  0  0  0
    9.2950    1.3000   20.9480 O   0  0  0  0  0  0  0  0  0  0  0  0
   14.7567   -2.5560   23.9617 Cl  0  0  0  0  0  0  0  0  0  0  0  0
   14.2465    0.3899   20.1334 H   0  0  0  0  0  0  0  0  0  0  0  0
   12.0830    1.3007   20.9105 H   0  0  0  0  0  0  0  0  0  0  0  0
   10.2695   -2.6718   22.3873 H   0  0  0  0  0  0  0  0  0  0  0  0
    7.8712   -0.0014   24.7587 H   0  0  0  0  0  0  0  0  0  0  0  0
    9.5431   -4.5618   23.7801 H   0  0  0  0  0  0  0  0  0  0  0  0
    7.1923   -1.8823   26.1912 H   0  0  0  0  0  0  0  0  0  0  0  0
   15.4348   -1.3117   21.4704 H   0  0  0  0  0  0  0  0  0  0  0  0
   12.2763   -1.2059   24.4005 H   0  0  0  0  0  0  0  0  0  0  0  0
    5.6529    0.7487   22.0767 H   0  0  0  0  0  0  0  0  0  0  0  0
    3.6388    2.0586   21.6675 H   0  0  0  0  0  0  0  0  0  0  0  0
    2.9822    2.6968   19.3330 H   0  0  0  0  0  0  0  0  0  0  0  0
    4.4111    1.9893   17.4360 H   0  0  0  0  0  0  0  0  0  0  0  0
    8.9617   -6.0800   29.5089 H   0  0  0  0  0  0  0  0  0  0  0  0
    7.4789   -7.0476   29.6112 H   0  0  0  0  0  0  0  0  0  0  0  0
    7.4201   -5.2966   29.8866 H   0  0  0  0  0  0  0  0  0  0  0  0
   10.7266    0.7141   24.2815 H   0  0  0  0  0  0  0  0  0  0  0  0
   10.6502    1.7003   22.8412 H   0  0  0  0  0  0  0  0  0  0  0  0
    6.5553   -5.8815   27.6173 H   0  0  0  0  0  0  0  0  0  0  0  0
    8.0879   -6.6901   27.2371 H   0  0  0  0  0  0  0  0  0  0  0  0
    8.7027    0.7972   23.4026 H   0  0  0  0  0  0  0  0  0  0  0  0
    7.4774   -5.1800   25.4671 H   0  0  0  0  0  0  0  0  0  0  0  0
    8.0713   -1.6185   21.0737 H   0  0  0  0  0  0  0  0  0  0  0  0
  1  2  2  0  0  0  0
  1  7  1  0  0  0  0
  2 10  1  0  0  0  0
  3  5  2  0  0  0  0
  3  9  1  0  0  0  0
  4  6  1  0  0  0  0
  4  9  2  0  0  0  0
  5 11  1  0  0  0  0
  6 11  2  0  0  0  0
  7 12  2  0  0  0  0
  8 10  2  0  0  0  0
  8 12  1  0  0  0  0
  9 24  1  0  0  0  0
 10 22  1  0  0  0  0
 11 28  1  0  0  0  0
 12 32  1  0  0  0  0
 13 14  2  0  0  0  0
 13 15  1  0  0  0  0
 13 27  1  0  0  0  0
 14 25  1  0  0  0  0
 14 29  1  0  0  0  0
 15 16  2  0  0  0  0
 16 17  1  0  0  0  0
 17 18  2  0  0  0  0
 18 27  1  0  0  0  0
 19 23  1  0  0  0  0
 19 28  1  0  0  0  0
 19 30  2  0  0  0  0
 20 24  1  0  0  0  0
 20 29  1  0  0  0  0
 20 31  2  0  0  0  0
 21 23  1  0  0  0  0
 22 24  1  1  0  0  0
 25 26  2  0  0  0  0
 26 27  1  0  0  0  0
  1 33  1  0  0  0  0
  2 34  1  0  0  0  0
  3 35  1  0  0  0  0
  4 36  1  0  0  0  0
  5 37  1  0  0  0  0
  6 38  1  0  0  0  0
  7 39  1  0  0  0  0
  8 40  1  0  0  0  0
 15 41  1  0  0  0  0
 16 42  1  0  0  0  0
 17 43  1  0  0  0  0
 18 44  1  0  0  0  0
 21 45  1  0  0  0  0
 21 46  1  0  0  0  0
 21 47  1  0  0  0  0
 22 48  1  0  0  0  0
 22 49  1  0  0  0  0
 23 50  1  0  0  0  0
 23 51  1  0  0  0  0
 24 52  1  0  0  0  0
 28 53  1  0  0  0  0
 29 54  1  0  0  0  0
M  END
> <clash_score>
0

> <docking_score>
-6.648317337036133

> <overlap_score>
0.9779965281486511

$$$$
BENZO_258_2
  -OEChem-08222022463D

 54 57  0     1  0  0  0  0  0999 V2000
   13.0334   -1.4852   25.3072 C   0  0  0  0  0  0  0  0  0  0  0  0
   11.9669   -0.6740   24.9199 C   0  0  0  0  0  0  0  0  0  0  0  0
    9.5890   -2.4950   23.2210 C   0  0  0  0  0  0  0  0  0  0  0  0
    8.2550   -1.0010   24.5520 C   0  0  0  0  0  0  0  0  0  0  0  0
    9.1890   -3.5540   24.0140 C   0  0  0  0  0  0  0  0  0  0  0  0
    7.8700   -2.0610   25.3550 C   0  0  0  0  0  0  0  0  0  0  0  0
   14.0118   -1.8413   24.3790 C   0  0  0  0  0  0  0  0  0  0  0  0
   12.8570   -0.5751   22.6760 C   0  0  0  0  0  0  0  0  0  0  0  0
    9.1280   -1.2090   23.4870 C   0  0  0  0  0  0  0  0  0  0  0  0
   11.8786   -0.2190   23.6043 C   0  0  0  0  0  0  0  0  0  0  0  0
    8.3450   -3.3440   25.0980 C   0  0  0  0  0  0  0  0  0  0  0  0
   13.9235   -1.3863   23.0634 C   0  0  0  0  0  0  0  0  0  0  0  0
    6.1460    0.6070   19.9750 C   0  0  0  0  0  0  0  0  0  0  0  0
    7.2710   -0.1460   19.8310 C   0  0  0  0  0  0  0  0  0  0  0  0
    5.3890    1.0010   21.0690 C   0  0  0  0  0  0  0  0  0  0  0  0
    4.2460    1.7520   20.8250 C   0  0  0  0  0  0  0  0  0  0  0  0
    3.8860    2.1050   19.5250 C   0  0  0  0  0  0  0  0  0  0  0  0
    4.6610    1.7170   18.4380 C   0  0  0  0  0  0  0  0  0  0  0  0
    7.6600   -4.3754   27.2874 C   0  0  0  0  0  0  0  0  0  0  0  0
    9.0430    0.2380   21.4940 C   0  0  0  0  0  0  0  0  0  0  0  0
    8.4363   -6.7635   27.6039 C   0  0  0  0  0  0  0  0  0  0  0  0
   10.7220    0.6590   23.1850 C   0  0  0  0  0  0  0  0  0  0  0  0
    7.3108   -5.7640   27.8018 C   0  0  0  0  0  0  0  0  0  0  0  0
    9.5820   -0.1080   22.7000 C   0  0  2  0  0  0  0  0  0  0  0  0
    7.5840   -0.2700   18.5160 N   0  0  0  0  0  0  0  0  0  0  0  0
    6.7100    0.3850   17.8100 N   0  0  0  0  0  0  0  0  0  0  0  0
    5.7970    0.9500   18.6730 N   0  0  0  0  0  0  0  0  0  0  0  0
    7.9771   -4.4057   25.9197 N   0  0  0  0  0  0  0  0  0  0  0  0
    8.0950   -0.7700   20.8440 N   0  0  0  0  0  0  0  0  0  0  0  0
    7.6497   -3.3897   28.0173 O   0  0  0  0  0  0  0  0  0  0  0  0
    9.2950    1.3000   20.9480 O   0  0  0  0  0  0  0  0  0  0  0  0
   15.1303   -1.8270   21.9183 Cl  0  0  0  0  0  0  0  0  0  0  0  0
   13.1017   -1.8394   26.3318 H   0  0  0  0  0  0  0  0  0  0  0  0
   11.2091   -0.4015   25.6498 H   0  0  0  0  0  0  0  0  0  0  0  0
   10.2695   -2.6718   22.3873 H   0  0  0  0  0  0  0  0  0  0  0  0
    7.8712   -0.0014   24.7587 H   0  0  0  0  0  0  0  0  0  0  0  0
    9.5431   -4.5618   23.7801 H   0  0  0  0  0  0  0  0  0  0  0  0
    7.1923   -1.8823   26.1912 H   0  0  0  0  0  0  0  0  0  0  0  0
   14.8373   -2.4744   24.6949 H   0  0  0  0  0  0  0  0  0  0  0  0
   12.7839   -0.2174   21.6515 H   0  0  0  0  0  0  0  0  0  0  0  0
    5.6529    0.7487   22.0767 H   0  0  0  0  0  0  0  0  0  0  0  0
    3.6388    2.0586   21.6675 H   0  0  0  0  0  0  0  0  0  0  0  0
    2.9822    2.6968   19.3330 H   0  0  0  0  0  0  0  0  0  0  0  0
    4.4111    1.9893   17.4360 H   0  0  0  0  0  0  0  0  0  0  0  0
    8.6963   -6.8583   26.5445 H   0  0  0  0  0  0  0  0  0  0  0  0
    8.1391   -7.7500   27.9727 H   0  0  0  0  0  0  0  0  0  0  0  0
    9.3369   -6.4534   28.1441 H   0  0  0  0  0  0  0  0  0  0  0  0
   10.4369    1.3080   24.0233 H   0  0  0  0  0  0  0  0  0  0  0  0
   11.0815    1.3384   22.3997 H   0  0  0  0  0  0  0  0  0  0  0  0
    7.0718   -5.6894   28.8689 H   0  0  0  0  0  0  0  0  0  0  0  0
    6.4145   -6.1140   27.2767 H   0  0  0  0  0  0  0  0  0  0  0  0
   10.5413   -0.9955   22.0233 H   0  0  0  0  0  0  0  0  0  0  0  0
    7.9294   -5.3301   25.4756 H   0  0  0  0  0  0  0  0  0  0  0  0
    8.0713   -1.6185   21.0737 H   0  0  0  0  0  0  0  0  0  0  0  0
  1  2  2  0  0  0  0
  1  7  1  0  0  0  0
  2 10  1  0  0  0  0
  3  5  2  0  0  0  0
  3  9  1  0  0  0  0
  4  6  1  0  0  0  0
  4  9  2  0  0  0  0
  5 11  1  0  0  0  0
  6 11  2  0  0  0  0
  7 12  2  0  0  0  0
  8 10  2  0  0  0  0
  8 12  1  0  0  0  0
  9 24  1  0  0  0  0
 10 22  1  0  0  0  0
 11 28  1  0  0  0  0
 12 32  1  0  0  0  0
 13 14  2  0  0  0  0
 13 15  1  0  0  0  0
 13 27  1  0  0  0  0
 14 25  1  0  0  0  0
 14 29  1  0  0  0  0
 15 16  2  0  0  0  0
 16 17  1  0  0  0  0
 17 18  2  0  0  0  0
 18 27  1  0  0  0  0
 19 23  1  0  0  0  0
 19 28  1  0  0  0  0
 19 30  2  0  0  0  0
 20 24  1  0  0  0  0
 20 29  1  0  0  0  0
 20 31  2  0  0  0  0
 21 23  1  0  0  0  0
 22 24  1  6  0  0  0
 25 26  2  0  0  0  0
 26 27  1  0  0  0  0
  1 33  1  0  0  0  0
  2 34  1  0  0  0  0
  3 35  1  0  0  0  0
  4 36  1  0  0  0  0
  5 37  1  0  0  0  0
  6 38  1  0  0  0  0
  7 39  1  0  0  0  0
  8 40  1  0  0  0  0
 15 41  1  0  0  0  0
 16 42  1  0  0  0  0
 17 43  1  0  0  0  0
 18 44  1  0  0  0  0
 21 45  1  0  0  0  0
 21 46  1  0  0  0  0
 21 47  1  0  0  0  0
 22 48  1  0  0  0  0
 22 49  1  0  0  0  0
 23 50  1  0  0  0  0
 23 51  1  0  0  0  0
 24 52  1  0  0  0  0
 28 53  1  0  0  0  0
 29 54  1  0  0  0  0
M  END
> <clash_score>
0

> <docking_score>
-6.662861347198486

> <overlap_score>
0.973135769367218

$$$$
BENZO_259_2
  -OEChem-08222022463D

 54 57  0     1  0  0  0  0  0999 V2000
    9.5890   -2.4950   23.2210 C   0  0  0  0  0  0  0  0  0  0  0  0
    8.2550   -1.0010   24.5520 C   0  0  0  0  0  0  0  0  0  0  0  0
    9.1890   -3.5540   24.0140 C   0  0  0  0  0  0  0  0  0  0  0  0
    7.8700   -2.0610   25.3550 C   0  0  0  0  0  0  0  0  0  0  0  0
   12.1294   -0.7684   24.8759 C   0  0  0  0  0  0  0  0  0  0  0  0
   12.9208   -0.6622   22.8272 C   0  0  0  0  0  0  0  0  0  0  0  0
    9.1280   -1.2090   23.4870 C   0  0  0  0  0  0  0  0  0  0  0  0
   11.8786   -0.2190   23.6043 C   0  0  0  0  0  0  0  0  0  0  0  0
    8.3450   -3.3440   25.0980 C   0  0  0  0  0  0  0  0  0  0  0  0
    6.1460    0.6070   19.9750 C   0  0  0  0  0  0  0  0  0  0  0  0
    7.2710   -0.1460   19.8310 C   0  0  0  0  0  0  0  0  0  0  0  0
    5.3890    1.0010   21.0690 C   0  0  0  0  0  0  0  0  0  0  0  0
    4.2460    1.7520   20.8250 C   0  0  0  0  0  0  0  0  0  0  0  0
    3.8860    2.1050   19.5250 C   0  0  0  0  0  0  0  0  0  0  0  0
    4.6610    1.7170   18.4380 C   0  0  0  0  0  0  0  0  0  0  0  0
    7.6600   -4.3754   27.2874 C   0  0  0  0  0  0  0  0  0  0  0  0
    9.0430    0.2380   21.4940 C   0  0  0  0  0  0  0  0  0  0  0  0
    8.4363   -6.7635   27.6039 C   0  0  0  0  0  0  0  0  0  0  0  0
   14.9196   -2.1033   23.2819 C   0  0  0  0  0  0  0  0  0  0  0  0
   10.7220    0.6590   23.1850 C   0  0  0  0  0  0  0  0  0  0  0  0
    7.3108   -5.7640   27.8018 C   0  0  0  0  0  0  0  0  0  0  0  0
    9.5820   -0.1080   22.7000 C   0  0  2  0  0  0  0  0  0  0  0  0
   13.2434   -1.5045   24.9090 N   0  0  0  0  0  0  0  0  0  0  0  0
    7.5840   -0.2700   18.5160 N   0  0  0  0  0  0  0  0  0  0  0  0
    6.7100    0.3850   17.8100 N   0  0  0  0  0  0  0  0  0  0  0  0
   13.7018   -1.4209   23.6485 N   0  0  0  0  0  0  0  0  0  0  0  0
    5.7970    0.9500   18.6730 N   0  0  0  0  0  0  0  0  0  0  0  0
    7.9771   -4.4057   25.9197 N   0  0  0  0  0  0  0  0  0  0  0  0
    8.0950   -0.7700   20.8440 N   0  0  0  0  0  0  0  0  0  0  0  0
    7.6497   -3.3897   28.0173 O   0  0  0  0  0  0  0  0  0  0  0  0
    9.2950    1.3000   20.9480 O   0  0  0  0  0  0  0  0  0  0  0  0
   10.2695   -2.6718   22.3873 H   0  0  0  0  0  0  0  0  0  0  0  0
    7.8712   -0.0014   24.7587 H   0  0  0  0  0  0  0  0  0  0  0  0
    9.5431   -4.5618   23.7801 H   0  0  0  0  0  0  0  0  0  0  0  0
    7.1923   -1.8823   26.1912 H   0  0  0  0  0  0  0  0  0  0  0  0
   11.5479   -0.6652   25.7811 H   0  0  0  0  0  0  0  0  0  0  0  0
   13.1664   -0.5073   21.7853 H   0  0  0  0  0  0  0  0  0  0  0  0
    5.6529    0.7487   22.0767 H   0  0  0  0  0  0  0  0  0  0  0  0
    3.6388    2.0586   21.6675 H   0  0  0  0  0  0  0  0  0  0  0  0
    2.9822    2.6968   19.3330 H   0  0  0  0  0  0  0  0  0  0  0  0
    4.4111    1.9893   17.4360 H   0  0  0  0  0  0  0  0  0  0  0  0
    8.6963   -6.8583   26.5445 H   0  0  0  0  0  0  0  0  0  0  0  0
    8.1391   -7.7500   27.9727 H   0  0  0  0  0  0  0  0  0  0  0  0
    9.3369   -6.4534   28.1441 H   0  0  0  0  0  0  0  0  0  0  0  0
   15.7545   -1.4186   23.4527 H   0  0  0  0  0  0  0  0  0  0  0  0
   15.0313   -3.0027   23.8939 H   0  0  0  0  0  0  0  0  0  0  0  0
   14.8693   -2.3913   22.2281 H   0  0  0  0  0  0  0  0  0  0  0  0
   10.4369    1.3080   24.0233 H   0  0  0  0  0  0  0  0  0  0  0  0
   11.0815    1.3384   22.3997 H   0  0  0  0  0  0  0  0  0  0  0  0
    7.0718   -5.6894   28.8689 H   0  0  0  0  0  0  0  0  0  0  0  0
    6.4145   -6.1140   27.2767 H   0  0  0  0  0  0  0  0  0  0  0  0
   10.5413   -0.9955   22.0233 H   0  0  0  0  0  0  0  0  0  0  0  0
    7.9294   -5.3301   25.4756 H   0  0  0  0  0  0  0  0  0  0  0  0
    8.0713   -1.6185   21.0737 H   0  0  0  0  0  0  0  0  0  0  0  0
  1  3  2  0  0  0  0
  1  7  1  0  0  0  0
  2  4  1  0  0  0  0
  2  7  2  0  0  0  0
  3  9  1  0  0  0  0
  4  9  2  0  0  0  0
  5  8  1  0  0  0  0
  5 23  2  0  0  0  0
  6  8  2  0  0  0  0
  6 26  1  0  0  0  0
  7 22  1  0  0  0  0
  8 20  1  0  0  0  0
  9 28  1  0  0  0  0
 10 11  2  0  0  0  0
 10 12  1  0  0  0  0
 10 27  1  0  0  0  0
 11 24  1  0  0  0  0
 11 29  1  0  0  0  0
 12 13  2  0  0  0  0
 13 14  1  0  0  0  0
 14 15  2  0  0  0  0
 15 27  1  0  0  0  0
 16 21  1  0  0  0  0
 16 28  1  0  0  0  0
 16 30  2  0  0  0  0
 17 22  1  0  0  0  0
 17 29  1  0  0  0  0
 17 31  2  0  0  0  0
 18 21  1  0  0  0  0
 19 26  1  0  0  0  0
 20 22  1  6  0  0  0
 23 26  1  0  0  0  0
 24 25  2  0  0  0  0
 25 27  1  0  0  0  0
  1 32  1  0  0  0  0
  2 33  1  0  0  0  0
  3 34  1  0  0  0  0
  4 35  1  0  0  0  0
  5 36  1  0  0  0  0
  6 37  1  0  0  0  0
 12 38  1  0  0  0  0
 13 39  1  0  0  0  0
 14 40  1  0  0  0  0
 15 41  1  0  0  0  0
 18 42  1  0  0  0  0
 18 43  1  0  0  0  0
 18 44  1  0  0  0  0
 19 45  1  0  0  0  0
 19 46  1  0  0  0  0
 19 47  1  0  0  0  0
 20 48  1  0  0  0  0
 20 49  1  0  0  0  0
 21 50  1  0  0  0  0
 21 51  1  0  0  0  0
 22 52  1  0  0  0  0
 28 53  1  0  0  0  0
 29 54  1  0  0  0  0
M  END
> <clash_score>
0

> <docking_score>
-6.612154483795166

> <overlap_score>
0.9687613248825073

$$$$
BENZO_259_1
  -OEChem-08222022463D

 54 57  0     1  0  0  0  0  0999 V2000
    9.5890   -2.4950   23.2210 C   0  0  0  0  0  0  0  0  0  0  0  0
    8.2550   -1.0010   24.5520 C   0  0  0  0  0  0  0  0  0  0  0  0
    9.1890   -3.5540   24.0140 C   0  0  0  0  0  0  0  0  0  0  0  0
    7.8700   -2.0610   25.3550 C   0  0  0  0  0  0  0  0  0  0  0  0
   13.3358    0.5881   22.9844 C   0  0  0  0  0  0  0  0  0  0  0  0
   12.2530   -0.9934   21.9068 C   0  0  0  0  0  0  0  0  0  0  0  0
    9.1280   -1.2090   23.4870 C   0  0  0  0  0  0  0  0  0  0  0  0
   12.0437    0.1027   22.7075 C   0  0  0  0  0  0  0  0  0  0  0  0
    8.3450   -3.3440   25.0980 C   0  0  0  0  0  0  0  0  0  0  0  0
    6.1460    0.6070   19.9750 C   0  0  0  0  0  0  0  0  0  0  0  0
    7.2710   -0.1460   19.8310 C   0  0  0  0  0  0  0  0  0  0  0  0
    5.3890    1.0010   21.0690 C   0  0  0  0  0  0  0  0  0  0  0  0
    4.2460    1.7520   20.8250 C   0  0  0  0  0  0  0  0  0  0  0  0
    3.8860    2.1050   19.5250 C   0  0  0  0  0  0  0  0  0  0  0  0
    4.6610    1.7170   18.4380 C   0  0  0  0  0  0  0  0  0  0  0  0
    7.6600   -4.3754   27.2874 C   0  0  0  0  0  0  0  0  0  0  0  0
    9.0430    0.2380   21.4940 C   0  0  0  0  0  0  0  0  0  0  0  0
    6.9949   -5.7777   29.2867 C   0  0  0  0  0  0  0  0  0  0  0  0
   14.3107   -2.0972   20.9977 C   0  0  0  0  0  0  0  0  0  0  0  0
   10.7220    0.6590   23.1850 C   0  0  0  0  0  0  0  0  0  0  0  0
    7.3108   -5.7640   27.8018 C   0  0  0  0  0  0  0  0  0  0  0  0
    9.5820   -0.1080   22.7000 C   0  0  1  0  0  0  0  0  0  0  0  0
   14.2950   -0.1401   22.4067 N   0  0  0  0  0  0  0  0  0  0  0  0
    7.5840   -0.2700   18.5160 N   0  0  0  0  0  0  0  0  0  0  0  0
    6.7100    0.3850   17.8100 N   0  0  0  0  0  0  0  0  0  0  0  0
   13.6051   -1.0943   21.7588 N   0  0  0  0  0  0  0  0  0  0  0  0
    5.7970    0.9500   18.6730 N   0  0  0  0  0  0  0  0  0  0  0  0
    7.9771   -4.4057   25.9197 N   0  0  0  0  0  0  0  0  0  0  0  0
    8.0950   -0.7700   20.8440 N   0  0  0  0  0  0  0  0  0  0  0  0
    7.6497   -3.3897   28.0173 O   0  0  0  0  0  0  0  0  0  0  0  0
    9.2950    1.3000   20.9480 O   0  0  0  0  0  0  0  0  0  0  0  0
   10.2695   -2.6718   22.3873 H   0  0  0  0  0  0  0  0  0  0  0  0
    7.8712   -0.0014   24.7587 H   0  0  0  0  0  0  0  0  0  0  0  0
    9.5431   -4.5618   23.7801 H   0  0  0  0  0  0  0  0  0  0  0  0
    7.1923   -1.8823   26.1912 H   0  0  0  0  0  0  0  0  0  0  0  0
   13.6211    1.4413   23.5835 H   0  0  0  0  0  0  0  0  0  0  0  0
   11.5720   -1.6936   21.4423 H   0  0  0  0  0  0  0  0  0  0  0  0
    5.6529    0.7487   22.0767 H   0  0  0  0  0  0  0  0  0  0  0  0
    3.6388    2.0586   21.6675 H   0  0  0  0  0  0  0  0  0  0  0  0
    2.9822    2.6968   19.3330 H   0  0  0  0  0  0  0  0  0  0  0  0
    4.4111    1.9893   17.4360 H   0  0  0  0  0  0  0  0  0  0  0  0
    7.8442   -5.4112   29.8727 H   0  0  0  0  0  0  0  0  0  0  0  0
    6.7644   -6.7949   29.6179 H   0  0  0  0  0  0  0  0  0  0  0  0
    6.1326   -5.1412   29.5110 H   0  0  0  0  0  0  0  0  0  0  0  0
   14.4286   -1.7247   19.9767 H   0  0  0  0  0  0  0  0  0  0  0  0
   15.2879   -2.2795   21.4534 H   0  0  0  0  0  0  0  0  0  0  0  0
   13.7343   -3.0265   21.0026 H   0  0  0  0  0  0  0  0  0  0  0  0
   10.7266    0.7141   24.2815 H   0  0  0  0  0  0  0  0  0  0  0  0
   10.6502    1.7003   22.8412 H   0  0  0  0  0  0  0  0  0  0  0  0
    6.4453   -6.1349   27.2407 H   0  0  0  0  0  0  0  0  0  0  0  0
    8.1567   -6.4317   27.6017 H   0  0  0  0  0  0  0  0  0  0  0  0
    8.7027    0.7972   23.4026 H   0  0  0  0  0  0  0  0  0  0  0  0
    7.9294   -5.3301   25.4756 H   0  0  0  0  0  0  0  0  0  0  0  0
    8.0713   -1.6185   21.0737 H   0  0  0  0  0  0  0  0  0  0  0  0
  1  3  2  0  0  0  0
  1  7  1  0  0  0  0
  2  4  1  0  0  0  0
  2  7  2  0  0  0  0
  3  9  1  0  0  0  0
  4  9  2  0  0  0  0
  5  8  1  0  0  0  0
  5 23  2  0  0  0  0
  6  8  2  0  0  0  0
  6 26  1  0  0  0  0
  7 22  1  0  0  0  0
  8 20  1  0  0  0  0
  9 28  1  0  0  0  0
 10 11  2  0  0  0  0
 10 12  1  0  0  0  0
 10 27  1  0  0  0  0
 11 24  1  0  0  0  0
 11 29  1  0  0  0  0
 12 13  2  0  0  0  0
 13 14  1  0  0  0  0
 14 15  2  0  0  0  0
 15 27  1  0  0  0  0
 16 21  1  0  0  0  0
 16 28  1  0  0  0  0
 16 30  2  0  0  0  0
 17 22  1  0  0  0  0
 17 29  1  0  0  0  0
 17 31  2  0  0  0  0
 18 21  1  0  0  0  0
 19 26  1  0  0  0  0
 20 22  1  1  0  0  0
 23 26  1  0  0  0  0
 24 25  2  0  0  0  0
 25 27  1  0  0  0  0
  1 32  1  0  0  0  0
  2 33  1  0  0  0  0
  3 34  1  0  0  0  0
  4 35  1  0  0  0  0
  5 36  1  0  0  0  0
  6 37  1  0  0  0  0
 12 38  1  0  0  0  0
 13 39  1  0  0  0  0
 14 40  1  0  0  0  0
 15 41  1  0  0  0  0
 18 42  1  0  0  0  0
 18 43  1  0  0  0  0
 18 44  1  0  0  0  0
 19 45  1  0  0  0  0
 19 46  1  0  0  0  0
 19 47  1  0  0  0  0
 20 48  1  0  0  0  0
 20 49  1  0  0  0  0
 21 50  1  0  0  0  0
 21 51  1  0  0  0  0
 22 52  1  0  0  0  0
 28 53  1  0  0  0  0
 29 54  1  0  0  0  0
M  END
> <clash_score>
0

> <docking_score>
-9.327667236328125

> <overlap_score>
0.9468290209770203

$$$$
BENZO_265_1
  -OEChem-08222022463D

 47 50  0     1  0  0  0  0  0999 V2000
   14.4830   -0.9237   21.8248 C   0  0  0  0  0  0  0  0  0  0  0  0
   13.9310   -1.3719   23.0248 C   0  0  0  0  0  0  0  0  0  0  0  0
   13.8154    0.0379   21.0662 C   0  0  0  0  0  0  0  0  0  0  0  0
   12.7114   -0.8588   23.4661 C   0  0  0  0  0  0  0  0  0  0  0  0
   12.5958    0.5510   21.5075 C   0  0  0  0  0  0  0  0  0  0  0  0
    9.1890   -3.5540   24.0140 C   0  0  0  0  0  0  0  0  0  0  0  0
    7.8700   -2.0610   25.3550 C   0  0  0  0  0  0  0  0  0  0  0  0
    9.5890   -2.4950   23.2210 C   0  0  0  0  0  0  0  0  0  0  0  0
    8.2550   -1.0010   24.5520 C   0  0  0  0  0  0  0  0  0  0  0  0
    8.3450   -3.3440   25.0980 C   0  0  0  0  0  0  0  0  0  0  0  0
   12.0437    0.1027   22.7075 C   0  0  0  0  0  0  0  0  0  0  0  0
    9.1280   -1.2090   23.4870 C   0  0  0  0  0  0  0  0  0  0  0  0
    6.1460    0.6070   19.9750 C   0  0  0  0  0  0  0  0  0  0  0  0
    7.2710   -0.1460   19.8310 C   0  0  0  0  0  0  0  0  0  0  0  0
    5.3890    1.0010   21.0690 C   0  0  0  0  0  0  0  0  0  0  0  0
    4.2460    1.7520   20.8250 C   0  0  0  0  0  0  0  0  0  0  0  0
    3.8860    2.1050   19.5250 C   0  0  0  0  0  0  0  0  0  0  0  0
    4.6610    1.7170   18.4380 C   0  0  0  0  0  0  0  0  0  0  0  0
    9.0430    0.2380   21.4940 C   0  0  0  0  0  0  0  0  0  0  0  0
    7.9517   -4.4787   25.9770 C   0  0  0  0  0  0  0  0  0  0  0  0
   10.7220    0.6590   23.1850 C   0  0  0  0  0  0  0  0  0  0  0  0
    9.5820   -0.1080   22.7000 C   0  0  1  0  0  0  0  0  0  0  0  0
    7.5840   -0.2700   18.5160 N   0  0  0  0  0  0  0  0  0  0  0  0
    6.7100    0.3850   17.8100 N   0  0  0  0  0  0  0  0  0  0  0  0
    5.7970    0.9500   18.6730 N   0  0  0  0  0  0  0  0  0  0  0  0
    8.0950   -0.7700   20.8440 N   0  0  0  0  0  0  0  0  0  0  0  0
    9.2950    1.3000   20.9480 O   0  0  0  0  0  0  0  0  0  0  0  0
   15.4334   -1.3223   21.4820 H   0  0  0  0  0  0  0  0  0  0  0  0
   14.4512   -2.1198   23.6162 H   0  0  0  0  0  0  0  0  0  0  0  0
   14.2454    0.3879   20.1325 H   0  0  0  0  0  0  0  0  0  0  0  0
   12.2887   -1.2141   24.4023 H   0  0  0  0  0  0  0  0  0  0  0  0
   12.0827    1.2998   20.9098 H   0  0  0  0  0  0  0  0  0  0  0  0
    9.5416   -4.5625   23.7818 H   0  0  0  0  0  0  0  0  0  0  0  0
    7.1926   -1.8847   26.1916 H   0  0  0  0  0  0  0  0  0  0  0  0
   10.2688   -2.6720   22.3870 H   0  0  0  0  0  0  0  0  0  0  0  0
    7.8705   -0.0015   24.7579 H   0  0  0  0  0  0  0  0  0  0  0  0
    5.6529    0.7487   22.0767 H   0  0  0  0  0  0  0  0  0  0  0  0
    3.6388    2.0586   21.6675 H   0  0  0  0  0  0  0  0  0  0  0  0
    2.9822    2.6968   19.3330 H   0  0  0  0  0  0  0  0  0  0  0  0
    4.4111    1.9893   17.4360 H   0  0  0  0  0  0  0  0  0  0  0  0
    8.6661   -4.5883   26.8021 H   0  0  0  0  0  0  0  0  0  0  0  0
    6.9508   -4.3263   26.4014 H   0  0  0  0  0  0  0  0  0  0  0  0
    7.9188   -5.4228   25.4175 H   0  0  0  0  0  0  0  0  0  0  0  0
   10.7266    0.7141   24.2815 H   0  0  0  0  0  0  0  0  0  0  0  0
   10.6502    1.7003   22.8412 H   0  0  0  0  0  0  0  0  0  0  0  0
    8.7027    0.7972   23.4026 H   0  0  0  0  0  0  0  0  0  0  0  0
    8.0713   -1.6185   21.0737 H   0  0  0  0  0  0  0  0  0  0  0  0
  1  2  1  0  0  0  0
  1  3  2  0  0  0  0
  2  4  2  0  0  0  0
  3  5  1  0  0  0  0
  4 11  1  0  0  0  0
  5 11  2  0  0  0  0
  6  8  2  0  0  0  0
  6 10  1  0  0  0  0
  7  9  1  0  0  0  0
  7 10  2  0  0  0  0
  8 12  1  0  0  0  0
  9 12  2  0  0  0  0
 10 20  1  0  0  0  0
 11 21  1  0  0  0  0
 12 22  1  0  0  0  0
 13 14  2  0  0  0  0
 13 15  1  0  0  0  0
 13 25  1  0  0  0  0
 14 23  1  0  0  0  0
 14 26  1  0  0  0  0
 15 16  2  0  0  0  0
 16 17  1  0  0  0  0
 17 18  2  0  0  0  0
 18 25  1  0  0  0  0
 19 22  1  0  0  0  0
 19 26  1  0  0  0  0
 19 27  2  0  0  0  0
 21 22  1  1  0  0  0
 23 24  2  0  0  0  0
 24 25  1  0  0  0  0
  1 28  1  0  0  0  0
  2 29  1  0  0  0  0
  3 30  1  0  0  0  0
  4 31  1  0  0  0  0
  5 32  1  0  0  0  0
  6 33  1  0  0  0  0
  7 34  1  0  0  0  0
  8 35  1  0  0  0  0
  9 36  1  0  0  0  0
 15 37  1  0  0  0  0
 16 38  1  0  0  0  0
 17 39  1  0  0  0  0
 18 40  1  0  0  0  0
 20 41  1  0  0  0  0
 20 42  1  0  0  0  0
 20 43  1  0  0  0  0
 21 44  1  0  0  0  0
 21 45  1  0  0  0  0
 22 46  1  0  0  0  0
 26 47  1  0  0  0  0
M  END
> <clash_score>
0

> <docking_score>
-6.663886070251465

> <overlap_score>
0.8690911531448364

$$$$
BENZO_265_2
  -OEChem-08222022463D

 47 50  0     1  0  0  0  0  0999 V2000
   14.0137   -1.8398   24.3768 C   0  0  0  0  0  0  0  0  0  0  0  0
   13.0361   -1.4844   25.3061 C   0  0  0  0  0  0  0  0  0  0  0  0
   13.9239   -1.3848   23.0613 C   0  0  0  0  0  0  0  0  0  0  0  0
   11.9686   -0.6740   24.9198 C   0  0  0  0  0  0  0  0  0  0  0  0
   12.8563   -0.5744   22.6750 C   0  0  0  0  0  0  0  0  0  0  0  0
    9.1890   -3.5540   24.0140 C   0  0  0  0  0  0  0  0  0  0  0  0
    7.8700   -2.0610   25.3550 C   0  0  0  0  0  0  0  0  0  0  0  0
    9.5890   -2.4950   23.2210 C   0  0  0  0  0  0  0  0  0  0  0  0
    8.2550   -1.0010   24.5520 C   0  0  0  0  0  0  0  0  0  0  0  0
    8.3450   -3.3440   25.0980 C   0  0  0  0  0  0  0  0  0  0  0  0
   11.8786   -0.2190   23.6043 C   0  0  0  0  0  0  0  0  0  0  0  0
    9.1280   -1.2090   23.4870 C   0  0  0  0  0  0  0  0  0  0  0  0
    6.1460    0.6070   19.9750 C   0  0  0  0  0  0  0  0  0  0  0  0
    7.2710   -0.1460   19.8310 C   0  0  0  0  0  0  0  0  0  0  0  0
    5.3890    1.0010   21.0690 C   0  0  0  0  0  0  0  0  0  0  0  0
    4.2460    1.7520   20.8250 C   0  0  0  0  0  0  0  0  0  0  0  0
    3.8860    2.1050   19.5250 C   0  0  0  0  0  0  0  0  0  0  0  0
    4.6610    1.7170   18.4380 C   0  0  0  0  0  0  0  0  0  0  0  0
    9.0430    0.2380   21.4940 C   0  0  0  0  0  0  0  0  0  0  0  0
    7.9517   -4.4787   25.9770 C   0  0  0  0  0  0  0  0  0  0  0  0
   10.7220    0.6590   23.1850 C   0  0  0  0  0  0  0  0  0  0  0  0
    9.5820   -0.1080   22.7000 C   0  0  2  0  0  0  0  0  0  0  0  0
    7.5840   -0.2700   18.5160 N   0  0  0  0  0  0  0  0  0  0  0  0
    6.7100    0.3850   17.8100 N   0  0  0  0  0  0  0  0  0  0  0  0
    5.7970    0.9500   18.6730 N   0  0  0  0  0  0  0  0  0  0  0  0
    8.0950   -0.7700   20.8440 N   0  0  0  0  0  0  0  0  0  0  0  0
    9.2950    1.3000   20.9480 O   0  0  0  0  0  0  0  0  0  0  0  0
   14.8456   -2.4698   24.6781 H   0  0  0  0  0  0  0  0  0  0  0  0
   13.1065   -1.8377   26.3307 H   0  0  0  0  0  0  0  0  0  0  0  0
   14.6854   -1.6605   22.3378 H   0  0  0  0  0  0  0  0  0  0  0  0
   11.2114   -0.4022   25.6506 H   0  0  0  0  0  0  0  0  0  0  0  0
   12.7944   -0.2247   21.6479 H   0  0  0  0  0  0  0  0  0  0  0  0
    9.5416   -4.5625   23.7818 H   0  0  0  0  0  0  0  0  0  0  0  0
    7.1926   -1.8847   26.1916 H   0  0  0  0  0  0  0  0  0  0  0  0
   10.2688   -2.6720   22.3870 H   0  0  0  0  0  0  0  0  0  0  0  0
    7.8705   -0.0015   24.7579 H   0  0  0  0  0  0  0  0  0  0  0  0
    5.6529    0.7487   22.0767 H   0  0  0  0  0  0  0  0  0  0  0  0
    3.6388    2.0586   21.6675 H   0  0  0  0  0  0  0  0  0  0  0  0
    2.9822    2.6968   19.3330 H   0  0  0  0  0  0  0  0  0  0  0  0
    4.4111    1.9893   17.4360 H   0  0  0  0  0  0  0  0  0  0  0  0
    8.6661   -4.5883   26.8021 H   0  0  0  0  0  0  0  0  0  0  0  0
    6.9508   -4.3263   26.4014 H   0  0  0  0  0  0  0  0  0  0  0  0
    7.9188   -5.4228   25.4175 H   0  0  0  0  0  0  0  0  0  0  0  0
   10.4369    1.3080   24.0233 H   0  0  0  0  0  0  0  0  0  0  0  0
   11.0815    1.3384   22.3997 H   0  0  0  0  0  0  0  0  0  0  0  0
   10.5413   -0.9955   22.0233 H   0  0  0  0  0  0  0  0  0  0  0  0
    8.0713   -1.6185   21.0737 H   0  0  0  0  0  0  0  0  0  0  0  0
  1  2  1  0  0  0  0
  1  3  2  0  0  0  0
  2  4  2  0  0  0  0
  3  5  1  0  0  0  0
  4 11  1  0  0  0  0
  5 11  2  0  0  0  0
  6  8  2  0  0  0  0
  6 10  1  0  0  0  0
  7  9  1  0  0  0  0
  7 10  2  0  0  0  0
  8 12  1  0  0  0  0
  9 12  2  0  0  0  0
 10 20  1  0  0  0  0
 11 21  1  0  0  0  0
 12 22  1  0  0  0  0
 13 14  2  0  0  0  0
 13 15  1  0  0  0  0
 13 25  1  0  0  0  0
 14 23  1  0  0  0  0
 14 26  1  0  0  0  0
 15 16  2  0  0  0  0
 16 17  1  0  0  0  0
 17 18  2  0  0  0  0
 18 25  1  0  0  0  0
 19 22  1  0  0  0  0
 19 26  1  0  0  0  0
 19 27  2  0  0  0  0
 21 22  1  6  0  0  0
 23 24  2  0  0  0  0
 24 25  1  0  0  0  0
  1 28  1  0  0  0  0
  2 29  1  0  0  0  0
  3 30  1  0  0  0  0
  4 31  1  0  0  0  0
  5 32  1  0  0  0  0
  6 33  1  0  0  0  0
  7 34  1  0  0  0  0
  8 35  1  0  0  0  0
  9 36  1  0  0  0  0
 15 37  1  0  0  0  0
 16 38  1  0  0  0  0
 17 39  1  0  0  0  0
 18 40  1  0  0  0  0
 20 41  1  0  0  0  0
 20 42  1  0  0  0  0
 20 43  1  0  0  0  0
 21 44  1  0  0  0  0
 21 45  1  0  0  0  0
 22 46  1  0  0  0  0
 26 47  1  0  0  0  0
M  END
> <clash_score>
0

> <docking_score>
-7.5104475021362305

> <overlap_score>
0.8833888173103333

$$$$
BENZO_264_1
  -OEChem-08222022463D

 44 47  0     1  0  0  0  0  0999 V2000
    9.1890   -3.5540   24.0140 C   0  0  0  0  0  0  0  0  0  0  0  0
    7.8700   -2.0610   25.3550 C   0  0  0  0  0  0  0  0  0  0  0  0
    9.5890   -2.4950   23.2210 C   0  0  0  0  0  0  0  0  0  0  0  0
    8.2550   -1.0010   24.5520 C   0  0  0  0  0  0  0  0  0  0  0  0
   13.1058   -0.2791   23.5772 C   0  0  0  0  0  0  0  0  0  0  0  0
   14.1974   -0.7534   22.8836 C   0  0  0  0  0  0  0  0  0  0  0  0
   12.3642   -0.0940   21.3822 C   0  0  0  0  0  0  0  0  0  0  0  0
    8.3450   -3.3440   25.0980 C   0  0  0  0  0  0  0  0  0  0  0  0
    9.1280   -1.2090   23.4870 C   0  0  0  0  0  0  0  0  0  0  0  0
   12.0437    0.1027   22.7075 C   0  0  0  0  0  0  0  0  0  0  0  0
    6.1460    0.6070   19.9750 C   0  0  0  0  0  0  0  0  0  0  0  0
    7.2710   -0.1460   19.8310 C   0  0  0  0  0  0  0  0  0  0  0  0
    5.3890    1.0010   21.0690 C   0  0  0  0  0  0  0  0  0  0  0  0
    4.2460    1.7520   20.8250 C   0  0  0  0  0  0  0  0  0  0  0  0
    3.8860    2.1050   19.5250 C   0  0  0  0  0  0  0  0  0  0  0  0
    4.6610    1.7170   18.4380 C   0  0  0  0  0  0  0  0  0  0  0  0
    9.0430    0.2380   21.4940 C   0  0  0  0  0  0  0  0  0  0  0  0
    7.9517   -4.4787   25.9770 C   0  0  0  0  0  0  0  0  0  0  0  0
   10.7220    0.6590   23.1850 C   0  0  0  0  0  0  0  0  0  0  0  0
    9.5820   -0.1080   22.7000 C   0  0  1  0  0  0  0  0  0  0  0  0
    7.5840   -0.2700   18.5160 N   0  0  0  0  0  0  0  0  0  0  0  0
    6.7100    0.3850   17.8100 N   0  0  0  0  0  0  0  0  0  0  0  0
    5.7970    0.9500   18.6730 N   0  0  0  0  0  0  0  0  0  0  0  0
    8.0950   -0.7700   20.8440 N   0  0  0  0  0  0  0  0  0  0  0  0
    9.2950    1.3000   20.9480 O   0  0  0  0  0  0  0  0  0  0  0  0
   13.9398   -0.7369   21.1908 S   0  0  0  0  0  0  0  0  0  0  0  0
    9.5416   -4.5625   23.7818 H   0  0  0  0  0  0  0  0  0  0  0  0
    7.1926   -1.8847   26.1916 H   0  0  0  0  0  0  0  0  0  0  0  0
   10.2688   -2.6720   22.3870 H   0  0  0  0  0  0  0  0  0  0  0  0
    7.8705   -0.0015   24.7579 H   0  0  0  0  0  0  0  0  0  0  0  0
   13.0750   -0.2107   24.6573 H   0  0  0  0  0  0  0  0  0  0  0  0
   15.1341   -1.1080   23.2899 H   0  0  0  0  0  0  0  0  0  0  0  0
   11.7521    0.1087   20.5143 H   0  0  0  0  0  0  0  0  0  0  0  0
    5.6529    0.7487   22.0767 H   0  0  0  0  0  0  0  0  0  0  0  0
    3.6388    2.0586   21.6675 H   0  0  0  0  0  0  0  0  0  0  0  0
    2.9822    2.6968   19.3330 H   0  0  0  0  0  0  0  0  0  0  0  0
    4.4111    1.9893   17.4360 H   0  0  0  0  0  0  0  0  0  0  0  0
    8.6661   -4.5883   26.8021 H   0  0  0  0  0  0  0  0  0  0  0  0
    6.9508   -4.3263   26.4014 H   0  0  0  0  0  0  0  0  0  0  0  0
    7.9188   -5.4228   25.4175 H   0  0  0  0  0  0  0  0  0  0  0  0
   10.7266    0.7141   24.2815 H   0  0  0  0  0  0  0  0  0  0  0  0
   10.6502    1.7003   22.8412 H   0  0  0  0  0  0  0  0  0  0  0  0
    8.7027    0.7972   23.4026 H   0  0  0  0  0  0  0  0  0  0  0  0
    8.0713   -1.6185   21.0737 H   0  0  0  0  0  0  0  0  0  0  0  0
  1  3  2  0  0  0  0
  1  8  1  0  0  0  0
  2  4  1  0  0  0  0
  2  8  2  0  0  0  0
  3  9  1  0  0  0  0
  4  9  2  0  0  0  0
  5  6  2  0  0  0  0
  5 10  1  0  0  0  0
  6 26  1  0  0  0  0
  7 10  2  0  0  0  0
  7 26  1  0  0  0  0
  8 18  1  0  0  0  0
  9 20  1  0  0  0  0
 10 19  1  0  0  0  0
 11 12  2  0  0  0  0
 11 13  1  0  0  0  0
 11 23  1  0  0  0  0
 12 21  1  0  0  0  0
 12 24  1  0  0  0  0
 13 14  2  0  0  0  0
 14 15  1  0  0  0  0
 15 16  2  0  0  0  0
 16 23  1  0  0  0  0
 17 20  1  0  0  0  0
 17 24  1  0  0  0  0
 17 25  2  0  0  0  0
 19 20  1  1  0  0  0
 21 22  2  0  0  0  0
 22 23  1  0  0  0  0
  1 27  1  0  0  0  0
  2 28  1  0  0  0  0
  3 29  1  0  0  0  0
  4 30  1  0  0  0  0
  5 31  1  0  0  0  0
  6 32  1  0  0  0  0
  7 33  1  0  0  0  0
 13 34  1  0  0  0  0
 14 35  1  0  0  0  0
 15 36  1  0  0  0  0
 16 37  1  0  0  0  0
 18 38  1  0  0  0  0
 18 39  1  0  0  0  0
 18 40  1  0  0  0  0
 19 41  1  0  0  0  0
 19 42  1  0  0  0  0
 20 43  1  0  0  0  0
 24 44  1  0  0  0  0
M  END
> <clash_score>
0

> <docking_score>
-6.7230072021484375

> <overlap_score>
0.8589656352996826

$$$$
BENZO_264_2
  -OEChem-08222022463D

 44 47  0     1  0  0  0  0  0999 V2000
    9.1890   -3.5540   24.0140 C   0  0  0  0  0  0  0  0  0  0  0  0
    7.8700   -2.0610   25.3550 C   0  0  0  0  0  0  0  0  0  0  0  0
    9.5890   -2.4950   23.2210 C   0  0  0  0  0  0  0  0  0  0  0  0
    8.2550   -1.0010   24.5520 C   0  0  0  0  0  0  0  0  0  0  0  0
   12.2697   -1.3786   23.5962 C   0  0  0  0  0  0  0  0  0  0  0  0
   13.0792   -1.9302   24.5647 C   0  0  0  0  0  0  0  0  0  0  0  0
   12.0282    0.1612   25.3205 C   0  0  0  0  0  0  0  0  0  0  0  0
    8.3450   -3.3440   25.0980 C   0  0  0  0  0  0  0  0  0  0  0  0
    9.1280   -1.2090   23.4870 C   0  0  0  0  0  0  0  0  0  0  0  0
   11.6609   -0.1670   24.0339 C   0  0  0  0  0  0  0  0  0  0  0  0
    6.1460    0.6070   19.9750 C   0  0  0  0  0  0  0  0  0  0  0  0
    7.2710   -0.1460   19.8310 C   0  0  0  0  0  0  0  0  0  0  0  0
    5.3890    1.0010   21.0690 C   0  0  0  0  0  0  0  0  0  0  0  0
    4.2460    1.7520   20.8250 C   0  0  0  0  0  0  0  0  0  0  0  0
    3.8860    2.1050   19.5250 C   0  0  0  0  0  0  0  0  0  0  0  0
    4.6610    1.7170   18.4380 C   0  0  0  0  0  0  0  0  0  0  0  0
    9.0430    0.2380   21.4940 C   0  0  0  0  0  0  0  0  0  0  0  0
    7.9517   -4.4787   25.9770 C   0  0  0  0  0  0  0  0  0  0  0  0
   10.7220    0.6590   23.1850 C   0  0  0  0  0  0  0  0  0  0  0  0
    9.5820   -0.1080   22.7000 C   0  0  2  0  0  0  0  0  0  0  0  0
    7.5840   -0.2700   18.5160 N   0  0  0  0  0  0  0  0  0  0  0  0
    6.7100    0.3850   17.8100 N   0  0  0  0  0  0  0  0  0  0  0  0
    5.7970    0.9500   18.6730 N   0  0  0  0  0  0  0  0  0  0  0  0
    8.0950   -0.7700   20.8440 N   0  0  0  0  0  0  0  0  0  0  0  0
    9.2950    1.3000   20.9480 O   0  0  0  0  0  0  0  0  0  0  0  0
   13.1030   -0.9887   25.9949 S   0  0  0  0  0  0  0  0  0  0  0  0
    9.5416   -4.5625   23.7818 H   0  0  0  0  0  0  0  0  0  0  0  0
    7.1926   -1.8847   26.1916 H   0  0  0  0  0  0  0  0  0  0  0  0
   10.2688   -2.6720   22.3870 H   0  0  0  0  0  0  0  0  0  0  0  0
    7.8705   -0.0015   24.7579 H   0  0  0  0  0  0  0  0  0  0  0  0
   12.1237   -1.8267   22.6214 H   0  0  0  0  0  0  0  0  0  0  0  0
   13.6572   -2.8413   24.5012 H   0  0  0  0  0  0  0  0  0  0  0  0
   11.7183    1.0194   25.9006 H   0  0  0  0  0  0  0  0  0  0  0  0
    5.6529    0.7487   22.0767 H   0  0  0  0  0  0  0  0  0  0  0  0
    3.6388    2.0586   21.6675 H   0  0  0  0  0  0  0  0  0  0  0  0
    2.9822    2.6968   19.3330 H   0  0  0  0  0  0  0  0  0  0  0  0
    4.4111    1.9893   17.4360 H   0  0  0  0  0  0  0  0  0  0  0  0
    8.6661   -4.5883   26.8021 H   0  0  0  0  0  0  0  0  0  0  0  0
    6.9508   -4.3263   26.4014 H   0  0  0  0  0  0  0  0  0  0  0  0
    7.9188   -5.4228   25.4175 H   0  0  0  0  0  0  0  0  0  0  0  0
   10.3958    1.5383   23.7557 H   0  0  0  0  0  0  0  0  0  0  0  0
   11.2964    1.0584   22.3376 H   0  0  0  0  0  0  0  0  0  0  0  0
   10.5413   -0.9955   22.0233 H   0  0  0  0  0  0  0  0  0  0  0  0
    8.0713   -1.6185   21.0737 H   0  0  0  0  0  0  0  0  0  0  0  0
  1  3  2  0  0  0  0
  1  8  1  0  0  0  0
  2  4  1  0  0  0  0
  2  8  2  0  0  0  0
  3  9  1  0  0  0  0
  4  9  2  0  0  0  0
  5  6  2  0  0  0  0
  5 10  1  0  0  0  0
  6 26  1  0  0  0  0
  7 10  2  0  0  0  0
  7 26  1  0  0  0  0
  8 18  1  0  0  0  0
  9 20  1  0  0  0  0
 10 19  1  0  0  0  0
 11 12  2  0  0  0  0
 11 13  1  0  0  0  0
 11 23  1  0  0  0  0
 12 21  1  0  0  0  0
 12 24  1  0  0  0  0
 13 14  2  0  0  0  0
 14 15  1  0  0  0  0
 15 16  2  0  0  0  0
 16 23  1  0  0  0  0
 17 20  1  0  0  0  0
 17 24  1  0  0  0  0
 17 25  2  0  0  0  0
 19 20  1  6  0  0  0
 21 22  2  0  0  0  0
 22 23  1  0  0  0  0
  1 27  1  0  0  0  0
  2 28  1  0  0  0  0
  3 29  1  0  0  0  0
  4 30  1  0  0  0  0
  5 31  1  0  0  0  0
  6 32  1  0  0  0  0
  7 33  1  0  0  0  0
 13 34  1  0  0  0  0
 14 35  1  0  0  0  0
 15 36  1  0  0  0  0
 16 37  1  0  0  0  0
 18 38  1  0  0  0  0
 18 39  1  0  0  0  0
 18 40  1  0  0  0  0
 19 41  1  0  0  0  0
 19 42  1  0  0  0  0
 20 43  1  0  0  0  0
 24 44  1  0  0  0  0
M  END
> <clash_score>
0

> <docking_score>
-5.343935966491699

> <overlap_score>
0.8264032602310181

$$$$
BENZO_263_1
  -OEChem-08222022463D

 59 63  0     1  0  0  0  0  0999 V2000
    9.5890   -2.4950   23.2210 C   0  0  0  0  0  0  0  0  0  0  0  0
    8.2550   -1.0010   24.5520 C   0  0  0  0  0  0  0  0  0  0  0  0
    9.1890   -3.5540   24.0140 C   0  0  0  0  0  0  0  0  0  0  0  0
    7.8700   -2.0610   25.3550 C   0  0  0  0  0  0  0  0  0  0  0  0
   13.2924    0.1786   23.3840 C   0  0  0  0  0  0  0  0  0  0  0  0
   12.3227   -0.5596   21.5537 C   0  0  0  0  0  0  0  0  0  0  0  0
    9.1280   -1.2090   23.4870 C   0  0  0  0  0  0  0  0  0  0  0  0
   12.0528    0.1138   22.7200 C   0  0  0  0  0  0  0  0  0  0  0  0
    8.3450   -3.3440   25.0980 C   0  0  0  0  0  0  0  0  0  0  0  0
    6.1460    0.6070   19.9750 C   0  0  0  0  0  0  0  0  0  0  0  0
    7.2710   -0.1460   19.8310 C   0  0  0  0  0  0  0  0  0  0  0  0
    5.3890    1.0010   21.0690 C   0  0  0  0  0  0  0  0  0  0  0  0
    4.2460    1.7520   20.8250 C   0  0  0  0  0  0  0  0  0  0  0  0
    3.8860    2.1050   19.5250 C   0  0  0  0  0  0  0  0  0  0  0  0
    4.6610    1.7170   18.4380 C   0  0  0  0  0  0  0  0  0  0  0  0
    9.0430    0.2380   21.4940 C   0  0  0  0  0  0  0  0  0  0  0  0
    7.9496   -4.9537   28.7345 C   0  0  0  0  0  0  0  0  0  0  0  0
    6.8919   -4.0607   28.0818 C   0  0  0  0  0  0  0  0  0  0  0  0
    9.2470   -4.9693   27.9230 C   0  0  0  0  0  0  0  0  0  0  0  0
    6.6889   -4.4385   26.6147 C   0  0  0  0  0  0  0  0  0  0  0  0
    8.9871   -5.3207   26.4549 C   0  0  0  0  0  0  0  0  0  0  0  0
   14.4073   -1.5491   20.5768 C   0  0  0  0  0  0  0  0  0  0  0  0
   10.7220    0.6590   23.1850 C   0  0  0  0  0  0  0  0  0  0  0  0
    9.5820   -0.1080   22.7000 C   0  0  1  0  0  0  0  0  0  0  0  0
   14.2767   -0.4070   22.6967 N   0  0  0  0  0  0  0  0  0  0  0  0
    7.5840   -0.2700   18.5160 N   0  0  0  0  0  0  0  0  0  0  0  0
    6.7100    0.3850   17.8100 N   0  0  0  0  0  0  0  0  0  0  0  0
   13.6557   -0.8463   21.5888 N   0  0  0  0  0  0  0  0  0  0  0  0
    5.7970    0.9500   18.6730 N   0  0  0  0  0  0  0  0  0  0  0  0
    7.9769   -4.4027   25.9163 N   0  0  0  0  0  0  0  0  0  0  0  0
    8.0950   -0.7700   20.8440 N   0  0  0  0  0  0  0  0  0  0  0  0
    9.2950    1.3000   20.9480 O   0  0  0  0  0  0  0  0  0  0  0  0
   10.2684   -2.6719   22.3867 H   0  0  0  0  0  0  0  0  0  0  0  0
    7.8717   -0.0016   24.7596 H   0  0  0  0  0  0  0  0  0  0  0  0
    9.5443   -4.5616   23.7817 H   0  0  0  0  0  0  0  0  0  0  0  0
    7.1921   -1.8821   26.1908 H   0  0  0  0  0  0  0  0  0  0  0  0
   13.5219    0.6268   24.3404 H   0  0  0  0  0  0  0  0  0  0  0  0
   11.6952   -0.8530   20.7231 H   0  0  0  0  0  0  0  0  0  0  0  0
    5.6529    0.7487   22.0767 H   0  0  0  0  0  0  0  0  0  0  0  0
    3.6388    2.0586   21.6675 H   0  0  0  0  0  0  0  0  0  0  0  0
    2.9822    2.6968   19.3330 H   0  0  0  0  0  0  0  0  0  0  0  0
    4.4111    1.9893   17.4360 H   0  0  0  0  0  0  0  0  0  0  0  0
    8.1558   -4.5961   29.7550 H   0  0  0  0  0  0  0  0  0  0  0  0
    7.5611   -5.9778   28.8324 H   0  0  0  0  0  0  0  0  0  0  0  0
    5.9459   -4.1594   28.6209 H   0  0  0  0  0  0  0  0  0  0  0  0
    7.2011   -3.0160   28.1536 H   0  0  0  0  0  0  0  0  0  0  0  0
    9.7290   -3.9880   27.9846 H   0  0  0  0  0  0  0  0  0  0  0  0
    9.9437   -5.6964   28.3562 H   0  0  0  0  0  0  0  0  0  0  0  0
    6.2543   -5.4402   26.5659 H   0  0  0  0  0  0  0  0  0  0  0  0
    5.9909   -3.7397   26.1451 H   0  0  0  0  0  0  0  0  0  0  0  0
    9.9128   -5.2367   25.8843 H   0  0  0  0  0  0  0  0  0  0  0  0
    8.6365   -6.3517   26.3987 H   0  0  0  0  0  0  0  0  0  0  0  0
   14.7895   -0.8108   19.8669 H   0  0  0  0  0  0  0  0  0  0  0  0
   15.2329   -2.0907   21.0468 H   0  0  0  0  0  0  0  0  0  0  0  0
   13.7520   -2.2637   20.0711 H   0  0  0  0  0  0  0  0  0  0  0  0
   10.7177    0.7189   24.2812 H   0  0  0  0  0  0  0  0  0  0  0  0
   10.6426    1.6980   22.8361 H   0  0  0  0  0  0  0  0  0  0  0  0
    8.7036    0.8022   23.4008 H   0  0  0  0  0  0  0  0  0  0  0  0
    8.0917   -1.6083   21.0911 H   0  0  0  0  0  0  0  0  0  0  0  0
  1  3  2  0  0  0  0
  1  7  1  0  0  0  0
  2  4  1  0  0  0  0
  2  7  2  0  0  0  0
  3  9  1  0  0  0  0
  4  9  2  0  0  0  0
  5  8  1  0  0  0  0
  5 25  2  0  0  0  0
  6  8  2  0  0  0  0
  6 28  1  0  0  0  0
  7 24  1  0  0  0  0
  8 23  1  0  0  0  0
  9 30  1  0  0  0  0
 10 11  2  0  0  0  0
 10 12  1  0  0  0  0
 10 29  1  0  0  0  0
 11 26  1  0  0  0  0
 11 31  1  0  0  0  0
 12 13  2  0  0  0  0
 13 14  1  0  0  0  0
 14 15  2  0  0  0  0
 15 29  1  0  0  0  0
 16 24  1  0  0  0  0
 16 31  1  0  0  0  0
 16 32  2  0  0  0  0
 17 18  1  0  0  0  0
 17 19  1  0  0  0  0
 18 20  1  0  0  0  0
 19 21  1  0  0  0  0
 20 30  1  0  0  0  0
 21 30  1  0  0  0  0
 22 28  1  0  0  0  0
 23 24  1  1  0  0  0
 25 28  1  0  0  0  0
 26 27  2  0  0  0  0
 27 29  1  0  0  0  0
  1 33  1  0  0  0  0
  2 34  1  0  0  0  0
  3 35  1  0  0  0  0
  4 36  1  0  0  0  0
  5 37  1  0  0  0  0
  6 38  1  0  0  0  0
 12 39  1  0  0  0  0
 13 40  1  0  0  0  0
 14 41  1  0  0  0  0
 15 42  1  0  0  0  0
 17 43  1  0  0  0  0
 17 44  1  0  0  0  0
 18 45  1  0  0  0  0
 18 46  1  0  0  0  0
 19 47  1  0  0  0  0
 19 48  1  0  0  0  0
 20 49  1  0  0  0  0
 20 50  1  0  0  0  0
 21 51  1  0  0  0  0
 21 52  1  0  0  0  0
 22 53  1  0  0  0  0
 22 54  1  0  0  0  0
 22 55  1  0  0  0  0
 23 56  1  0  0  0  0
 23 57  1  0  0  0  0
 24 58  1  0  0  0  0
 31 59  1  0  0  0  0
M  END
> <clash_score>
0

> <docking_score>
-8.850218772888184

> <overlap_score>
0.9499579668045044

$$$$
BENZO_263_2
  -OEChem-08222022463D

 59 63  0     1  0  0  0  0  0999 V2000
    9.5890   -2.4950   23.2210 C   0  0  0  0  0  0  0  0  0  0  0  0
    8.2550   -1.0010   24.5520 C   0  0  0  0  0  0  0  0  0  0  0  0
    9.1890   -3.5540   24.0140 C   0  0  0  0  0  0  0  0  0  0  0  0
    7.8700   -2.0610   25.3550 C   0  0  0  0  0  0  0  0  0  0  0  0
   12.1478   -0.7466   24.8788 C   0  0  0  0  0  0  0  0  0  0  0  0
   12.9365   -0.6363   22.8292 C   0  0  0  0  0  0  0  0  0  0  0  0
    9.1280   -1.2090   23.4870 C   0  0  0  0  0  0  0  0  0  0  0  0
   11.8895   -0.2037   23.6058 C   0  0  0  0  0  0  0  0  0  0  0  0
    8.3450   -3.3440   25.0980 C   0  0  0  0  0  0  0  0  0  0  0  0
    6.1460    0.6070   19.9750 C   0  0  0  0  0  0  0  0  0  0  0  0
    7.2710   -0.1460   19.8310 C   0  0  0  0  0  0  0  0  0  0  0  0
    5.3890    1.0010   21.0690 C   0  0  0  0  0  0  0  0  0  0  0  0
    4.2460    1.7520   20.8250 C   0  0  0  0  0  0  0  0  0  0  0  0
    3.8860    2.1050   19.5250 C   0  0  0  0  0  0  0  0  0  0  0  0
    4.6610    1.7170   18.4380 C   0  0  0  0  0  0  0  0  0  0  0  0
    9.0430    0.2380   21.4940 C   0  0  0  0  0  0  0  0  0  0  0  0
    7.9496   -4.9537   28.7345 C   0  0  0  0  0  0  0  0  0  0  0  0
    6.8919   -4.0607   28.0818 C   0  0  0  0  0  0  0  0  0  0  0  0
    9.2470   -4.9693   27.9230 C   0  0  0  0  0  0  0  0  0  0  0  0
    6.6889   -4.4385   26.6147 C   0  0  0  0  0  0  0  0  0  0  0  0
    8.9871   -5.3207   26.4549 C   0  0  0  0  0  0  0  0  0  0  0  0
   14.9529   -2.0519   23.2864 C   0  0  0  0  0  0  0  0  0  0  0  0
   10.7220    0.6590   23.1850 C   0  0  0  0  0  0  0  0  0  0  0  0
    9.5820   -0.1080   22.7000 C   0  0  2  0  0  0  0  0  0  0  0  0
   13.2706   -1.4691   24.9131 N   0  0  0  0  0  0  0  0  0  0  0  0
    7.5840   -0.2700   18.5160 N   0  0  0  0  0  0  0  0  0  0  0  0
    6.7100    0.3850   17.8100 N   0  0  0  0  0  0  0  0  0  0  0  0
   13.7272   -1.3833   23.6520 N   0  0  0  0  0  0  0  0  0  0  0  0
    5.7970    0.9500   18.6730 N   0  0  0  0  0  0  0  0  0  0  0  0
    7.9769   -4.4027   25.9163 N   0  0  0  0  0  0  0  0  0  0  0  0
    8.0950   -0.7700   20.8440 N   0  0  0  0  0  0  0  0  0  0  0  0
    9.2950    1.3000   20.9480 O   0  0  0  0  0  0  0  0  0  0  0  0
   10.2684   -2.6719   22.3867 H   0  0  0  0  0  0  0  0  0  0  0  0
    7.8717   -0.0016   24.7596 H   0  0  0  0  0  0  0  0  0  0  0  0
    9.5443   -4.5616   23.7817 H   0  0  0  0  0  0  0  0  0  0  0  0
    7.1921   -1.8821   26.1908 H   0  0  0  0  0  0  0  0  0  0  0  0
   11.5656   -0.6480   25.7841 H   0  0  0  0  0  0  0  0  0  0  0  0
   13.1794   -0.4813   21.7867 H   0  0  0  0  0  0  0  0  0  0  0  0
    5.6529    0.7487   22.0767 H   0  0  0  0  0  0  0  0  0  0  0  0
    3.6388    2.0586   21.6675 H   0  0  0  0  0  0  0  0  0  0  0  0
    2.9822    2.6968   19.3330 H   0  0  0  0  0  0  0  0  0  0  0  0
    4.4111    1.9893   17.4360 H   0  0  0  0  0  0  0  0  0  0  0  0
    8.1558   -4.5961   29.7550 H   0  0  0  0  0  0  0  0  0  0  0  0
    7.5611   -5.9778   28.8324 H   0  0  0  0  0  0  0  0  0  0  0  0
    5.9459   -4.1594   28.6209 H   0  0  0  0  0  0  0  0  0  0  0  0
    7.2011   -3.0160   28.1536 H   0  0  0  0  0  0  0  0  0  0  0  0
    9.7290   -3.9880   27.9846 H   0  0  0  0  0  0  0  0  0  0  0  0
    9.9437   -5.6964   28.3562 H   0  0  0  0  0  0  0  0  0  0  0  0
    6.2543   -5.4402   26.5659 H   0  0  0  0  0  0  0  0  0  0  0  0
    5.9909   -3.7397   26.1451 H   0  0  0  0  0  0  0  0  0  0  0  0
    9.9128   -5.2367   25.8843 H   0  0  0  0  0  0  0  0  0  0  0  0
    8.6365   -6.3517   26.3987 H   0  0  0  0  0  0  0  0  0  0  0  0
   15.7795   -1.3567   23.4548 H   0  0  0  0  0  0  0  0  0  0  0  0
   15.0760   -2.9481   23.9008 H   0  0  0  0  0  0  0  0  0  0  0  0
   14.9053   -2.3433   22.2334 H   0  0  0  0  0  0  0  0  0  0  0  0
   10.4315    1.3089   24.0208 H   0  0  0  0  0  0  0  0  0  0  0  0
   11.0719    1.3385   22.3955 H   0  0  0  0  0  0  0  0  0  0  0  0
   10.5438   -0.9939   22.0202 H   0  0  0  0  0  0  0  0  0  0  0  0
    8.0917   -1.6083   21.0911 H   0  0  0  0  0  0  0  0  0  0  0  0
  1  3  2  0  0  0  0
  1  7  1  0  0  0  0
  2  4  1  0  0  0  0
  2  7  2  0  0  0  0
  3  9  1  0  0  0  0
  4  9  2  0  0  0  0
  5  8  1  0  0  0  0
  5 25  2  0  0  0  0
  6  8  2  0  0  0  0
  6 28  1  0  0  0  0
  7 24  1  0  0  0  0
  8 23  1  0  0  0  0
  9 30  1  0  0  0  0
 10 11  2  0  0  0  0
 10 12  1  0  0  0  0
 10 29  1  0  0  0  0
 11 26  1  0  0  0  0
 11 31  1  0  0  0  0
 12 13  2  0  0  0  0
 13 14  1  0  0  0  0
 14 15  2  0  0  0  0
 15 29  1  0  0  0  0
 16 24  1  0  0  0  0
 16 31  1  0  0  0  0
 16 32  2  0  0  0  0
 17 18  1  0  0  0  0
 17 19  1  0  0  0  0
 18 20  1  0  0  0  0
 19 21  1  0  0  0  0
 20 30  1  0  0  0  0
 21 30  1  0  0  0  0
 22 28  1  0  0  0  0
 23 24  1  6  0  0  0
 25 28  1  0  0  0  0
 26 27  2  0  0  0  0
 27 29  1  0  0  0  0
  1 33  1  0  0  0  0
  2 34  1  0  0  0  0
  3 35  1  0  0  0  0
  4 36  1  0  0  0  0
  5 37  1  0  0  0  0
  6 38  1  0  0  0  0
 12 39  1  0  0  0  0
 13 40  1  0  0  0  0
 14 41  1  0  0  0  0
 15 42  1  0  0  0  0
 17 43  1  0  0  0  0
 17 44  1  0  0  0  0
 18 45  1  0  0  0  0
 18 46  1  0  0  0  0
 19 47  1  0  0  0  0
 19 48  1  0  0  0  0
 20 49  1  0  0  0  0
 20 50  1  0  0  0  0
 21 51  1  0  0  0  0
 21 52  1  0  0  0  0
 22 53  1  0  0  0  0
 22 54  1  0  0  0  0
 22 55  1  0  0  0  0
 23 56  1  0  0  0  0
 23 57  1  0  0  0  0
 24 58  1  0  0  0  0
 31 59  1  0  0  0  0
M  END
> <clash_score>
0

> <docking_score>
-7.379918098449707

> <overlap_score>
0.9732677340507507

$$$$
BENZO_262_2
  -OEChem-08222022463D

 59 63  0     1  0  0  0  0  0999 V2000
   13.8403    0.0639   21.0955 C   0  0  0  0  0  0  0  0  0  0  0  0
   12.6117    0.5658   21.5246 C   0  0  0  0  0  0  0  0  0  0  0  0
    9.5890   -2.4950   23.2210 C   0  0  0  0  0  0  0  0  0  0  0  0
    8.2550   -1.0010   24.5520 C   0  0  0  0  0  0  0  0  0  0  0  0
    9.1890   -3.5540   24.0140 C   0  0  0  0  0  0  0  0  0  0  0  0
    7.8700   -2.0610   25.3550 C   0  0  0  0  0  0  0  0  0  0  0  0
   14.5100   -0.8902   21.8617 C   0  0  0  0  0  0  0  0  0  0  0  0
   12.7225   -0.8403   23.4863 C   0  0  0  0  0  0  0  0  0  0  0  0
    9.1280   -1.2090   23.4870 C   0  0  0  0  0  0  0  0  0  0  0  0
   12.0528    0.1138   22.7200 C   0  0  0  0  0  0  0  0  0  0  0  0
    8.3450   -3.3440   25.0980 C   0  0  0  0  0  0  0  0  0  0  0  0
   13.9511   -1.3422   23.0571 C   0  0  0  0  0  0  0  0  0  0  0  0
    6.1460    0.6070   19.9750 C   0  0  0  0  0  0  0  0  0  0  0  0
    7.2710   -0.1460   19.8310 C   0  0  0  0  0  0  0  0  0  0  0  0
    5.3890    1.0010   21.0690 C   0  0  0  0  0  0  0  0  0  0  0  0
    4.2460    1.7520   20.8250 C   0  0  0  0  0  0  0  0  0  0  0  0
    3.8860    2.1050   19.5250 C   0  0  0  0  0  0  0  0  0  0  0  0
    4.6610    1.7170   18.4380 C   0  0  0  0  0  0  0  0  0  0  0  0
    9.0430    0.2380   21.4940 C   0  0  0  0  0  0  0  0  0  0  0  0
    7.9496   -4.9537   28.7345 C   0  0  0  0  0  0  0  0  0  0  0  0
    6.8919   -4.0607   28.0818 C   0  0  0  0  0  0  0  0  0  0  0  0
    9.2470   -4.9693   27.9230 C   0  0  0  0  0  0  0  0  0  0  0  0
    6.6889   -4.4385   26.6147 C   0  0  0  0  0  0  0  0  0  0  0  0
    8.9871   -5.3207   26.4549 C   0  0  0  0  0  0  0  0  0  0  0  0
   10.7220    0.6590   23.1850 C   0  0  0  0  0  0  0  0  0  0  0  0
    9.5820   -0.1080   22.7000 C   0  0  2  0  0  0  0  0  0  0  0  0
    7.5840   -0.2700   18.5160 N   0  0  0  0  0  0  0  0  0  0  0  0
    6.7100    0.3850   17.8100 N   0  0  0  0  0  0  0  0  0  0  0  0
    5.7970    0.9500   18.6730 N   0  0  0  0  0  0  0  0  0  0  0  0
    7.9769   -4.4027   25.9163 N   0  0  0  0  0  0  0  0  0  0  0  0
    8.0950   -0.7700   20.8440 N   0  0  0  0  0  0  0  0  0  0  0  0
    9.2950    1.3000   20.9480 O   0  0  0  0  0  0  0  0  0  0  0  0
   14.7783   -2.5184   24.0025 Cl  0  0  0  0  0  0  0  0  0  0  0  0
   14.2752    0.4162   20.1647 H   0  0  0  0  0  0  0  0  0  0  0  0
   12.0969    1.3090   20.9213 H   0  0  0  0  0  0  0  0  0  0  0  0
   10.2684   -2.6719   22.3867 H   0  0  0  0  0  0  0  0  0  0  0  0
    7.8717   -0.0016   24.7596 H   0  0  0  0  0  0  0  0  0  0  0  0
    9.5443   -4.5616   23.7817 H   0  0  0  0  0  0  0  0  0  0  0  0
    7.1921   -1.8821   26.1908 H   0  0  0  0  0  0  0  0  0  0  0  0
   15.4670   -1.2723   21.5150 H   0  0  0  0  0  0  0  0  0  0  0  0
   12.2822   -1.1898   24.4173 H   0  0  0  0  0  0  0  0  0  0  0  0
    5.6529    0.7487   22.0767 H   0  0  0  0  0  0  0  0  0  0  0  0
    3.6388    2.0586   21.6675 H   0  0  0  0  0  0  0  0  0  0  0  0
    2.9822    2.6968   19.3330 H   0  0  0  0  0  0  0  0  0  0  0  0
    4.4111    1.9893   17.4360 H   0  0  0  0  0  0  0  0  0  0  0  0
    8.1558   -4.5961   29.7550 H   0  0  0  0  0  0  0  0  0  0  0  0
    7.5611   -5.9778   28.8324 H   0  0  0  0  0  0  0  0  0  0  0  0
    5.9459   -4.1594   28.6209 H   0  0  0  0  0  0  0  0  0  0  0  0
    7.2011   -3.0160   28.1536 H   0  0  0  0  0  0  0  0  0  0  0  0
    9.7290   -3.9880   27.9846 H   0  0  0  0  0  0  0  0  0  0  0  0
    9.9437   -5.6964   28.3562 H   0  0  0  0  0  0  0  0  0  0  0  0
    6.2543   -5.4402   26.5659 H   0  0  0  0  0  0  0  0  0  0  0  0
    5.9909   -3.7397   26.1451 H   0  0  0  0  0  0  0  0  0  0  0  0
    9.9128   -5.2367   25.8843 H   0  0  0  0  0  0  0  0  0  0  0  0
    8.6365   -6.3517   26.3987 H   0  0  0  0  0  0  0  0  0  0  0  0
   10.7177    0.7189   24.2812 H   0  0  0  0  0  0  0  0  0  0  0  0
   10.6426    1.6980   22.8361 H   0  0  0  0  0  0  0  0  0  0  0  0
    8.7036    0.8022   23.4008 H   0  0  0  0  0  0  0  0  0  0  0  0
    8.0917   -1.6083   21.0911 H   0  0  0  0  0  0  0  0  0  0  0  0
  1  2  2  0  0  0  0
  1  7  1  0  0  0  0
  2 10  1  0  0  0  0
  3  5  2  0  0  0  0
  3  9  1  0  0  0  0
  4  6  1  0  0  0  0
  4  9  2  0  0  0  0
  5 11  1  0  0  0  0
  6 11  2  0  0  0  0
  7 12  2  0  0  0  0
  8 10  2  0  0  0  0
  8 12  1  0  0  0  0
  9 26  1  0  0  0  0
 10 25  1  0  0  0  0
 11 30  1  0  0  0  0
 12 33  1  0  0  0  0
 13 14  2  0  0  0  0
 13 15  1  0  0  0  0
 13 29  1  0  0  0  0
 14 27  1  0  0  0  0
 14 31  1  0  0  0  0
 15 16  2  0  0  0  0
 16 17  1  0  0  0  0
 17 18  2  0  0  0  0
 18 29  1  0  0  0  0
 19 26  1  6  0  0  0
 19 31  1  0  0  0  0
 19 32  2  0  0  0  0
 20 21  1  0  0  0  0
 20 22  1  0  0  0  0
 21 23  1  0  0  0  0
 22 24  1  0  0  0  0
 23 30  1  0  0  0  0
 24 30  1  0  0  0  0
 25 26  1  0  0  0  0
 27 28  2  0  0  0  0
 28 29  1  0  0  0  0
  1 34  1  0  0  0  0
  2 35  1  0  0  0  0
  3 36  1  0  0  0  0
  4 37  1  0  0  0  0
  5 38  1  0  0  0  0
  6 39  1  0  0  0  0
  7 40  1  0  0  0  0
  8 41  1  0  0  0  0
 15 42  1  0  0  0  0
 16 43  1  0  0  0  0
 17 44  1  0  0  0  0
 18 45  1  0  0  0  0
 20 46  1  0  0  0  0
 20 47  1  0  0  0  0
 21 48  1  0  0  0  0
 21 49  1  0  0  0  0
 22 50  1  0  0  0  0
 22 51  1  0  0  0  0
 23 52  1  0  0  0  0
 23 53  1  0  0  0  0
 24 54  1  0  0  0  0
 24 55  1  0  0  0  0
 25 56  1  0  0  0  0
 25 57  1  0  0  0  0
 26 58  1  0  0  0  0
 31 59  1  0  0  0  0
M  END
> <clash_score>
0

> <docking_score>
-6.808809280395508

> <overlap_score>
0.9647058248519897

$$$$
BENZO_262_1
  -OEChem-08222022463D

 59 63  0     1  0  0  0  0  0999 V2000
   13.0607   -1.4512   25.3114 C   0  0  0  0  0  0  0  0  0  0  0  0
   11.9842   -0.6540   24.9226 C   0  0  0  0  0  0  0  0  0  0  0  0
    9.5890   -2.4950   23.2210 C   0  0  0  0  0  0  0  0  0  0  0  0
    8.2550   -1.0010   24.5520 C   0  0  0  0  0  0  0  0  0  0  0  0
    9.1890   -3.5540   24.0140 C   0  0  0  0  0  0  0  0  0  0  0  0
    7.8700   -2.0610   25.3550 C   0  0  0  0  0  0  0  0  0  0  0  0
   14.0427   -1.7979   24.3834 C   0  0  0  0  0  0  0  0  0  0  0  0
   12.8715   -0.5505   22.6778 C   0  0  0  0  0  0  0  0  0  0  0  0
    9.1280   -1.2090   23.4870 C   0  0  0  0  0  0  0  0  0  0  0  0
   11.8895   -0.2037   23.6058 C   0  0  0  0  0  0  0  0  0  0  0  0
    8.3450   -3.3440   25.0980 C   0  0  0  0  0  0  0  0  0  0  0  0
   13.9481   -1.3476   23.0666 C   0  0  0  0  0  0  0  0  0  0  0  0
    6.1460    0.6070   19.9750 C   0  0  0  0  0  0  0  0  0  0  0  0
    7.2710   -0.1460   19.8310 C   0  0  0  0  0  0  0  0  0  0  0  0
    5.3890    1.0010   21.0690 C   0  0  0  0  0  0  0  0  0  0  0  0
    4.2460    1.7520   20.8250 C   0  0  0  0  0  0  0  0  0  0  0  0
    3.8860    2.1050   19.5250 C   0  0  0  0  0  0  0  0  0  0  0  0
    4.6610    1.7170   18.4380 C   0  0  0  0  0  0  0  0  0  0  0  0
    9.0430    0.2380   21.4940 C   0  0  0  0  0  0  0  0  0  0  0  0
    7.9496   -4.9537   28.7345 C   0  0  0  0  0  0  0  0  0  0  0  0
    6.8919   -4.0607   28.0818 C   0  0  0  0  0  0  0  0  0  0  0  0
    9.2470   -4.9693   27.9230 C   0  0  0  0  0  0  0  0  0  0  0  0
    6.6889   -4.4385   26.6147 C   0  0  0  0  0  0  0  0  0  0  0  0
    8.9871   -5.3207   26.4549 C   0  0  0  0  0  0  0  0  0  0  0  0
   10.7220    0.6590   23.1850 C   0  0  0  0  0  0  0  0  0  0  0  0
    9.5820   -0.1080   22.7000 C   0  0  1  0  0  0  0  0  0  0  0  0
    7.5840   -0.2700   18.5160 N   0  0  0  0  0  0  0  0  0  0  0  0
    6.7100    0.3850   17.8100 N   0  0  0  0  0  0  0  0  0  0  0  0
    5.7970    0.9500   18.6730 N   0  0  0  0  0  0  0  0  0  0  0  0
    7.9769   -4.4027   25.9163 N   0  0  0  0  0  0  0  0  0  0  0  0
    8.0950   -0.7700   20.8440 N   0  0  0  0  0  0  0  0  0  0  0  0
    9.2950    1.3000   20.9480 O   0  0  0  0  0  0  0  0  0  0  0  0
   15.1593   -1.7768   21.9219 Cl  0  0  0  0  0  0  0  0  0  0  0  0
   13.1340   -1.8017   26.3368 H   0  0  0  0  0  0  0  0  0  0  0  0
   11.2236   -0.3888   25.6524 H   0  0  0  0  0  0  0  0  0  0  0  0
   10.2684   -2.6719   22.3867 H   0  0  0  0  0  0  0  0  0  0  0  0
    7.8717   -0.0016   24.7596 H   0  0  0  0  0  0  0  0  0  0  0  0
    9.5443   -4.5616   23.7817 H   0  0  0  0  0  0  0  0  0  0  0  0
    7.1921   -1.8821   26.1908 H   0  0  0  0  0  0  0  0  0  0  0  0
   14.8761   -2.4201   24.7005 H   0  0  0  0  0  0  0  0  0  0  0  0
   12.7934   -0.1965   21.6525 H   0  0  0  0  0  0  0  0  0  0  0  0
    5.6529    0.7487   22.0767 H   0  0  0  0  0  0  0  0  0  0  0  0
    3.6388    2.0586   21.6675 H   0  0  0  0  0  0  0  0  0  0  0  0
    2.9822    2.6968   19.3330 H   0  0  0  0  0  0  0  0  0  0  0  0
    4.4111    1.9893   17.4360 H   0  0  0  0  0  0  0  0  0  0  0  0
    8.1558   -4.5961   29.7550 H   0  0  0  0  0  0  0  0  0  0  0  0
    7.5611   -5.9778   28.8324 H   0  0  0  0  0  0  0  0  0  0  0  0
    5.9459   -4.1594   28.6209 H   0  0  0  0  0  0  0  0  0  0  0  0
    7.2011   -3.0160   28.1536 H   0  0  0  0  0  0  0  0  0  0  0  0
    9.7290   -3.9880   27.9846 H   0  0  0  0  0  0  0  0  0  0  0  0
    9.9437   -5.6964   28.3562 H   0  0  0  0  0  0  0  0  0  0  0  0
    6.2543   -5.4402   26.5659 H   0  0  0  0  0  0  0  0  0  0  0  0
    5.9909   -3.7397   26.1451 H   0  0  0  0  0  0  0  0  0  0  0  0
    9.9128   -5.2367   25.8843 H   0  0  0  0  0  0  0  0  0  0  0  0
    8.6365   -6.3517   26.3987 H   0  0  0  0  0  0  0  0  0  0  0  0
   10.4315    1.3089   24.0208 H   0  0  0  0  0  0  0  0  0  0  0  0
   11.0719    1.3385   22.3955 H   0  0  0  0  0  0  0  0  0  0  0  0
   10.5438   -0.9939   22.0202 H   0  0  0  0  0  0  0  0  0  0  0  0
    8.0917   -1.6083   21.0911 H   0  0  0  0  0  0  0  0  0  0  0  0
  1  2  2  0  0  0  0
  1  7  1  0  0  0  0
  2 10  1  0  0  0  0
  3  5  2  0  0  0  0
  3  9  1  0  0  0  0
  4  6  1  0  0  0  0
  4  9  2  0  0  0  0
  5 11  1  0  0  0  0
  6 11  2  0  0  0  0
  7 12  2  0  0  0  0
  8 10  2  0  0  0  0
  8 12  1  0  0  0  0
  9 26  1  0  0  0  0
 10 25  1  0  0  0  0
 11 30  1  0  0  0  0
 12 33  1  0  0  0  0
 13 14  2  0  0  0  0
 13 15  1  0  0  0  0
 13 29  1  0  0  0  0
 14 27  1  0  0  0  0
 14 31  1  0  0  0  0
 15 16  2  0  0  0  0
 16 17  1  0  0  0  0
 17 18  2  0  0  0  0
 18 29  1  0  0  0  0
 19 26  1  1  0  0  0
 19 31  1  0  0  0  0
 19 32  2  0  0  0  0
 20 21  1  0  0  0  0
 20 22  1  0  0  0  0
 21 23  1  0  0  0  0
 22 24  1  0  0  0  0
 23 30  1  0  0  0  0
 24 30  1  0  0  0  0
 25 26  1  0  0  0  0
 27 28  2  0  0  0  0
 28 29  1  0  0  0  0
  1 34  1  0  0  0  0
  2 35  1  0  0  0  0
  3 36  1  0  0  0  0
  4 37  1  0  0  0  0
  5 38  1  0  0  0  0
  6 39  1  0  0  0  0
  7 40  1  0  0  0  0
  8 41  1  0  0  0  0
 15 42  1  0  0  0  0
 16 43  1  0  0  0  0
 17 44  1  0  0  0  0
 18 45  1  0  0  0  0
 20 46  1  0  0  0  0
 20 47  1  0  0  0  0
 21 48  1  0  0  0  0
 21 49  1  0  0  0  0
 22 50  1  0  0  0  0
 22 51  1  0  0  0  0
 23 52  1  0  0  0  0
 23 53  1  0  0  0  0
 24 54  1  0  0  0  0
 24 55  1  0  0  0  0
 25 56  1  0  0  0  0
 25 57  1  0  0  0  0
 26 58  1  0  0  0  0
 31 59  1  0  0  0  0
M  END
> <clash_score>
0

> <docking_score>
-7.449968338012695

> <overlap_score>
0.9773684144020081

$$$$
BENZO_267_1
  -OEChem-08222022463D

 47 50  0     1  0  0  0  0  0999 V2000
    9.1890   -3.5540   24.0140 C   0  0  0  0  0  0  0  0  0  0  0  0
    7.8700   -2.0610   25.3550 C   0  0  0  0  0  0  0  0  0  0  0  0
    9.5890   -2.4950   23.2210 C   0  0  0  0  0  0  0  0  0  0  0  0
    8.2550   -1.0010   24.5520 C   0  0  0  0  0  0  0  0  0  0  0  0
   12.7477    0.4352   21.5346 C   0  0  0  0  0  0  0  0  0  0  0  0
   12.8294   -0.8403   23.3239 C   0  0  0  0  0  0  0  0  0  0  0  0
    8.3450   -3.3440   25.0980 C   0  0  0  0  0  0  0  0  0  0  0  0
    9.1280   -1.2090   23.4870 C   0  0  0  0  0  0  0  0  0  0  0  0
   12.0437    0.1027   22.7075 C   0  0  0  0  0  0  0  0  0  0  0  0
    6.1460    0.6070   19.9750 C   0  0  0  0  0  0  0  0  0  0  0  0
    7.2710   -0.1460   19.8310 C   0  0  0  0  0  0  0  0  0  0  0  0
    5.3890    1.0010   21.0690 C   0  0  0  0  0  0  0  0  0  0  0  0
    4.2460    1.7520   20.8250 C   0  0  0  0  0  0  0  0  0  0  0  0
    3.8860    2.1050   19.5250 C   0  0  0  0  0  0  0  0  0  0  0  0
    4.6610    1.7170   18.4380 C   0  0  0  0  0  0  0  0  0  0  0  0
    9.0430    0.2380   21.4940 C   0  0  0  0  0  0  0  0  0  0  0  0
    7.9517   -4.4787   25.9770 C   0  0  0  0  0  0  0  0  0  0  0  0
   15.0234   -1.9028   22.7442 C   0  0  0  0  0  0  0  0  0  0  0  0
   10.7220    0.6590   23.1850 C   0  0  0  0  0  0  0  0  0  0  0  0
    9.5820   -0.1080   22.7000 C   0  0  1  0  0  0  0  0  0  0  0  0
   13.8926   -0.2416   21.4111 N   0  0  0  0  0  0  0  0  0  0  0  0
    7.5840   -0.2700   18.5160 N   0  0  0  0  0  0  0  0  0  0  0  0
    6.7100    0.3850   17.8100 N   0  0  0  0  0  0  0  0  0  0  0  0
   13.9141   -1.0086   22.5144 N   0  0  0  0  0  0  0  0  0  0  0  0
    5.7970    0.9500   18.6730 N   0  0  0  0  0  0  0  0  0  0  0  0
    8.0950   -0.7700   20.8440 N   0  0  0  0  0  0  0  0  0  0  0  0
    9.2950    1.3000   20.9480 O   0  0  0  0  0  0  0  0  0  0  0  0
    9.5416   -4.5625   23.7818 H   0  0  0  0  0  0  0  0  0  0  0  0
    7.1926   -1.8847   26.1916 H   0  0  0  0  0  0  0  0  0  0  0  0
   10.2688   -2.6720   22.3870 H   0  0  0  0  0  0  0  0  0  0  0  0
    7.8705   -0.0015   24.7579 H   0  0  0  0  0  0  0  0  0  0  0  0
   12.4767    1.1426   20.7637 H   0  0  0  0  0  0  0  0  0  0  0  0
   12.7125   -1.3913   24.2472 H   0  0  0  0  0  0  0  0  0  0  0  0
    5.6529    0.7487   22.0767 H   0  0  0  0  0  0  0  0  0  0  0  0
    3.6388    2.0586   21.6675 H   0  0  0  0  0  0  0  0  0  0  0  0
    2.9822    2.6968   19.3330 H   0  0  0  0  0  0  0  0  0  0  0  0
    4.4111    1.9893   17.4360 H   0  0  0  0  0  0  0  0  0  0  0  0
    8.6661   -4.5883   26.8021 H   0  0  0  0  0  0  0  0  0  0  0  0
    6.9508   -4.3263   26.4014 H   0  0  0  0  0  0  0  0  0  0  0  0
    7.9188   -5.4228   25.4175 H   0  0  0  0  0  0  0  0  0  0  0  0
   14.7824   -2.8646   22.2839 H   0  0  0  0  0  0  0  0  0  0  0  0
   15.9289   -1.4818   22.2983 H   0  0  0  0  0  0  0  0  0  0  0  0
   15.1758   -2.0203   23.8207 H   0  0  0  0  0  0  0  0  0  0  0  0
   10.7266    0.7141   24.2815 H   0  0  0  0  0  0  0  0  0  0  0  0
   10.6502    1.7003   22.8412 H   0  0  0  0  0  0  0  0  0  0  0  0
    8.7027    0.7972   23.4026 H   0  0  0  0  0  0  0  0  0  0  0  0
    8.0713   -1.6185   21.0737 H   0  0  0  0  0  0  0  0  0  0  0  0
  1  3  2  0  0  0  0
  1  7  1  0  0  0  0
  2  4  1  0  0  0  0
  2  7  2  0  0  0  0
  3  8  1  0  0  0  0
  4  8  2  0  0  0  0
  5  9  1  0  0  0  0
  5 21  2  0  0  0  0
  6  9  2  0  0  0  0
  6 24  1  0  0  0  0
  7 17  1  0  0  0  0
  8 20  1  0  0  0  0
  9 19  1  0  0  0  0
 10 11  2  0  0  0  0
 10 12  1  0  0  0  0
 10 25  1  0  0  0  0
 11 22  1  0  0  0  0
 11 26  1  0  0  0  0
 12 13  2  0  0  0  0
 13 14  1  0  0  0  0
 14 15  2  0  0  0  0
 15 25  1  0  0  0  0
 16 20  1  0  0  0  0
 16 26  1  0  0  0  0
 16 27  2  0  0  0  0
 18 24  1  0  0  0  0
 19 20  1  1  0  0  0
 21 24  1  0  0  0  0
 22 23  2  0  0  0  0
 23 25  1  0  0  0  0
  1 28  1  0  0  0  0
  2 29  1  0  0  0  0
  3 30  1  0  0  0  0
  4 31  1  0  0  0  0
  5 32  1  0  0  0  0
  6 33  1  0  0  0  0
 12 34  1  0  0  0  0
 13 35  1  0  0  0  0
 14 36  1  0  0  0  0
 15 37  1  0  0  0  0
 17 38  1  0  0  0  0
 17 39  1  0  0  0  0
 17 40  1  0  0  0  0
 18 41  1  0  0  0  0
 18 42  1  0  0  0  0
 18 43  1  0  0  0  0
 19 44  1  0  0  0  0
 19 45  1  0  0  0  0
 20 46  1  0  0  0  0
 26 47  1  0  0  0  0
M  END
> <clash_score>
0

> <docking_score>
-5.473019123077393

> <overlap_score>
0.8710413575172424

$$$$
BENZO_266_1
  -OEChem-08222022463D

 47 50  0     1  0  0  0  0  0999 V2000
   13.8165    0.0398   21.0674 C   0  0  0  0  0  0  0  0  0  0  0  0
   12.5963    0.5519   21.5081 C   0  0  0  0  0  0  0  0  0  0  0  0
    9.1890   -3.5540   24.0140 C   0  0  0  0  0  0  0  0  0  0  0  0
    7.8700   -2.0610   25.3550 C   0  0  0  0  0  0  0  0  0  0  0  0
    9.5890   -2.4950   23.2210 C   0  0  0  0  0  0  0  0  0  0  0  0
    8.2550   -1.0010   24.5520 C   0  0  0  0  0  0  0  0  0  0  0  0
   14.4843   -0.9216   21.8261 C   0  0  0  0  0  0  0  0  0  0  0  0
   12.7115   -0.8586   23.4662 C   0  0  0  0  0  0  0  0  0  0  0  0
    8.3450   -3.3440   25.0980 C   0  0  0  0  0  0  0  0  0  0  0  0
    9.1280   -1.2090   23.4870 C   0  0  0  0  0  0  0  0  0  0  0  0
   12.0437    0.1027   22.7075 C   0  0  0  0  0  0  0  0  0  0  0  0
   13.9318   -1.3708   23.0255 C   0  0  0  0  0  0  0  0  0  0  0  0
    6.1460    0.6070   19.9750 C   0  0  0  0  0  0  0  0  0  0  0  0
    7.2710   -0.1460   19.8310 C   0  0  0  0  0  0  0  0  0  0  0  0
    5.3890    1.0010   21.0690 C   0  0  0  0  0  0  0  0  0  0  0  0
    4.2460    1.7520   20.8250 C   0  0  0  0  0  0  0  0  0  0  0  0
    3.8860    2.1050   19.5250 C   0  0  0  0  0  0  0  0  0  0  0  0
    4.6610    1.7170   18.4380 C   0  0  0  0  0  0  0  0  0  0  0  0
    9.0430    0.2380   21.4940 C   0  0  0  0  0  0  0  0  0  0  0  0
    7.9517   -4.4787   25.9770 C   0  0  0  0  0  0  0  0  0  0  0  0
   10.7220    0.6590   23.1850 C   0  0  0  0  0  0  0  0  0  0  0  0
    9.5820   -0.1080   22.7000 C   0  0  1  0  0  0  0  0  0  0  0  0
    7.5840   -0.2700   18.5160 N   0  0  0  0  0  0  0  0  0  0  0  0
    6.7100    0.3850   17.8100 N   0  0  0  0  0  0  0  0  0  0  0  0
    5.7970    0.9500   18.6730 N   0  0  0  0  0  0  0  0  0  0  0  0
    8.0950   -0.7700   20.8440 N   0  0  0  0  0  0  0  0  0  0  0  0
    9.2950    1.3000   20.9480 O   0  0  0  0  0  0  0  0  0  0  0  0
   14.7567   -2.5560   23.9617 Cl  0  0  0  0  0  0  0  0  0  0  0  0
   14.2465    0.3899   20.1334 H   0  0  0  0  0  0  0  0  0  0  0  0
   12.0830    1.3007   20.9105 H   0  0  0  0  0  0  0  0  0  0  0  0
    9.5416   -4.5625   23.7818 H   0  0  0  0  0  0  0  0  0  0  0  0
    7.1926   -1.8847   26.1916 H   0  0  0  0  0  0  0  0  0  0  0  0
   10.2688   -2.6720   22.3870 H   0  0  0  0  0  0  0  0  0  0  0  0
    7.8705   -0.0015   24.7579 H   0  0  0  0  0  0  0  0  0  0  0  0
   15.4348   -1.3117   21.4704 H   0  0  0  0  0  0  0  0  0  0  0  0
   12.2763   -1.2059   24.4005 H   0  0  0  0  0  0  0  0  0  0  0  0
    5.6529    0.7487   22.0767 H   0  0  0  0  0  0  0  0  0  0  0  0
    3.6388    2.0586   21.6675 H   0  0  0  0  0  0  0  0  0  0  0  0
    2.9822    2.6968   19.3330 H   0  0  0  0  0  0  0  0  0  0  0  0
    4.4111    1.9893   17.4360 H   0  0  0  0  0  0  0  0  0  0  0  0
    8.6661   -4.5883   26.8021 H   0  0  0  0  0  0  0  0  0  0  0  0
    6.9508   -4.3263   26.4014 H   0  0  0  0  0  0  0  0  0  0  0  0
    7.9188   -5.4228   25.4175 H   0  0  0  0  0  0  0  0  0  0  0  0
   10.7266    0.7141   24.2815 H   0  0  0  0  0  0  0  0  0  0  0  0
   10.6502    1.7003   22.8412 H   0  0  0  0  0  0  0  0  0  0  0  0
    8.7027    0.7972   23.4026 H   0  0  0  0  0  0  0  0  0  0  0  0
    8.0713   -1.6185   21.0737 H   0  0  0  0  0  0  0  0  0  0  0  0
  1  2  2  0  0  0  0
  1  7  1  0  0  0  0
  2 11  1  0  0  0  0
  3  5  2  0  0  0  0
  3  9  1  0  0  0  0
  4  6  1  0  0  0  0
  4  9  2  0  0  0  0
  5 10  1  0  0  0  0
  6 10  2  0  0  0  0
  7 12  2  0  0  0  0
  8 11  2  0  0  0  0
  8 12  1  0  0  0  0
  9 20  1  0  0  0  0
 10 22  1  0  0  0  0
 11 21  1  0  0  0  0
 12 28  1  0  0  0  0
 13 14  2  0  0  0  0
 13 15  1  0  0  0  0
 13 25  1  0  0  0  0
 14 23  1  0  0  0  0
 14 26  1  0  0  0  0
 15 16  2  0  0  0  0
 16 17  1  0  0  0  0
 17 18  2  0  0  0  0
 18 25  1  0  0  0  0
 19 22  1  0  0  0  0
 19 26  1  0  0  0  0
 19 27  2  0  0  0  0
 21 22  1  1  0  0  0
 23 24  2  0  0  0  0
 24 25  1  0  0  0  0
  1 29  1  0  0  0  0
  2 30  1  0  0  0  0
  3 31  1  0  0  0  0
  4 32  1  0  0  0  0
  5 33  1  0  0  0  0
  6 34  1  0  0  0  0
  7 35  1  0  0  0  0
  8 36  1  0  0  0  0
 15 37  1  0  0  0  0
 16 38  1  0  0  0  0
 17 39  1  0  0  0  0
 18 40  1  0  0  0  0
 20 41  1  0  0  0  0
 20 42  1  0  0  0  0
 20 43  1  0  0  0  0
 21 44  1  0  0  0  0
 21 45  1  0  0  0  0
 22 46  1  0  0  0  0
 26 47  1  0  0  0  0
M  END
> <clash_score>
0

> <docking_score>
-6.111091613769531

> <overlap_score>
0.8771751523017883

$$$$
BENZO_267_2
  -OEChem-08222022463D

 47 50  0     1  0  0  0  0  0999 V2000
    9.1890   -3.5540   24.0140 C   0  0  0  0  0  0  0  0  0  0  0  0
    7.8700   -2.0610   25.3550 C   0  0  0  0  0  0  0  0  0  0  0  0
    9.5890   -2.4950   23.2210 C   0  0  0  0  0  0  0  0  0  0  0  0
    8.2550   -1.0010   24.5520 C   0  0  0  0  0  0  0  0  0  0  0  0
   12.1294   -0.7684   24.8759 C   0  0  0  0  0  0  0  0  0  0  0  0
   12.9208   -0.6622   22.8272 C   0  0  0  0  0  0  0  0  0  0  0  0
    8.3450   -3.3440   25.0980 C   0  0  0  0  0  0  0  0  0  0  0  0
    9.1280   -1.2090   23.4870 C   0  0  0  0  0  0  0  0  0  0  0  0
   11.8786   -0.2190   23.6043 C   0  0  0  0  0  0  0  0  0  0  0  0
    6.1460    0.6070   19.9750 C   0  0  0  0  0  0  0  0  0  0  0  0
    7.2710   -0.1460   19.8310 C   0  0  0  0  0  0  0  0  0  0  0  0
    5.3890    1.0010   21.0690 C   0  0  0  0  0  0  0  0  0  0  0  0
    4.2460    1.7520   20.8250 C   0  0  0  0  0  0  0  0  0  0  0  0
    3.8860    2.1050   19.5250 C   0  0  0  0  0  0  0  0  0  0  0  0
    4.6610    1.7170   18.4380 C   0  0  0  0  0  0  0  0  0  0  0  0
    9.0430    0.2380   21.4940 C   0  0  0  0  0  0  0  0  0  0  0  0
    7.9517   -4.4787   25.9770 C   0  0  0  0  0  0  0  0  0  0  0  0
   14.9196   -2.1033   23.2819 C   0  0  0  0  0  0  0  0  0  0  0  0
   10.7220    0.6590   23.1850 C   0  0  0  0  0  0  0  0  0  0  0  0
    9.5820   -0.1080   22.7000 C   0  0  2  0  0  0  0  0  0  0  0  0
   13.2434   -1.5045   24.9090 N   0  0  0  0  0  0  0  0  0  0  0  0
    7.5840   -0.2700   18.5160 N   0  0  0  0  0  0  0  0  0  0  0  0
    6.7100    0.3850   17.8100 N   0  0  0  0  0  0  0  0  0  0  0  0
   13.7018   -1.4209   23.6485 N   0  0  0  0  0  0  0  0  0  0  0  0
    5.7970    0.9500   18.6730 N   0  0  0  0  0  0  0  0  0  0  0  0
    8.0950   -0.7700   20.8440 N   0  0  0  0  0  0  0  0  0  0  0  0
    9.2950    1.3000   20.9480 O   0  0  0  0  0  0  0  0  0  0  0  0
    9.5416   -4.5625   23.7818 H   0  0  0  0  0  0  0  0  0  0  0  0
    7.1926   -1.8847   26.1916 H   0  0  0  0  0  0  0  0  0  0  0  0
   10.2688   -2.6720   22.3870 H   0  0  0  0  0  0  0  0  0  0  0  0
    7.8705   -0.0015   24.7579 H   0  0  0  0  0  0  0  0  0  0  0  0
   11.5479   -0.6652   25.7811 H   0  0  0  0  0  0  0  0  0  0  0  0
   13.1664   -0.5073   21.7853 H   0  0  0  0  0  0  0  0  0  0  0  0
    5.6529    0.7487   22.0767 H   0  0  0  0  0  0  0  0  0  0  0  0
    3.6388    2.0586   21.6675 H   0  0  0  0  0  0  0  0  0  0  0  0
    2.9822    2.6968   19.3330 H   0  0  0  0  0  0  0  0  0  0  0  0
    4.4111    1.9893   17.4360 H   0  0  0  0  0  0  0  0  0  0  0  0
    8.6661   -4.5883   26.8021 H   0  0  0  0  0  0  0  0  0  0  0  0
    6.9508   -4.3263   26.4014 H   0  0  0  0  0  0  0  0  0  0  0  0
    7.9188   -5.4228   25.4175 H   0  0  0  0  0  0  0  0  0  0  0  0
   15.7545   -1.4186   23.4527 H   0  0  0  0  0  0  0  0  0  0  0  0
   15.0313   -3.0027   23.8939 H   0  0  0  0  0  0  0  0  0  0  0  0
   14.8693   -2.3913   22.2281 H   0  0  0  0  0  0  0  0  0  0  0  0
   10.4369    1.3080   24.0233 H   0  0  0  0  0  0  0  0  0  0  0  0
   11.0815    1.3384   22.3997 H   0  0  0  0  0  0  0  0  0  0  0  0
   10.5413   -0.9955   22.0233 H   0  0  0  0  0  0  0  0  0  0  0  0
    8.0713   -1.6185   21.0737 H   0  0  0  0  0  0  0  0  0  0  0  0
  1  3  2  0  0  0  0
  1  7  1  0  0  0  0
  2  4  1  0  0  0  0
  2  7  2  0  0  0  0
  3  8  1  0  0  0  0
  4  8  2  0  0  0  0
  5  9  1  0  0  0  0
  5 21  2  0  0  0  0
  6  9  2  0  0  0  0
  6 24  1  0  0  0  0
  7 17  1  0  0  0  0
  8 20  1  0  0  0  0
  9 19  1  0  0  0  0
 10 11  2  0  0  0  0
 10 12  1  0  0  0  0
 10 25  1  0  0  0  0
 11 22  1  0  0  0  0
 11 26  1  0  0  0  0
 12 13  2  0  0  0  0
 13 14  1  0  0  0  0
 14 15  2  0  0  0  0
 15 25  1  0  0  0  0
 16 20  1  0  0  0  0
 16 26  1  0  0  0  0
 16 27  2  0  0  0  0
 18 24  1  0  0  0  0
 19 20  1  6  0  0  0
 21 24  1  0  0  0  0
 22 23  2  0  0  0  0
 23 25  1  0  0  0  0
  1 28  1  0  0  0  0
  2 29  1  0  0  0  0
  3 30  1  0  0  0  0
  4 31  1  0  0  0  0
  5 32  1  0  0  0  0
  6 33  1  0  0  0  0
 12 34  1  0  0  0  0
 13 35  1  0  0  0  0
 14 36  1  0  0  0  0
 15 37  1  0  0  0  0
 17 38  1  0  0  0  0
 17 39  1  0  0  0  0
 17 40  1  0  0  0  0
 18 41  1  0  0  0  0
 18 42  1  0  0  0  0
 18 43  1  0  0  0  0
 19 44  1  0  0  0  0
 19 45  1  0  0  0  0
 20 46  1  0  0  0  0
 26 47  1  0  0  0  0
M  END
> <clash_score>
0

> <docking_score>
-6.580639839172363

> <overlap_score>
0.8850175738334656

$$$$
BENZO_266_2
  -OEChem-08222022463D

 47 50  0     1  0  0  0  0  0999 V2000
   13.0334   -1.4852   25.3072 C   0  0  0  0  0  0  0  0  0  0  0  0
   11.9669   -0.6740   24.9199 C   0  0  0  0  0  0  0  0  0  0  0  0
    9.1890   -3.5540   24.0140 C   0  0  0  0  0  0  0  0  0  0  0  0
    7.8700   -2.0610   25.3550 C   0  0  0  0  0  0  0  0  0  0  0  0
    9.5890   -2.4950   23.2210 C   0  0  0  0  0  0  0  0  0  0  0  0
    8.2550   -1.0010   24.5520 C   0  0  0  0  0  0  0  0  0  0  0  0
   14.0118   -1.8413   24.3790 C   0  0  0  0  0  0  0  0  0  0  0  0
   12.8570   -0.5751   22.6760 C   0  0  0  0  0  0  0  0  0  0  0  0
    8.3450   -3.3440   25.0980 C   0  0  0  0  0  0  0  0  0  0  0  0
    9.1280   -1.2090   23.4870 C   0  0  0  0  0  0  0  0  0  0  0  0
   11.8786   -0.2190   23.6043 C   0  0  0  0  0  0  0  0  0  0  0  0
   13.9235   -1.3863   23.0634 C   0  0  0  0  0  0  0  0  0  0  0  0
    6.1460    0.6070   19.9750 C   0  0  0  0  0  0  0  0  0  0  0  0
    7.2710   -0.1460   19.8310 C   0  0  0  0  0  0  0  0  0  0  0  0
    5.3890    1.0010   21.0690 C   0  0  0  0  0  0  0  0  0  0  0  0
    4.2460    1.7520   20.8250 C   0  0  0  0  0  0  0  0  0  0  0  0
    3.8860    2.1050   19.5250 C   0  0  0  0  0  0  0  0  0  0  0  0
    4.6610    1.7170   18.4380 C   0  0  0  0  0  0  0  0  0  0  0  0
    9.0430    0.2380   21.4940 C   0  0  0  0  0  0  0  0  0  0  0  0
    7.9517   -4.4787   25.9770 C   0  0  0  0  0  0  0  0  0  0  0  0
   10.7220    0.6590   23.1850 C   0  0  0  0  0  0  0  0  0  0  0  0
    9.5820   -0.1080   22.7000 C   0  0  2  0  0  0  0  0  0  0  0  0
    7.5840   -0.2700   18.5160 N   0  0  0  0  0  0  0  0  0  0  0  0
    6.7100    0.3850   17.8100 N   0  0  0  0  0  0  0  0  0  0  0  0
    5.7970    0.9500   18.6730 N   0  0  0  0  0  0  0  0  0  0  0  0
    8.0950   -0.7700   20.8440 N   0  0  0  0  0  0  0  0  0  0  0  0
    9.2950    1.3000   20.9480 O   0  0  0  0  0  0  0  0  0  0  0  0
   15.1303   -1.8270   21.9183 Cl  0  0  0  0  0  0  0  0  0  0  0  0
   13.1017   -1.8394   26.3318 H   0  0  0  0  0  0  0  0  0  0  0  0
   11.2091   -0.4015   25.6498 H   0  0  0  0  0  0  0  0  0  0  0  0
    9.5416   -4.5625   23.7818 H   0  0  0  0  0  0  0  0  0  0  0  0
    7.1926   -1.8847   26.1916 H   0  0  0  0  0  0  0  0  0  0  0  0
   10.2688   -2.6720   22.3870 H   0  0  0  0  0  0  0  0  0  0  0  0
    7.8705   -0.0015   24.7579 H   0  0  0  0  0  0  0  0  0  0  0  0
   14.8373   -2.4744   24.6949 H   0  0  0  0  0  0  0  0  0  0  0  0
   12.7839   -0.2174   21.6515 H   0  0  0  0  0  0  0  0  0  0  0  0
    5.6529    0.7487   22.0767 H   0  0  0  0  0  0  0  0  0  0  0  0
    3.6388    2.0586   21.6675 H   0  0  0  0  0  0  0  0  0  0  0  0
    2.9822    2.6968   19.3330 H   0  0  0  0  0  0  0  0  0  0  0  0
    4.4111    1.9893   17.4360 H   0  0  0  0  0  0  0  0  0  0  0  0
    8.6661   -4.5883   26.8021 H   0  0  0  0  0  0  0  0  0  0  0  0
    6.9508   -4.3263   26.4014 H   0  0  0  0  0  0  0  0  0  0  0  0
    7.9188   -5.4228   25.4175 H   0  0  0  0  0  0  0  0  0  0  0  0
   10.4369    1.3080   24.0233 H   0  0  0  0  0  0  0  0  0  0  0  0
   11.0815    1.3384   22.3997 H   0  0  0  0  0  0  0  0  0  0  0  0
   10.5413   -0.9955   22.0233 H   0  0  0  0  0  0  0  0  0  0  0  0
    8.0713   -1.6185   21.0737 H   0  0  0  0  0  0  0  0  0  0  0  0
  1  2  2  0  0  0  0
  1  7  1  0  0  0  0
  2 11  1  0  0  0  0
  3  5  2  0  0  0  0
  3  9  1  0  0  0  0
  4  6  1  0  0  0  0
  4  9  2  0  0  0  0
  5 10  1  0  0  0  0
  6 10  2  0  0  0  0
  7 12  2  0  0  0  0
  8 11  2  0  0  0  0
  8 12  1  0  0  0  0
  9 20  1  0  0  0  0
 10 22  1  0  0  0  0
 11 21  1  0  0  0  0
 12 28  1  0  0  0  0
 13 14  2  0  0  0  0
 13 15  1  0  0  0  0
 13 25  1  0  0  0  0
 14 23  1  0  0  0  0
 14 26  1  0  0  0  0
 15 16  2  0  0  0  0
 16 17  1  0  0  0  0
 17 18  2  0  0  0  0
 18 25  1  0  0  0  0
 19 22  1  0  0  0  0
 19 26  1  0  0  0  0
 19 27  2  0  0  0  0
 21 22  1  6  0  0  0
 23 24  2  0  0  0  0
 24 25  1  0  0  0  0
  1 29  1  0  0  0  0
  2 30  1  0  0  0  0
  3 31  1  0  0  0  0
  4 32  1  0  0  0  0
  5 33  1  0  0  0  0
  6 34  1  0  0  0  0
  7 35  1  0  0  0  0
  8 36  1  0  0  0  0
 15 37  1  0  0  0  0
 16 38  1  0  0  0  0
 17 39  1  0  0  0  0
 18 40  1  0  0  0  0
 20 41  1  0  0  0  0
 20 42  1  0  0  0  0
 20 43  1  0  0  0  0
 21 44  1  0  0  0  0
 21 45  1  0  0  0  0
 22 46  1  0  0  0  0
 26 47  1  0  0  0  0
M  END
> <clash_score>
0

> <docking_score>
-6.63134765625

> <overlap_score>
0.889504075050354

$$$$
BENZO_269_1
  -OEChem-08222022463D

 48 51  0     1  0  0  0  0  0999 V2000
   14.4830   -0.9237   21.8248 C   0  0  0  0  0  0  0  0  0  0  0  0
   13.9310   -1.3719   23.0248 C   0  0  0  0  0  0  0  0  0  0  0  0
   13.8154    0.0379   21.0662 C   0  0  0  0  0  0  0  0  0  0  0  0
   12.7114   -0.8588   23.4661 C   0  0  0  0  0  0  0  0  0  0  0  0
   12.5958    0.5510   21.5075 C   0  0  0  0  0  0  0  0  0  0  0  0
    9.5890   -2.4950   23.2210 C   0  0  0  0  0  0  0  0  0  0  0  0
    8.2550   -1.0010   24.5520 C   0  0  0  0  0  0  0  0  0  0  0  0
    9.1890   -3.5540   24.0140 C   0  0  0  0  0  0  0  0  0  0  0  0
    7.8700   -2.0610   25.3550 C   0  0  0  0  0  0  0  0  0  0  0  0
   12.0437    0.1027   22.7075 C   0  0  0  0  0  0  0  0  0  0  0  0
    9.1280   -1.2090   23.4870 C   0  0  0  0  0  0  0  0  0  0  0  0
    8.3450   -3.3440   25.0980 C   0  0  0  0  0  0  0  0  0  0  0  0
    6.1460    0.6070   19.9750 C   0  0  0  0  0  0  0  0  0  0  0  0
    7.2710   -0.1460   19.8310 C   0  0  0  0  0  0  0  0  0  0  0  0
    5.3890    1.0010   21.0690 C   0  0  0  0  0  0  0  0  0  0  0  0
    4.2460    1.7520   20.8250 C   0  0  0  0  0  0  0  0  0  0  0  0
    3.8860    2.1050   19.5250 C   0  0  0  0  0  0  0  0  0  0  0  0
    4.6610    1.7170   18.4380 C   0  0  0  0  0  0  0  0  0  0  0  0
    9.0430    0.2380   21.4940 C   0  0  0  0  0  0  0  0  0  0  0  0
    7.1165   -4.0863   26.9914 C   0  0  0  0  0  0  0  0  0  0  0  0
   10.7220    0.6590   23.1850 C   0  0  0  0  0  0  0  0  0  0  0  0
    9.5820   -0.1080   22.7000 C   0  0  1  0  0  0  0  0  0  0  0  0
    7.5840   -0.2700   18.5160 N   0  0  0  0  0  0  0  0  0  0  0  0
    6.7100    0.3850   17.8100 N   0  0  0  0  0  0  0  0  0  0  0  0
    5.7970    0.9500   18.6730 N   0  0  0  0  0  0  0  0  0  0  0  0
    8.0950   -0.7700   20.8440 N   0  0  0  0  0  0  0  0  0  0  0  0
    9.2950    1.3000   20.9480 O   0  0  0  0  0  0  0  0  0  0  0  0
    7.9856   -4.3803   25.8987 O   0  0  0  0  0  0  0  0  0  0  0  0
   15.4334   -1.3223   21.4820 H   0  0  0  0  0  0  0  0  0  0  0  0
   14.4512   -2.1198   23.6162 H   0  0  0  0  0  0  0  0  0  0  0  0
   14.2454    0.3879   20.1325 H   0  0  0  0  0  0  0  0  0  0  0  0
   12.2887   -1.2141   24.4023 H   0  0  0  0  0  0  0  0  0  0  0  0
   12.0827    1.2998   20.9098 H   0  0  0  0  0  0  0  0  0  0  0  0
   10.2677   -2.6721   22.3861 H   0  0  0  0  0  0  0  0  0  0  0  0
    7.8705   -0.0015   24.7586 H   0  0  0  0  0  0  0  0  0  0  0  0
    9.5403   -4.5634   23.7844 H   0  0  0  0  0  0  0  0  0  0  0  0
    7.1918   -1.8874   26.1909 H   0  0  0  0  0  0  0  0  0  0  0  0
    5.6529    0.7487   22.0767 H   0  0  0  0  0  0  0  0  0  0  0  0
    3.6388    2.0586   21.6675 H   0  0  0  0  0  0  0  0  0  0  0  0
    2.9822    2.6968   19.3330 H   0  0  0  0  0  0  0  0  0  0  0  0
    4.4111    1.9893   17.4360 H   0  0  0  0  0  0  0  0  0  0  0  0
    6.9091   -5.0025   27.5497 H   0  0  0  0  0  0  0  0  0  0  0  0
    6.1847   -3.6591   26.6124 H   0  0  0  0  0  0  0  0  0  0  0  0
    7.6050   -3.3639   27.6497 H   0  0  0  0  0  0  0  0  0  0  0  0
   10.7266    0.7141   24.2815 H   0  0  0  0  0  0  0  0  0  0  0  0
   10.6502    1.7003   22.8412 H   0  0  0  0  0  0  0  0  0  0  0  0
    8.7027    0.7972   23.4026 H   0  0  0  0  0  0  0  0  0  0  0  0
    8.0713   -1.6185   21.0737 H   0  0  0  0  0  0  0  0  0  0  0  0
  1  2  1  0  0  0  0
  1  3  2  0  0  0  0
  2  4  2  0  0  0  0
  3  5  1  0  0  0  0
  4 10  1  0  0  0  0
  5 10  2  0  0  0  0
  6  8  2  0  0  0  0
  6 11  1  0  0  0  0
  7  9  1  0  0  0  0
  7 11  2  0  0  0  0
  8 12  1  0  0  0  0
  9 12  2  0  0  0  0
 10 21  1  0  0  0  0
 11 22  1  0  0  0  0
 12 28  1  0  0  0  0
 13 14  2  0  0  0  0
 13 15  1  0  0  0  0
 13 25  1  0  0  0  0
 14 23  1  0  0  0  0
 14 26  1  0  0  0  0
 15 16  2  0  0  0  0
 16 17  1  0  0  0  0
 17 18  2  0  0  0  0
 18 25  1  0  0  0  0
 19 22  1  0  0  0  0
 19 26  1  0  0  0  0
 19 27  2  0  0  0  0
 20 28  1  0  0  0  0
 21 22  1  1  0  0  0
 23 24  2  0  0  0  0
 24 25  1  0  0  0  0
  1 29  1  0  0  0  0
  2 30  1  0  0  0  0
  3 31  1  0  0  0  0
  4 32  1  0  0  0  0
  5 33  1  0  0  0  0
  6 34  1  0  0  0  0
  7 35  1  0  0  0  0
  8 36  1  0  0  0  0
  9 37  1  0  0  0  0
 15 38  1  0  0  0  0
 16 39  1  0  0  0  0
 17 40  1  0  0  0  0
 18 41  1  0  0  0  0
 20 42  1  0  0  0  0
 20 43  1  0  0  0  0
 20 44  1  0  0  0  0
 21 45  1  0  0  0  0
 21 46  1  0  0  0  0
 22 47  1  0  0  0  0
 26 48  1  0  0  0  0
M  END
> <clash_score>
0

> <docking_score>
-6.202635765075684

> <overlap_score>
0.8887339234352112

$$$$
BENZO_269_2
  -OEChem-08222022463D

 48 51  0     1  0  0  0  0  0999 V2000
   14.0137   -1.8398   24.3768 C   0  0  0  0  0  0  0  0  0  0  0  0
   13.0361   -1.4844   25.3061 C   0  0  0  0  0  0  0  0  0  0  0  0
   13.9239   -1.3848   23.0613 C   0  0  0  0  0  0  0  0  0  0  0  0
   11.9686   -0.6740   24.9198 C   0  0  0  0  0  0  0  0  0  0  0  0
   12.8563   -0.5744   22.6750 C   0  0  0  0  0  0  0  0  0  0  0  0
    9.5890   -2.4950   23.2210 C   0  0  0  0  0  0  0  0  0  0  0  0
    8.2550   -1.0010   24.5520 C   0  0  0  0  0  0  0  0  0  0  0  0
    9.1890   -3.5540   24.0140 C   0  0  0  0  0  0  0  0  0  0  0  0
    7.8700   -2.0610   25.3550 C   0  0  0  0  0  0  0  0  0  0  0  0
   11.8786   -0.2190   23.6043 C   0  0  0  0  0  0  0  0  0  0  0  0
    9.1280   -1.2090   23.4870 C   0  0  0  0  0  0  0  0  0  0  0  0
    8.3450   -3.3440   25.0980 C   0  0  0  0  0  0  0  0  0  0  0  0
    6.1460    0.6070   19.9750 C   0  0  0  0  0  0  0  0  0  0  0  0
    7.2710   -0.1460   19.8310 C   0  0  0  0  0  0  0  0  0  0  0  0
    5.3890    1.0010   21.0690 C   0  0  0  0  0  0  0  0  0  0  0  0
    4.2460    1.7520   20.8250 C   0  0  0  0  0  0  0  0  0  0  0  0
    3.8860    2.1050   19.5250 C   0  0  0  0  0  0  0  0  0  0  0  0
    4.6610    1.7170   18.4380 C   0  0  0  0  0  0  0  0  0  0  0  0
    9.0430    0.2380   21.4940 C   0  0  0  0  0  0  0  0  0  0  0  0
    8.5105   -5.6662   25.5725 C   0  0  0  0  0  0  0  0  0  0  0  0
   10.7220    0.6590   23.1850 C   0  0  0  0  0  0  0  0  0  0  0  0
    9.5820   -0.1080   22.7000 C   0  0  2  0  0  0  0  0  0  0  0  0
    7.5840   -0.2700   18.5160 N   0  0  0  0  0  0  0  0  0  0  0  0
    6.7100    0.3850   17.8100 N   0  0  0  0  0  0  0  0  0  0  0  0
    5.7970    0.9500   18.6730 N   0  0  0  0  0  0  0  0  0  0  0  0
    8.0950   -0.7700   20.8440 N   0  0  0  0  0  0  0  0  0  0  0  0
    9.2950    1.3000   20.9480 O   0  0  0  0  0  0  0  0  0  0  0  0
    7.9856   -4.3803   25.8987 O   0  0  0  0  0  0  0  0  0  0  0  0
   14.8456   -2.4698   24.6781 H   0  0  0  0  0  0  0  0  0  0  0  0
   13.1065   -1.8377   26.3307 H   0  0  0  0  0  0  0  0  0  0  0  0
   14.6854   -1.6605   22.3378 H   0  0  0  0  0  0  0  0  0  0  0  0
   11.2114   -0.4022   25.6506 H   0  0  0  0  0  0  0  0  0  0  0  0
   12.7944   -0.2247   21.6479 H   0  0  0  0  0  0  0  0  0  0  0  0
   10.2677   -2.6721   22.3861 H   0  0  0  0  0  0  0  0  0  0  0  0
    7.8705   -0.0015   24.7586 H   0  0  0  0  0  0  0  0  0  0  0  0
    9.5403   -4.5634   23.7844 H   0  0  0  0  0  0  0  0  0  0  0  0
    7.1918   -1.8874   26.1909 H   0  0  0  0  0  0  0  0  0  0  0  0
    5.6529    0.7487   22.0767 H   0  0  0  0  0  0  0  0  0  0  0  0
    3.6388    2.0586   21.6675 H   0  0  0  0  0  0  0  0  0  0  0  0
    2.9822    2.6968   19.3330 H   0  0  0  0  0  0  0  0  0  0  0  0
    4.4111    1.9893   17.4360 H   0  0  0  0  0  0  0  0  0  0  0  0
    8.1445   -6.4032   26.2915 H   0  0  0  0  0  0  0  0  0  0  0  0
    9.6027   -5.6312   25.5944 H   0  0  0  0  0  0  0  0  0  0  0  0
    8.1768   -5.9424   24.5694 H   0  0  0  0  0  0  0  0  0  0  0  0
   10.4369    1.3080   24.0233 H   0  0  0  0  0  0  0  0  0  0  0  0
   11.0815    1.3384   22.3997 H   0  0  0  0  0  0  0  0  0  0  0  0
   10.5413   -0.9955   22.0233 H   0  0  0  0  0  0  0  0  0  0  0  0
    8.0713   -1.6185   21.0737 H   0  0  0  0  0  0  0  0  0  0  0  0
  1  2  1  0  0  0  0
  1  3  2  0  0  0  0
  2  4  2  0  0  0  0
  3  5  1  0  0  0  0
  4 10  1  0  0  0  0
  5 10  2  0  0  0  0
  6  8  2  0  0  0  0
  6 11  1  0  0  0  0
  7  9  1  0  0  0  0
  7 11  2  0  0  0  0
  8 12  1  0  0  0  0
  9 12  2  0  0  0  0
 10 21  1  0  0  0  0
 11 22  1  0  0  0  0
 12 28  1  0  0  0  0
 13 14  2  0  0  0  0
 13 15  1  0  0  0  0
 13 25  1  0  0  0  0
 14 23  1  0  0  0  0
 14 26  1  0  0  0  0
 15 16  2  0  0  0  0
 16 17  1  0  0  0  0
 17 18  2  0  0  0  0
 18 25  1  0  0  0  0
 19 22  1  0  0  0  0
 19 26  1  0  0  0  0
 19 27  2  0  0  0  0
 20 28  1  0  0  0  0
 21 22  1  6  0  0  0
 23 24  2  0  0  0  0
 24 25  1  0  0  0  0
  1 29  1  0  0  0  0
  2 30  1  0  0  0  0
  3 31  1  0  0  0  0
  4 32  1  0  0  0  0
  5 33  1  0  0  0  0
  6 34  1  0  0  0  0
  7 35  1  0  0  0  0
  8 36  1  0  0  0  0
  9 37  1  0  0  0  0
 15 38  1  0  0  0  0
 16 39  1  0  0  0  0
 17 40  1  0  0  0  0
 18 41  1  0  0  0  0
 20 42  1  0  0  0  0
 20 43  1  0  0  0  0
 20 44  1  0  0  0  0
 21 45  1  0  0  0  0
 21 46  1  0  0  0  0
 22 47  1  0  0  0  0
 26 48  1  0  0  0  0
M  END
> <clash_score>
0

> <docking_score>
-7.629996299743652

> <overlap_score>
0.8966540098190308

$$$$
BENZO_268_1
  -OEChem-08222022463D

 45 48  0     1  0  0  0  0  0999 V2000
    9.5890   -2.4950   23.2210 C   0  0  0  0  0  0  0  0  0  0  0  0
    8.2550   -1.0010   24.5520 C   0  0  0  0  0  0  0  0  0  0  0  0
    9.1890   -3.5540   24.0140 C   0  0  0  0  0  0  0  0  0  0  0  0
    7.8700   -2.0610   25.3550 C   0  0  0  0  0  0  0  0  0  0  0  0
   13.1058   -0.2791   23.5772 C   0  0  0  0  0  0  0  0  0  0  0  0
   14.1974   -0.7534   22.8836 C   0  0  0  0  0  0  0  0  0  0  0  0
   12.3642   -0.0940   21.3822 C   0  0  0  0  0  0  0  0  0  0  0  0
    9.1280   -1.2090   23.4870 C   0  0  0  0  0  0  0  0  0  0  0  0
   12.0437    0.1027   22.7075 C   0  0  0  0  0  0  0  0  0  0  0  0
    8.3450   -3.3440   25.0980 C   0  0  0  0  0  0  0  0  0  0  0  0
    6.1460    0.6070   19.9750 C   0  0  0  0  0  0  0  0  0  0  0  0
    7.2710   -0.1460   19.8310 C   0  0  0  0  0  0  0  0  0  0  0  0
    5.3890    1.0010   21.0690 C   0  0  0  0  0  0  0  0  0  0  0  0
    4.2460    1.7520   20.8250 C   0  0  0  0  0  0  0  0  0  0  0  0
    3.8860    2.1050   19.5250 C   0  0  0  0  0  0  0  0  0  0  0  0
    4.6610    1.7170   18.4380 C   0  0  0  0  0  0  0  0  0  0  0  0
    9.0430    0.2380   21.4940 C   0  0  0  0  0  0  0  0  0  0  0  0
    7.1165   -4.0863   26.9914 C   0  0  0  0  0  0  0  0  0  0  0  0
   10.7220    0.6590   23.1850 C   0  0  0  0  0  0  0  0  0  0  0  0
    9.5820   -0.1080   22.7000 C   0  0  1  0  0  0  0  0  0  0  0  0
    7.5840   -0.2700   18.5160 N   0  0  0  0  0  0  0  0  0  0  0  0
    6.7100    0.3850   17.8100 N   0  0  0  0  0  0  0  0  0  0  0  0
    5.7970    0.9500   18.6730 N   0  0  0  0  0  0  0  0  0  0  0  0
    8.0950   -0.7700   20.8440 N   0  0  0  0  0  0  0  0  0  0  0  0
    9.2950    1.3000   20.9480 O   0  0  0  0  0  0  0  0  0  0  0  0
    7.9856   -4.3803   25.8987 O   0  0  0  0  0  0  0  0  0  0  0  0
   13.9398   -0.7369   21.1908 S   0  0  0  0  0  0  0  0  0  0  0  0
   10.2677   -2.6721   22.3861 H   0  0  0  0  0  0  0  0  0  0  0  0
    7.8705   -0.0015   24.7586 H   0  0  0  0  0  0  0  0  0  0  0  0
    9.5403   -4.5634   23.7844 H   0  0  0  0  0  0  0  0  0  0  0  0
    7.1918   -1.8874   26.1909 H   0  0  0  0  0  0  0  0  0  0  0  0
   13.0750   -0.2107   24.6573 H   0  0  0  0  0  0  0  0  0  0  0  0
   15.1341   -1.1080   23.2899 H   0  0  0  0  0  0  0  0  0  0  0  0
   11.7521    0.1087   20.5143 H   0  0  0  0  0  0  0  0  0  0  0  0
    5.6529    0.7487   22.0767 H   0  0  0  0  0  0  0  0  0  0  0  0
    3.6388    2.0586   21.6675 H   0  0  0  0  0  0  0  0  0  0  0  0
    2.9822    2.6968   19.3330 H   0  0  0  0  0  0  0  0  0  0  0  0
    4.4111    1.9893   17.4360 H   0  0  0  0  0  0  0  0  0  0  0  0
    6.9091   -5.0025   27.5497 H   0  0  0  0  0  0  0  0  0  0  0  0
    6.1847   -3.6591   26.6124 H   0  0  0  0  0  0  0  0  0  0  0  0
    7.6050   -3.3639   27.6497 H   0  0  0  0  0  0  0  0  0  0  0  0
   10.7266    0.7141   24.2815 H   0  0  0  0  0  0  0  0  0  0  0  0
   10.6502    1.7003   22.8412 H   0  0  0  0  0  0  0  0  0  0  0  0
    8.7027    0.7972   23.4026 H   0  0  0  0  0  0  0  0  0  0  0  0
    8.0713   -1.6185   21.0737 H   0  0  0  0  0  0  0  0  0  0  0  0
  1  3  2  0  0  0  0
  1  8  1  0  0  0  0
  2  4  1  0  0  0  0
  2  8  2  0  0  0  0
  3 10  1  0  0  0  0
  4 10  2  0  0  0  0
  5  6  2  0  0  0  0
  5  9  1  0  0  0  0
  6 27  1  0  0  0  0
  7  9  2  0  0  0  0
  7 27  1  0  0  0  0
  8 20  1  0  0  0  0
  9 19  1  0  0  0  0
 10 26  1  0  0  0  0
 11 12  2  0  0  0  0
 11 13  1  0  0  0  0
 11 23  1  0  0  0  0
 12 21  1  0  0  0  0
 12 24  1  0  0  0  0
 13 14  2  0  0  0  0
 14 15  1  0  0  0  0
 15 16  2  0  0  0  0
 16 23  1  0  0  0  0
 17 20  1  0  0  0  0
 17 24  1  0  0  0  0
 17 25  2  0  0  0  0
 18 26  1  0  0  0  0
 19 20  1  1  0  0  0
 21 22  2  0  0  0  0
 22 23  1  0  0  0  0
  1 28  1  0  0  0  0
  2 29  1  0  0  0  0
  3 30  1  0  0  0  0
  4 31  1  0  0  0  0
  5 32  1  0  0  0  0
  6 33  1  0  0  0  0
  7 34  1  0  0  0  0
 13 35  1  0  0  0  0
 14 36  1  0  0  0  0
 15 37  1  0  0  0  0
 16 38  1  0  0  0  0
 18 39  1  0  0  0  0
 18 40  1  0  0  0  0
 18 41  1  0  0  0  0
 19 42  1  0  0  0  0
 19 43  1  0  0  0  0
 20 44  1  0  0  0  0
 24 45  1  0  0  0  0
M  END
> <clash_score>
0

> <docking_score>
-6.261756896972656

> <overlap_score>
0.8786687850952148

$$$$
BENZO_268_2
  -OEChem-08222022463D

 45 48  0     1  0  0  0  0  0999 V2000
    9.5890   -2.4950   23.2210 C   0  0  0  0  0  0  0  0  0  0  0  0
    8.2550   -1.0010   24.5520 C   0  0  0  0  0  0  0  0  0  0  0  0
    9.1890   -3.5540   24.0140 C   0  0  0  0  0  0  0  0  0  0  0  0
    7.8700   -2.0610   25.3550 C   0  0  0  0  0  0  0  0  0  0  0  0
   12.0393    0.1762   25.3640 C   0  0  0  0  0  0  0  0  0  0  0  0
   12.9049   -0.7459   25.9099 C   0  0  0  0  0  0  0  0  0  0  0  0
   12.2520   -1.3384   23.6137 C   0  0  0  0  0  0  0  0  0  0  0  0
    9.1280   -1.2090   23.4870 C   0  0  0  0  0  0  0  0  0  0  0  0
   11.6609   -0.1670   24.0339 C   0  0  0  0  0  0  0  0  0  0  0  0
    8.3450   -3.3440   25.0980 C   0  0  0  0  0  0  0  0  0  0  0  0
    6.1460    0.6070   19.9750 C   0  0  0  0  0  0  0  0  0  0  0  0
    7.2710   -0.1460   19.8310 C   0  0  0  0  0  0  0  0  0  0  0  0
    5.3890    1.0010   21.0690 C   0  0  0  0  0  0  0  0  0  0  0  0
    4.2460    1.7520   20.8250 C   0  0  0  0  0  0  0  0  0  0  0  0
    3.8860    2.1050   19.5250 C   0  0  0  0  0  0  0  0  0  0  0  0
    4.6610    1.7170   18.4380 C   0  0  0  0  0  0  0  0  0  0  0  0
    9.0430    0.2380   21.4940 C   0  0  0  0  0  0  0  0  0  0  0  0
    7.1165   -4.0863   26.9914 C   0  0  0  0  0  0  0  0  0  0  0  0
   10.7220    0.6590   23.1850 C   0  0  0  0  0  0  0  0  0  0  0  0
    9.5820   -0.1080   22.7000 C   0  0  2  0  0  0  0  0  0  0  0  0
    7.5840   -0.2700   18.5160 N   0  0  0  0  0  0  0  0  0  0  0  0
    6.7100    0.3850   17.8100 N   0  0  0  0  0  0  0  0  0  0  0  0
    5.7970    0.9500   18.6730 N   0  0  0  0  0  0  0  0  0  0  0  0
    8.0950   -0.7700   20.8440 N   0  0  0  0  0  0  0  0  0  0  0  0
    9.2950    1.3000   20.9480 O   0  0  0  0  0  0  0  0  0  0  0  0
    7.9856   -4.3803   25.8987 O   0  0  0  0  0  0  0  0  0  0  0  0
   13.2582   -2.0191   24.8206 S   0  0  0  0  0  0  0  0  0  0  0  0
   10.2677   -2.6721   22.3861 H   0  0  0  0  0  0  0  0  0  0  0  0
    7.8705   -0.0015   24.7586 H   0  0  0  0  0  0  0  0  0  0  0  0
    9.5403   -4.5634   23.7844 H   0  0  0  0  0  0  0  0  0  0  0  0
    7.1918   -1.8874   26.1909 H   0  0  0  0  0  0  0  0  0  0  0  0
   11.6967    1.0541   25.8970 H   0  0  0  0  0  0  0  0  0  0  0  0
   13.3474   -0.7326   26.8960 H   0  0  0  0  0  0  0  0  0  0  0  0
   12.1448   -1.8296   22.6565 H   0  0  0  0  0  0  0  0  0  0  0  0
    5.6529    0.7487   22.0767 H   0  0  0  0  0  0  0  0  0  0  0  0
    3.6388    2.0586   21.6675 H   0  0  0  0  0  0  0  0  0  0  0  0
    2.9822    2.6968   19.3330 H   0  0  0  0  0  0  0  0  0  0  0  0
    4.4111    1.9893   17.4360 H   0  0  0  0  0  0  0  0  0  0  0  0
    6.9091   -5.0025   27.5497 H   0  0  0  0  0  0  0  0  0  0  0  0
    6.1847   -3.6591   26.6124 H   0  0  0  0  0  0  0  0  0  0  0  0
    7.6050   -3.3639   27.6497 H   0  0  0  0  0  0  0  0  0  0  0  0
   10.3958    1.5383   23.7557 H   0  0  0  0  0  0  0  0  0  0  0  0
   11.2964    1.0584   22.3376 H   0  0  0  0  0  0  0  0  0  0  0  0
   10.5413   -0.9955   22.0233 H   0  0  0  0  0  0  0  0  0  0  0  0
    8.0713   -1.6185   21.0737 H   0  0  0  0  0  0  0  0  0  0  0  0
  1  3  2  0  0  0  0
  1  8  1  0  0  0  0
  2  4  1  0  0  0  0
  2  8  2  0  0  0  0
  3 10  1  0  0  0  0
  4 10  2  0  0  0  0
  5  6  2  0  0  0  0
  5  9  1  0  0  0  0
  6 27  1  0  0  0  0
  7  9  2  0  0  0  0
  7 27  1  0  0  0  0
  8 20  1  0  0  0  0
  9 19  1  0  0  0  0
 10 26  1  0  0  0  0
 11 12  2  0  0  0  0
 11 13  1  0  0  0  0
 11 23  1  0  0  0  0
 12 21  1  0  0  0  0
 12 24  1  0  0  0  0
 13 14  2  0  0  0  0
 14 15  1  0  0  0  0
 15 16  2  0  0  0  0
 16 23  1  0  0  0  0
 17 20  1  0  0  0  0
 17 24  1  0  0  0  0
 17 25  2  0  0  0  0
 18 26  1  0  0  0  0
 19 20  1  6  0  0  0
 21 22  2  0  0  0  0
 22 23  1  0  0  0  0
  1 28  1  0  0  0  0
  2 29  1  0  0  0  0
  3 30  1  0  0  0  0
  4 31  1  0  0  0  0
  5 32  1  0  0  0  0
  6 33  1  0  0  0  0
  7 34  1  0  0  0  0
 13 35  1  0  0  0  0
 14 36  1  0  0  0  0
 15 37  1  0  0  0  0
 16 38  1  0  0  0  0
 18 39  1  0  0  0  0
 18 40  1  0  0  0  0
 18 41  1  0  0  0  0
 19 42  1  0  0  0  0
 19 43  1  0  0  0  0
 20 44  1  0  0  0  0
 24 45  1  0  0  0  0
M  END
> <clash_score>
0

> <docking_score>
-4.897671699523926

> <overlap_score>
0.8439610600471497

$$$$
BENZO_271_1
  -OEChem-08222022463D

 48 51  0     1  0  0  0  0  0999 V2000
    9.5890   -2.4950   23.2210 C   0  0  0  0  0  0  0  0  0  0  0  0
    8.2550   -1.0010   24.5520 C   0  0  0  0  0  0  0  0  0  0  0  0
    9.1890   -3.5540   24.0140 C   0  0  0  0  0  0  0  0  0  0  0  0
    7.8700   -2.0610   25.3550 C   0  0  0  0  0  0  0  0  0  0  0  0
   12.7477    0.4352   21.5346 C   0  0  0  0  0  0  0  0  0  0  0  0
   12.8294   -0.8403   23.3239 C   0  0  0  0  0  0  0  0  0  0  0  0
    9.1280   -1.2090   23.4870 C   0  0  0  0  0  0  0  0  0  0  0  0
   12.0437    0.1027   22.7075 C   0  0  0  0  0  0  0  0  0  0  0  0
    8.3450   -3.3440   25.0980 C   0  0  0  0  0  0  0  0  0  0  0  0
    6.1460    0.6070   19.9750 C   0  0  0  0  0  0  0  0  0  0  0  0
    7.2710   -0.1460   19.8310 C   0  0  0  0  0  0  0  0  0  0  0  0
    5.3890    1.0010   21.0690 C   0  0  0  0  0  0  0  0  0  0  0  0
    4.2460    1.7520   20.8250 C   0  0  0  0  0  0  0  0  0  0  0  0
    3.8860    2.1050   19.5250 C   0  0  0  0  0  0  0  0  0  0  0  0
    4.6610    1.7170   18.4380 C   0  0  0  0  0  0  0  0  0  0  0  0
    9.0430    0.2380   21.4940 C   0  0  0  0  0  0  0  0  0  0  0  0
   15.0234   -1.9028   22.7442 C   0  0  0  0  0  0  0  0  0  0  0  0
    8.5105   -5.6662   25.5725 C   0  0  0  0  0  0  0  0  0  0  0  0
   10.7220    0.6590   23.1850 C   0  0  0  0  0  0  0  0  0  0  0  0
    9.5820   -0.1080   22.7000 C   0  0  1  0  0  0  0  0  0  0  0  0
   13.8926   -0.2416   21.4111 N   0  0  0  0  0  0  0  0  0  0  0  0
    7.5840   -0.2700   18.5160 N   0  0  0  0  0  0  0  0  0  0  0  0
    6.7100    0.3850   17.8100 N   0  0  0  0  0  0  0  0  0  0  0  0
   13.9141   -1.0086   22.5144 N   0  0  0  0  0  0  0  0  0  0  0  0
    5.7970    0.9500   18.6730 N   0  0  0  0  0  0  0  0  0  0  0  0
    8.0950   -0.7700   20.8440 N   0  0  0  0  0  0  0  0  0  0  0  0
    9.2950    1.3000   20.9480 O   0  0  0  0  0  0  0  0  0  0  0  0
    7.9856   -4.3803   25.8987 O   0  0  0  0  0  0  0  0  0  0  0  0
   10.2677   -2.6721   22.3861 H   0  0  0  0  0  0  0  0  0  0  0  0
    7.8705   -0.0015   24.7586 H   0  0  0  0  0  0  0  0  0  0  0  0
    9.5403   -4.5634   23.7844 H   0  0  0  0  0  0  0  0  0  0  0  0
    7.1918   -1.8874   26.1909 H   0  0  0  0  0  0  0  0  0  0  0  0
   12.4767    1.1426   20.7637 H   0  0  0  0  0  0  0  0  0  0  0  0
   12.7125   -1.3913   24.2472 H   0  0  0  0  0  0  0  0  0  0  0  0
    5.6529    0.7487   22.0767 H   0  0  0  0  0  0  0  0  0  0  0  0
    3.6388    2.0586   21.6675 H   0  0  0  0  0  0  0  0  0  0  0  0
    2.9822    2.6968   19.3330 H   0  0  0  0  0  0  0  0  0  0  0  0
    4.4111    1.9893   17.4360 H   0  0  0  0  0  0  0  0  0  0  0  0
   14.7824   -2.8646   22.2839 H   0  0  0  0  0  0  0  0  0  0  0  0
   15.9289   -1.4818   22.2983 H   0  0  0  0  0  0  0  0  0  0  0  0
   15.1758   -2.0203   23.8207 H   0  0  0  0  0  0  0  0  0  0  0  0
    8.1445   -6.4032   26.2915 H   0  0  0  0  0  0  0  0  0  0  0  0
    9.6027   -5.6312   25.5944 H   0  0  0  0  0  0  0  0  0  0  0  0
    8.1768   -5.9424   24.5694 H   0  0  0  0  0  0  0  0  0  0  0  0
   10.7266    0.7141   24.2815 H   0  0  0  0  0  0  0  0  0  0  0  0
   10.6502    1.7003   22.8412 H   0  0  0  0  0  0  0  0  0  0  0  0
    8.7027    0.7972   23.4026 H   0  0  0  0  0  0  0  0  0  0  0  0
    8.0713   -1.6185   21.0737 H   0  0  0  0  0  0  0  0  0  0  0  0
  1  3  2  0  0  0  0
  1  7  1  0  0  0  0
  2  4  1  0  0  0  0
  2  7  2  0  0  0  0
  3  9  1  0  0  0  0
  4  9  2  0  0  0  0
  5  8  1  0  0  0  0
  5 21  2  0  0  0  0
  6  8  2  0  0  0  0
  6 24  1  0  0  0  0
  7 20  1  0  0  0  0
  8 19  1  0  0  0  0
  9 28  1  0  0  0  0
 10 11  2  0  0  0  0
 10 12  1  0  0  0  0
 10 25  1  0  0  0  0
 11 22  1  0  0  0  0
 11 26  1  0  0  0  0
 12 13  2  0  0  0  0
 13 14  1  0  0  0  0
 14 15  2  0  0  0  0
 15 25  1  0  0  0  0
 16 20  1  0  0  0  0
 16 26  1  0  0  0  0
 16 27  2  0  0  0  0
 17 24  1  0  0  0  0
 18 28  1  0  0  0  0
 19 20  1  1  0  0  0
 21 24  1  0  0  0  0
 22 23  2  0  0  0  0
 23 25  1  0  0  0  0
  1 29  1  0  0  0  0
  2 30  1  0  0  0  0
  3 31  1  0  0  0  0
  4 32  1  0  0  0  0
  5 33  1  0  0  0  0
  6 34  1  0  0  0  0
 12 35  1  0  0  0  0
 13 36  1  0  0  0  0
 14 37  1  0  0  0  0
 15 38  1  0  0  0  0
 17 39  1  0  0  0  0
 17 40  1  0  0  0  0
 17 41  1  0  0  0  0
 18 42  1  0  0  0  0
 18 43  1  0  0  0  0
 18 44  1  0  0  0  0
 19 45  1  0  0  0  0
 19 46  1  0  0  0  0
 20 47  1  0  0  0  0
 26 48  1  0  0  0  0
M  END
> <clash_score>
0

> <docking_score>
-5.592568874359131

> <overlap_score>
0.8843244314193726

$$$$
BENZO_271_2
  -OEChem-08222022463D

 48 51  0     1  0  0  0  0  0999 V2000
    9.5890   -2.4950   23.2210 C   0  0  0  0  0  0  0  0  0  0  0  0
    8.2550   -1.0010   24.5520 C   0  0  0  0  0  0  0  0  0  0  0  0
    9.1890   -3.5540   24.0140 C   0  0  0  0  0  0  0  0  0  0  0  0
    7.8700   -2.0610   25.3550 C   0  0  0  0  0  0  0  0  0  0  0  0
   12.1294   -0.7684   24.8759 C   0  0  0  0  0  0  0  0  0  0  0  0
   12.9208   -0.6622   22.8272 C   0  0  0  0  0  0  0  0  0  0  0  0
    9.1280   -1.2090   23.4870 C   0  0  0  0  0  0  0  0  0  0  0  0
   11.8786   -0.2190   23.6043 C   0  0  0  0  0  0  0  0  0  0  0  0
    8.3450   -3.3440   25.0980 C   0  0  0  0  0  0  0  0  0  0  0  0
    6.1460    0.6070   19.9750 C   0  0  0  0  0  0  0  0  0  0  0  0
    7.2710   -0.1460   19.8310 C   0  0  0  0  0  0  0  0  0  0  0  0
    5.3890    1.0010   21.0690 C   0  0  0  0  0  0  0  0  0  0  0  0
    4.2460    1.7520   20.8250 C   0  0  0  0  0  0  0  0  0  0  0  0
    3.8860    2.1050   19.5250 C   0  0  0  0  0  0  0  0  0  0  0  0
    4.6610    1.7170   18.4380 C   0  0  0  0  0  0  0  0  0  0  0  0
    9.0430    0.2380   21.4940 C   0  0  0  0  0  0  0  0  0  0  0  0
   14.9196   -2.1033   23.2819 C   0  0  0  0  0  0  0  0  0  0  0  0
    8.5105   -5.6662   25.5725 C   0  0  0  0  0  0  0  0  0  0  0  0
   10.7220    0.6590   23.1850 C   0  0  0  0  0  0  0  0  0  0  0  0
    9.5820   -0.1080   22.7000 C   0  0  2  0  0  0  0  0  0  0  0  0
   13.2434   -1.5045   24.9090 N   0  0  0  0  0  0  0  0  0  0  0  0
    7.5840   -0.2700   18.5160 N   0  0  0  0  0  0  0  0  0  0  0  0
    6.7100    0.3850   17.8100 N   0  0  0  0  0  0  0  0  0  0  0  0
   13.7018   -1.4209   23.6485 N   0  0  0  0  0  0  0  0  0  0  0  0
    5.7970    0.9500   18.6730 N   0  0  0  0  0  0  0  0  0  0  0  0
    8.0950   -0.7700   20.8440 N   0  0  0  0  0  0  0  0  0  0  0  0
    9.2950    1.3000   20.9480 O   0  0  0  0  0  0  0  0  0  0  0  0
    7.9856   -4.3803   25.8987 O   0  0  0  0  0  0  0  0  0  0  0  0
   10.2677   -2.6721   22.3861 H   0  0  0  0  0  0  0  0  0  0  0  0
    7.8705   -0.0015   24.7586 H   0  0  0  0  0  0  0  0  0  0  0  0
    9.5403   -4.5634   23.7844 H   0  0  0  0  0  0  0  0  0  0  0  0
    7.1918   -1.8874   26.1909 H   0  0  0  0  0  0  0  0  0  0  0  0
   11.5479   -0.6652   25.7811 H   0  0  0  0  0  0  0  0  0  0  0  0
   13.1664   -0.5073   21.7853 H   0  0  0  0  0  0  0  0  0  0  0  0
    5.6529    0.7487   22.0767 H   0  0  0  0  0  0  0  0  0  0  0  0
    3.6388    2.0586   21.6675 H   0  0  0  0  0  0  0  0  0  0  0  0
    2.9822    2.6968   19.3330 H   0  0  0  0  0  0  0  0  0  0  0  0
    4.4111    1.9893   17.4360 H   0  0  0  0  0  0  0  0  0  0  0  0
   15.7545   -1.4186   23.4527 H   0  0  0  0  0  0  0  0  0  0  0  0
   15.0313   -3.0027   23.8939 H   0  0  0  0  0  0  0  0  0  0  0  0
   14.8693   -2.3913   22.2281 H   0  0  0  0  0  0  0  0  0  0  0  0
    8.1445   -6.4032   26.2915 H   0  0  0  0  0  0  0  0  0  0  0  0
    9.6027   -5.6312   25.5944 H   0  0  0  0  0  0  0  0  0  0  0  0
    8.1768   -5.9424   24.5694 H   0  0  0  0  0  0  0  0  0  0  0  0
   10.4369    1.3080   24.0233 H   0  0  0  0  0  0  0  0  0  0  0  0
   11.0815    1.3384   22.3997 H   0  0  0  0  0  0  0  0  0  0  0  0
   10.5413   -0.9955   22.0233 H   0  0  0  0  0  0  0  0  0  0  0  0
    8.0713   -1.6185   21.0737 H   0  0  0  0  0  0  0  0  0  0  0  0
  1  3  2  0  0  0  0
  1  7  1  0  0  0  0
  2  4  1  0  0  0  0
  2  7  2  0  0  0  0
  3  9  1  0  0  0  0
  4  9  2  0  0  0  0
  5  8  1  0  0  0  0
  5 21  2  0  0  0  0
  6  8  2  0  0  0  0
  6 24  1  0  0  0  0
  7 20  1  0  0  0  0
  8 19  1  0  0  0  0
  9 28  1  0  0  0  0
 10 11  2  0  0  0  0
 10 12  1  0  0  0  0
 10 25  1  0  0  0  0
 11 22  1  0  0  0  0
 11 26  1  0  0  0  0
 12 13  2  0  0  0  0
 13 14  1  0  0  0  0
 14 15  2  0  0  0  0
 15 25  1  0  0  0  0
 16 20  1  0  0  0  0
 16 26  1  0  0  0  0
 16 27  2  0  0  0  0
 17 24  1  0  0  0  0
 18 28  1  0  0  0  0
 19 20  1  6  0  0  0
 21 24  1  0  0  0  0
 22 23  2  0  0  0  0
 23 25  1  0  0  0  0
  1 29  1  0  0  0  0
  2 30  1  0  0  0  0
  3 31  1  0  0  0  0
  4 32  1  0  0  0  0
  5 33  1  0  0  0  0
  6 34  1  0  0  0  0
 12 35  1  0  0  0  0
 13 36  1  0  0  0  0
 14 37  1  0  0  0  0
 15 38  1  0  0  0  0
 17 39  1  0  0  0  0
 17 40  1  0  0  0  0
 17 41  1  0  0  0  0
 18 42  1  0  0  0  0
 18 43  1  0  0  0  0
 18 44  1  0  0  0  0
 19 45  1  0  0  0  0
 19 46  1  0  0  0  0
 20 47  1  0  0  0  0
 26 48  1  0  0  0  0
M  END
> <clash_score>
0

> <docking_score>
-6.700188636779785

> <overlap_score>
0.8982759118080139

$$$$
BENZO_270_1
  -OEChem-08222022463D

 48 51  0     1  0  0  0  0  0999 V2000
   13.8165    0.0398   21.0674 C   0  0  0  0  0  0  0  0  0  0  0  0
   12.5963    0.5519   21.5081 C   0  0  0  0  0  0  0  0  0  0  0  0
    9.5890   -2.4950   23.2210 C   0  0  0  0  0  0  0  0  0  0  0  0
    8.2550   -1.0010   24.5520 C   0  0  0  0  0  0  0  0  0  0  0  0
    9.1890   -3.5540   24.0140 C   0  0  0  0  0  0  0  0  0  0  0  0
    7.8700   -2.0610   25.3550 C   0  0  0  0  0  0  0  0  0  0  0  0
   14.4843   -0.9216   21.8261 C   0  0  0  0  0  0  0  0  0  0  0  0
   12.7115   -0.8586   23.4662 C   0  0  0  0  0  0  0  0  0  0  0  0
    9.1280   -1.2090   23.4870 C   0  0  0  0  0  0  0  0  0  0  0  0
   12.0437    0.1027   22.7075 C   0  0  0  0  0  0  0  0  0  0  0  0
    8.3450   -3.3440   25.0980 C   0  0  0  0  0  0  0  0  0  0  0  0
   13.9318   -1.3708   23.0255 C   0  0  0  0  0  0  0  0  0  0  0  0
    6.1460    0.6070   19.9750 C   0  0  0  0  0  0  0  0  0  0  0  0
    7.2710   -0.1460   19.8310 C   0  0  0  0  0  0  0  0  0  0  0  0
    5.3890    1.0010   21.0690 C   0  0  0  0  0  0  0  0  0  0  0  0
    4.2460    1.7520   20.8250 C   0  0  0  0  0  0  0  0  0  0  0  0
    3.8860    2.1050   19.5250 C   0  0  0  0  0  0  0  0  0  0  0  0
    4.6610    1.7170   18.4380 C   0  0  0  0  0  0  0  0  0  0  0  0
    9.0430    0.2380   21.4940 C   0  0  0  0  0  0  0  0  0  0  0  0
    8.5105   -5.6662   25.5725 C   0  0  0  0  0  0  0  0  0  0  0  0
   10.7220    0.6590   23.1850 C   0  0  0  0  0  0  0  0  0  0  0  0
    9.5820   -0.1080   22.7000 C   0  0  1  0  0  0  0  0  0  0  0  0
    7.5840   -0.2700   18.5160 N   0  0  0  0  0  0  0  0  0  0  0  0
    6.7100    0.3850   17.8100 N   0  0  0  0  0  0  0  0  0  0  0  0
    5.7970    0.9500   18.6730 N   0  0  0  0  0  0  0  0  0  0  0  0
    8.0950   -0.7700   20.8440 N   0  0  0  0  0  0  0  0  0  0  0  0
    9.2950    1.3000   20.9480 O   0  0  0  0  0  0  0  0  0  0  0  0
    7.9856   -4.3803   25.8987 O   0  0  0  0  0  0  0  0  0  0  0  0
   14.7567   -2.5560   23.9617 Cl  0  0  0  0  0  0  0  0  0  0  0  0
   14.2465    0.3899   20.1334 H   0  0  0  0  0  0  0  0  0  0  0  0
   12.0830    1.3007   20.9105 H   0  0  0  0  0  0  0  0  0  0  0  0
   10.2677   -2.6721   22.3861 H   0  0  0  0  0  0  0  0  0  0  0  0
    7.8705   -0.0015   24.7586 H   0  0  0  0  0  0  0  0  0  0  0  0
    9.5403   -4.5634   23.7844 H   0  0  0  0  0  0  0  0  0  0  0  0
    7.1918   -1.8874   26.1909 H   0  0  0  0  0  0  0  0  0  0  0  0
   15.4348   -1.3117   21.4704 H   0  0  0  0  0  0  0  0  0  0  0  0
   12.2763   -1.2059   24.4005 H   0  0  0  0  0  0  0  0  0  0  0  0
    5.6529    0.7487   22.0767 H   0  0  0  0  0  0  0  0  0  0  0  0
    3.6388    2.0586   21.6675 H   0  0  0  0  0  0  0  0  0  0  0  0
    2.9822    2.6968   19.3330 H   0  0  0  0  0  0  0  0  0  0  0  0
    4.4111    1.9893   17.4360 H   0  0  0  0  0  0  0  0  0  0  0  0
    8.1445   -6.4032   26.2915 H   0  0  0  0  0  0  0  0  0  0  0  0
    9.6027   -5.6312   25.5944 H   0  0  0  0  0  0  0  0  0  0  0  0
    8.1768   -5.9424   24.5694 H   0  0  0  0  0  0  0  0  0  0  0  0
   10.7266    0.7141   24.2815 H   0  0  0  0  0  0  0  0  0  0  0  0
   10.6502    1.7003   22.8412 H   0  0  0  0  0  0  0  0  0  0  0  0
    8.7027    0.7972   23.4026 H   0  0  0  0  0  0  0  0  0  0  0  0
    8.0713   -1.6185   21.0737 H   0  0  0  0  0  0  0  0  0  0  0  0
  1  2  2  0  0  0  0
  1  7  1  0  0  0  0
  2 10  1  0  0  0  0
  3  5  2  0  0  0  0
  3  9  1  0  0  0  0
  4  6  1  0  0  0  0
  4  9  2  0  0  0  0
  5 11  1  0  0  0  0
  6 11  2  0  0  0  0
  7 12  2  0  0  0  0
  8 10  2  0  0  0  0
  8 12  1  0  0  0  0
  9 22  1  0  0  0  0
 10 21  1  0  0  0  0
 11 28  1  0  0  0  0
 12 29  1  0  0  0  0
 13 14  2  0  0  0  0
 13 15  1  0  0  0  0
 13 25  1  0  0  0  0
 14 23  1  0  0  0  0
 14 26  1  0  0  0  0
 15 16  2  0  0  0  0
 16 17  1  0  0  0  0
 17 18  2  0  0  0  0
 18 25  1  0  0  0  0
 19 22  1  0  0  0  0
 19 26  1  0  0  0  0
 19 27  2  0  0  0  0
 20 28  1  0  0  0  0
 21 22  1  1  0  0  0
 23 24  2  0  0  0  0
 24 25  1  0  0  0  0
  1 30  1  0  0  0  0
  2 31  1  0  0  0  0
  3 32  1  0  0  0  0
  4 33  1  0  0  0  0
  5 34  1  0  0  0  0
  6 35  1  0  0  0  0
  7 36  1  0  0  0  0
  8 37  1  0  0  0  0
 15 38  1  0  0  0  0
 16 39  1  0  0  0  0
 17 40  1  0  0  0  0
 18 41  1  0  0  0  0
 20 42  1  0  0  0  0
 20 43  1  0  0  0  0
 20 44  1  0  0  0  0
 21 45  1  0  0  0  0
 21 46  1  0  0  0  0
 22 47  1  0  0  0  0
 26 48  1  0  0  0  0
M  END
> <clash_score>
0

> <docking_score>
-6.2306413650512695

> <overlap_score>
0.8904343843460083

$$$$
BENZO_270_2
  -OEChem-08222022463D

 48 51  0     1  0  0  0  0  0999 V2000
   13.0334   -1.4852   25.3072 C   0  0  0  0  0  0  0  0  0  0  0  0
   11.9669   -0.6740   24.9199 C   0  0  0  0  0  0  0  0  0  0  0  0
    9.5890   -2.4950   23.2210 C   0  0  0  0  0  0  0  0  0  0  0  0
    8.2550   -1.0010   24.5520 C   0  0  0  0  0  0  0  0  0  0  0  0
    9.1890   -3.5540   24.0140 C   0  0  0  0  0  0  0  0  0  0  0  0
    7.8700   -2.0610   25.3550 C   0  0  0  0  0  0  0  0  0  0  0  0
   14.0118   -1.8413   24.3790 C   0  0  0  0  0  0  0  0  0  0  0  0
   12.8570   -0.5751   22.6760 C   0  0  0  0  0  0  0  0  0  0  0  0
    9.1280   -1.2090   23.4870 C   0  0  0  0  0  0  0  0  0  0  0  0
   11.8786   -0.2190   23.6043 C   0  0  0  0  0  0  0  0  0  0  0  0
    8.3450   -3.3440   25.0980 C   0  0  0  0  0  0  0  0  0  0  0  0
   13.9235   -1.3863   23.0634 C   0  0  0  0  0  0  0  0  0  0  0  0
    6.1460    0.6070   19.9750 C   0  0  0  0  0  0  0  0  0  0  0  0
    7.2710   -0.1460   19.8310 C   0  0  0  0  0  0  0  0  0  0  0  0
    5.3890    1.0010   21.0690 C   0  0  0  0  0  0  0  0  0  0  0  0
    4.2460    1.7520   20.8250 C   0  0  0  0  0  0  0  0  0  0  0  0
    3.8860    2.1050   19.5250 C   0  0  0  0  0  0  0  0  0  0  0  0
    4.6610    1.7170   18.4380 C   0  0  0  0  0  0  0  0  0  0  0  0
    9.0430    0.2380   21.4940 C   0  0  0  0  0  0  0  0  0  0  0  0
    8.5105   -5.6662   25.5725 C   0  0  0  0  0  0  0  0  0  0  0  0
   10.7220    0.6590   23.1850 C   0  0  0  0  0  0  0  0  0  0  0  0
    9.5820   -0.1080   22.7000 C   0  0  2  0  0  0  0  0  0  0  0  0
    7.5840   -0.2700   18.5160 N   0  0  0  0  0  0  0  0  0  0  0  0
    6.7100    0.3850   17.8100 N   0  0  0  0  0  0  0  0  0  0  0  0
    5.7970    0.9500   18.6730 N   0  0  0  0  0  0  0  0  0  0  0  0
    8.0950   -0.7700   20.8440 N   0  0  0  0  0  0  0  0  0  0  0  0
    9.2950    1.3000   20.9480 O   0  0  0  0  0  0  0  0  0  0  0  0
    7.9856   -4.3803   25.8987 O   0  0  0  0  0  0  0  0  0  0  0  0
   15.1303   -1.8270   21.9183 Cl  0  0  0  0  0  0  0  0  0  0  0  0
   13.1017   -1.8394   26.3318 H   0  0  0  0  0  0  0  0  0  0  0  0
   11.2091   -0.4015   25.6498 H   0  0  0  0  0  0  0  0  0  0  0  0
   10.2677   -2.6721   22.3861 H   0  0  0  0  0  0  0  0  0  0  0  0
    7.8705   -0.0015   24.7586 H   0  0  0  0  0  0  0  0  0  0  0  0
    9.5403   -4.5634   23.7844 H   0  0  0  0  0  0  0  0  0  0  0  0
    7.1918   -1.8874   26.1909 H   0  0  0  0  0  0  0  0  0  0  0  0
   14.8373   -2.4744   24.6949 H   0  0  0  0  0  0  0  0  0  0  0  0
   12.7839   -0.2174   21.6515 H   0  0  0  0  0  0  0  0  0  0  0  0
    5.6529    0.7487   22.0767 H   0  0  0  0  0  0  0  0  0  0  0  0
    3.6388    2.0586   21.6675 H   0  0  0  0  0  0  0  0  0  0  0  0
    2.9822    2.6968   19.3330 H   0  0  0  0  0  0  0  0  0  0  0  0
    4.4111    1.9893   17.4360 H   0  0  0  0  0  0  0  0  0  0  0  0
    8.1445   -6.4032   26.2915 H   0  0  0  0  0  0  0  0  0  0  0  0
    9.6027   -5.6312   25.5944 H   0  0  0  0  0  0  0  0  0  0  0  0
    8.1768   -5.9424   24.5694 H   0  0  0  0  0  0  0  0  0  0  0  0
   10.4369    1.3080   24.0233 H   0  0  0  0  0  0  0  0  0  0  0  0
   11.0815    1.3384   22.3997 H   0  0  0  0  0  0  0  0  0  0  0  0
   10.5413   -0.9955   22.0233 H   0  0  0  0  0  0  0  0  0  0  0  0
    8.0713   -1.6185   21.0737 H   0  0  0  0  0  0  0  0  0  0  0  0
  1  2  2  0  0  0  0
  1  7  1  0  0  0  0
  2 10  1  0  0  0  0
  3  5  2  0  0  0  0
  3  9  1  0  0  0  0
  4  6  1  0  0  0  0
  4  9  2  0  0  0  0
  5 11  1  0  0  0  0
  6 11  2  0  0  0  0
  7 12  2  0  0  0  0
  8 10  2  0  0  0  0
  8 12  1  0  0  0  0
  9 22  1  0  0  0  0
 10 21  1  0  0  0  0
 11 28  1  0  0  0  0
 12 29  1  0  0  0  0
 13 14  2  0  0  0  0
 13 15  1  0  0  0  0
 13 25  1  0  0  0  0
 14 23  1  0  0  0  0
 14 26  1  0  0  0  0
 15 16  2  0  0  0  0
 16 17  1  0  0  0  0
 17 18  2  0  0  0  0
 18 25  1  0  0  0  0
 19 22  1  0  0  0  0
 19 26  1  0  0  0  0
 19 27  2  0  0  0  0
 20 28  1  0  0  0  0
 21 22  1  6  0  0  0
 23 24  2  0  0  0  0
 24 25  1  0  0  0  0
  1 30  1  0  0  0  0
  2 31  1  0  0  0  0
  3 32  1  0  0  0  0
  4 33  1  0  0  0  0
  5 34  1  0  0  0  0
  6 35  1  0  0  0  0
  7 36  1  0  0  0  0
  8 37  1  0  0  0  0
 15 38  1  0  0  0  0
 16 39  1  0  0  0  0
 17 40  1  0  0  0  0
 18 41  1  0  0  0  0
 20 42  1  0  0  0  0
 20 43  1  0  0  0  0
 20 44  1  0  0  0  0
 21 45  1  0  0  0  0
 21 46  1  0  0  0  0
 22 47  1  0  0  0  0
 26 48  1  0  0  0  0
M  END
> <clash_score>
0

> <docking_score>
-6.750898361206055

> <overlap_score>
0.9027413129806519

$$$$
BENZO_273_1
  -OEChem-08222022463D

 58 62  0     1  0  0  0  0  0999 V2000
   14.0446   -1.7965   24.3813 C   0  0  0  0  0  0  0  0  0  0  0  0
   13.0634   -1.4504   25.3102 C   0  0  0  0  0  0  0  0  0  0  0  0
   13.9483   -1.3462   23.0646 C   0  0  0  0  0  0  0  0  0  0  0  0
   11.9858   -0.6541   24.9225 C   0  0  0  0  0  0  0  0  0  0  0  0
   12.8707   -0.5498   22.6769 C   0  0  0  0  0  0  0  0  0  0  0  0
    9.5890   -2.4950   23.2210 C   0  0  0  0  0  0  0  0  0  0  0  0
    8.2550   -1.0010   24.5520 C   0  0  0  0  0  0  0  0  0  0  0  0
    9.1890   -3.5540   24.0140 C   0  0  0  0  0  0  0  0  0  0  0  0
    7.8700   -2.0610   25.3550 C   0  0  0  0  0  0  0  0  0  0  0  0
   11.8895   -0.2037   23.6058 C   0  0  0  0  0  0  0  0  0  0  0  0
    9.1280   -1.2090   23.4870 C   0  0  0  0  0  0  0  0  0  0  0  0
    8.3450   -3.3440   25.0980 C   0  0  0  0  0  0  0  0  0  0  0  0
    6.1460    0.6070   19.9750 C   0  0  0  0  0  0  0  0  0  0  0  0
    7.2710   -0.1460   19.8310 C   0  0  0  0  0  0  0  0  0  0  0  0
    5.3890    1.0010   21.0690 C   0  0  0  0  0  0  0  0  0  0  0  0
    4.2460    1.7520   20.8250 C   0  0  0  0  0  0  0  0  0  0  0  0
    3.8860    2.1050   19.5250 C   0  0  0  0  0  0  0  0  0  0  0  0
    4.6610    1.7170   18.4380 C   0  0  0  0  0  0  0  0  0  0  0  0
    6.6194   -4.8191   26.1158 C   0  0  0  0  0  0  0  0  0  0  0  0
    9.0430    0.2380   21.4940 C   0  0  0  0  0  0  0  0  0  0  0  0
    6.4366   -5.9938   27.0605 C   0  0  0  0  0  0  0  0  0  0  0  0
    7.2458   -5.7947   28.3299 C   0  0  0  0  0  0  0  0  0  0  0  0
    8.7184   -5.5215   28.0404 C   0  0  0  0  0  0  0  0  0  0  0  0
    9.0024   -5.2744   26.5596 C   0  0  0  0  0  0  0  0  0  0  0  0
   10.7220    0.6590   23.1850 C   0  0  0  0  0  0  0  0  0  0  0  0
    9.5820   -0.1080   22.7000 C   0  0  1  0  0  0  0  0  0  0  0  0
    7.5840   -0.2700   18.5160 N   0  0  0  0  0  0  0  0  0  0  0  0
    6.7100    0.3850   17.8100 N   0  0  0  0  0  0  0  0  0  0  0  0
    5.7970    0.9500   18.6730 N   0  0  0  0  0  0  0  0  0  0  0  0
    7.9658   -4.4384   25.9449 N   0  0  0  0  0  0  0  0  0  0  0  0
    8.0950   -0.7700   20.8440 N   0  0  0  0  0  0  0  0  0  0  0  0
    5.6415   -4.3469   25.5373 O   0  0  0  0  0  0  0  0  0  0  0  0
    9.2950    1.3000   20.9480 O   0  0  0  0  0  0  0  0  0  0  0  0
   14.8842   -2.4155   24.6836 H   0  0  0  0  0  0  0  0  0  0  0  0
   13.1387   -1.8001   26.3358 H   0  0  0  0  0  0  0  0  0  0  0  0
   14.7126   -1.6146   22.3413 H   0  0  0  0  0  0  0  0  0  0  0  0
   11.2258   -0.3895   25.6531 H   0  0  0  0  0  0  0  0  0  0  0  0
   12.8039   -0.2037   21.6488 H   0  0  0  0  0  0  0  0  0  0  0  0
   10.2695   -2.6718   22.3873 H   0  0  0  0  0  0  0  0  0  0  0  0
    7.8712   -0.0014   24.7587 H   0  0  0  0  0  0  0  0  0  0  0  0
    9.5431   -4.5618   23.7801 H   0  0  0  0  0  0  0  0  0  0  0  0
    7.1923   -1.8823   26.1912 H   0  0  0  0  0  0  0  0  0  0  0  0
    5.6529    0.7487   22.0767 H   0  0  0  0  0  0  0  0  0  0  0  0
    3.6388    2.0586   21.6675 H   0  0  0  0  0  0  0  0  0  0  0  0
    2.9822    2.6968   19.3330 H   0  0  0  0  0  0  0  0  0  0  0  0
    4.4111    1.9893   17.4360 H   0  0  0  0  0  0  0  0  0  0  0  0
    5.3901   -6.0734   27.3117 H   0  0  0  0  0  0  0  0  0  0  0  0
    6.7606   -6.8843   26.5429 H   0  0  0  0  0  0  0  0  0  0  0  0
    6.8221   -4.9563   28.9212 H   0  0  0  0  0  0  0  0  0  0  0  0
    7.1526   -6.6910   28.9757 H   0  0  0  0  0  0  0  0  0  0  0  0
    9.0539   -4.6418   28.6288 H   0  0  0  0  0  0  0  0  0  0  0  0
    9.3393   -6.3684   28.4053 H   0  0  0  0  0  0  0  0  0  0  0  0
    9.9475   -4.7506   26.4523 H   0  0  0  0  0  0  0  0  0  0  0  0
    9.0509   -6.2236   26.0372 H   0  0  0  0  0  0  0  0  0  0  0  0
   10.4316    1.3089   24.0208 H   0  0  0  0  0  0  0  0  0  0  0  0
   11.0719    1.3385   22.3955 H   0  0  0  0  0  0  0  0  0  0  0  0
   10.5438   -0.9939   22.0202 H   0  0  0  0  0  0  0  0  0  0  0  0
    8.0917   -1.6083   21.0911 H   0  0  0  0  0  0  0  0  0  0  0  0
  1  2  1  0  0  0  0
  1  3  2  0  0  0  0
  2  4  2  0  0  0  0
  3  5  1  0  0  0  0
  4 10  1  0  0  0  0
  5 10  2  0  0  0  0
  6  8  2  0  0  0  0
  6 11  1  0  0  0  0
  7  9  1  0  0  0  0
  7 11  2  0  0  0  0
  8 12  1  0  0  0  0
  9 12  2  0  0  0  0
 10 25  1  0  0  0  0
 11 26  1  0  0  0  0
 12 30  1  0  0  0  0
 13 14  2  0  0  0  0
 13 15  1  0  0  0  0
 13 29  1  0  0  0  0
 14 27  1  0  0  0  0
 14 31  1  0  0  0  0
 15 16  2  0  0  0  0
 16 17  1  0  0  0  0
 17 18  2  0  0  0  0
 18 29  1  0  0  0  0
 19 21  1  0  0  0  0
 19 30  1  0  0  0  0
 19 32  2  0  0  0  0
 20 26  1  1  0  0  0
 20 31  1  0  0  0  0
 20 33  2  0  0  0  0
 21 22  1  0  0  0  0
 22 23  1  0  0  0  0
 23 24  1  0  0  0  0
 24 30  1  0  0  0  0
 25 26  1  0  0  0  0
 27 28  2  0  0  0  0
 28 29  1  0  0  0  0
  1 34  1  0  0  0  0
  2 35  1  0  0  0  0
  3 36  1  0  0  0  0
  4 37  1  0  0  0  0
  5 38  1  0  0  0  0
  6 39  1  0  0  0  0
  7 40  1  0  0  0  0
  8 41  1  0  0  0  0
  9 42  1  0  0  0  0
 15 43  1  0  0  0  0
 16 44  1  0  0  0  0
 17 45  1  0  0  0  0
 18 46  1  0  0  0  0
 21 47  1  0  0  0  0
 21 48  1  0  0  0  0
 22 49  1  0  0  0  0
 22 50  1  0  0  0  0
 23 51  1  0  0  0  0
 23 52  1  0  0  0  0
 24 53  1  0  0  0  0
 24 54  1  0  0  0  0
 25 55  1  0  0  0  0
 25 56  1  0  0  0  0
 26 57  1  0  0  0  0
 31 58  1  0  0  0  0
M  END
> <clash_score>
0

> <docking_score>
-8.441906929016113

> <overlap_score>
0.9768222570419312

$$$$
BENZO_273_2
  -OEChem-08222022463D

 58 62  0     1  0  0  0  0  0999 V2000
   14.5087   -0.8923   21.8603 C   0  0  0  0  0  0  0  0  0  0  0  0
   13.9503   -1.3434   23.0563 C   0  0  0  0  0  0  0  0  0  0  0  0
   13.8391    0.0619   21.0942 C   0  0  0  0  0  0  0  0  0  0  0  0
   12.7223   -0.8405   23.4861 C   0  0  0  0  0  0  0  0  0  0  0  0
   12.6112    0.5649   21.5240 C   0  0  0  0  0  0  0  0  0  0  0  0
    9.5890   -2.4950   23.2210 C   0  0  0  0  0  0  0  0  0  0  0  0
    8.2550   -1.0010   24.5520 C   0  0  0  0  0  0  0  0  0  0  0  0
    9.1890   -3.5540   24.0140 C   0  0  0  0  0  0  0  0  0  0  0  0
    7.8700   -2.0610   25.3550 C   0  0  0  0  0  0  0  0  0  0  0  0
   12.0527    0.1137   22.7200 C   0  0  0  0  0  0  0  0  0  0  0  0
    9.1280   -1.2090   23.4870 C   0  0  0  0  0  0  0  0  0  0  0  0
    8.3450   -3.3440   25.0980 C   0  0  0  0  0  0  0  0  0  0  0  0
    6.1460    0.6070   19.9750 C   0  0  0  0  0  0  0  0  0  0  0  0
    7.2710   -0.1460   19.8310 C   0  0  0  0  0  0  0  0  0  0  0  0
    5.3890    1.0010   21.0690 C   0  0  0  0  0  0  0  0  0  0  0  0
    4.2460    1.7520   20.8250 C   0  0  0  0  0  0  0  0  0  0  0  0
    3.8860    2.1050   19.5250 C   0  0  0  0  0  0  0  0  0  0  0  0
    4.6610    1.7170   18.4380 C   0  0  0  0  0  0  0  0  0  0  0  0
    7.6777   -4.2365   27.3114 C   0  0  0  0  0  0  0  0  0  0  0  0
    9.0430    0.2380   21.4940 C   0  0  0  0  0  0  0  0  0  0  0  0
    7.0008   -5.3819   28.0445 C   0  0  0  0  0  0  0  0  0  0  0  0
    7.4106   -6.7604   27.5741 C   0  0  0  0  0  0  0  0  0  0  0  0
    7.2148   -6.8411   26.0763 C   0  0  0  0  0  0  0  0  0  0  0  0
    8.0979   -5.8053   25.4011 C   0  0  0  0  0  0  0  0  0  0  0  0
   10.7220    0.6590   23.1850 C   0  0  0  0  0  0  0  0  0  0  0  0
    9.5820   -0.1080   22.7000 C   0  0  2  0  0  0  0  0  0  0  0  0
    7.5840   -0.2700   18.5160 N   0  0  0  0  0  0  0  0  0  0  0  0
    6.7100    0.3850   17.8100 N   0  0  0  0  0  0  0  0  0  0  0  0
    5.7970    0.9500   18.6730 N   0  0  0  0  0  0  0  0  0  0  0  0
    7.9635   -4.4451   25.9501 N   0  0  0  0  0  0  0  0  0  0  0  0
    8.0950   -0.7700   20.8440 N   0  0  0  0  0  0  0  0  0  0  0  0
    7.8778   -3.1892   27.9327 O   0  0  0  0  0  0  0  0  0  0  0  0
    9.2950    1.3000   20.9480 O   0  0  0  0  0  0  0  0  0  0  0  0
   15.4655   -1.2831   21.5265 H   0  0  0  0  0  0  0  0  0  0  0  0
   14.4720   -2.0856   23.6535 H   0  0  0  0  0  0  0  0  0  0  0  0
   14.2741    0.4142   20.1636 H   0  0  0  0  0  0  0  0  0  0  0  0
   12.2947   -1.1979   24.4191 H   0  0  0  0  0  0  0  0  0  0  0  0
   12.0966    1.3080   20.9206 H   0  0  0  0  0  0  0  0  0  0  0  0
   10.2695   -2.6718   22.3873 H   0  0  0  0  0  0  0  0  0  0  0  0
    7.8712   -0.0014   24.7587 H   0  0  0  0  0  0  0  0  0  0  0  0
    9.5431   -4.5618   23.7801 H   0  0  0  0  0  0  0  0  0  0  0  0
    7.1923   -1.8823   26.1912 H   0  0  0  0  0  0  0  0  0  0  0  0
    5.6529    0.7487   22.0767 H   0  0  0  0  0  0  0  0  0  0  0  0
    3.6388    2.0586   21.6675 H   0  0  0  0  0  0  0  0  0  0  0  0
    2.9822    2.6968   19.3330 H   0  0  0  0  0  0  0  0  0  0  0  0
    4.4111    1.9893   17.4360 H   0  0  0  0  0  0  0  0  0  0  0  0
    7.2290   -5.2845   29.1121 H   0  0  0  0  0  0  0  0  0  0  0  0
    5.9188   -5.2480   27.9251 H   0  0  0  0  0  0  0  0  0  0  0  0
    8.4598   -6.9525   27.8289 H   0  0  0  0  0  0  0  0  0  0  0  0
    6.8062   -7.5226   28.0776 H   0  0  0  0  0  0  0  0  0  0  0  0
    7.4789   -7.8416   25.7161 H   0  0  0  0  0  0  0  0  0  0  0  0
    6.1634   -6.6702   25.8155 H   0  0  0  0  0  0  0  0  0  0  0  0
    9.1520   -6.0895   25.5127 H   0  0  0  0  0  0  0  0  0  0  0  0
    7.8696   -5.7728   24.3290 H   0  0  0  0  0  0  0  0  0  0  0  0
   10.7177    0.7189   24.2812 H   0  0  0  0  0  0  0  0  0  0  0  0
   10.6426    1.6980   22.8361 H   0  0  0  0  0  0  0  0  0  0  0  0
    8.7036    0.8022   23.4008 H   0  0  0  0  0  0  0  0  0  0  0  0
    8.0917   -1.6083   21.0911 H   0  0  0  0  0  0  0  0  0  0  0  0
  1  2  1  0  0  0  0
  1  3  2  0  0  0  0
  2  4  2  0  0  0  0
  3  5  1  0  0  0  0
  4 10  1  0  0  0  0
  5 10  2  0  0  0  0
  6  8  2  0  0  0  0
  6 11  1  0  0  0  0
  7  9  1  0  0  0  0
  7 11  2  0  0  0  0
  8 12  1  0  0  0  0
  9 12  2  0  0  0  0
 10 25  1  0  0  0  0
 11 26  1  0  0  0  0
 12 30  1  0  0  0  0
 13 14  2  0  0  0  0
 13 15  1  0  0  0  0
 13 29  1  0  0  0  0
 14 27  1  0  0  0  0
 14 31  1  0  0  0  0
 15 16  2  0  0  0  0
 16 17  1  0  0  0  0
 17 18  2  0  0  0  0
 18 29  1  0  0  0  0
 19 21  1  0  0  0  0
 19 30  1  0  0  0  0
 19 32  2  0  0  0  0
 20 26  1  6  0  0  0
 20 31  1  0  0  0  0
 20 33  2  0  0  0  0
 21 22  1  0  0  0  0
 22 23  1  0  0  0  0
 23 24  1  0  0  0  0
 24 30  1  0  0  0  0
 25 26  1  0  0  0  0
 27 28  2  0  0  0  0
 28 29  1  0  0  0  0
  1 34  1  0  0  0  0
  2 35  1  0  0  0  0
  3 36  1  0  0  0  0
  4 37  1  0  0  0  0
  5 38  1  0  0  0  0
  6 39  1  0  0  0  0
  7 40  1  0  0  0  0
  8 41  1  0  0  0  0
  9 42  1  0  0  0  0
 15 43  1  0  0  0  0
 16 44  1  0  0  0  0
 17 45  1  0  0  0  0
 18 46  1  0  0  0  0
 21 47  1  0  0  0  0
 21 48  1  0  0  0  0
 22 49  1  0  0  0  0
 22 50  1  0  0  0  0
 23 51  1  0  0  0  0
 23 52  1  0  0  0  0
 24 53  1  0  0  0  0
 24 54  1  0  0  0  0
 25 55  1  0  0  0  0
 25 56  1  0  0  0  0
 26 57  1  0  0  0  0
 31 58  1  0  0  0  0
M  END
> <clash_score>
0

> <docking_score>
-6.650120735168457

> <overlap_score>
0.9639173150062561

$$$$
BENZO_272_1
  -OEChem-08222022463D

 55 59  0     1  0  0  0  0  0999 V2000
    9.5890   -2.4950   23.2210 C   0  0  0  0  0  0  0  0  0  0  0  0
    8.2550   -1.0010   24.5520 C   0  0  0  0  0  0  0  0  0  0  0  0
    9.1890   -3.5540   24.0140 C   0  0  0  0  0  0  0  0  0  0  0  0
    7.8700   -2.0610   25.3550 C   0  0  0  0  0  0  0  0  0  0  0  0
   12.0564    0.2021   25.3592 C   0  0  0  0  0  0  0  0  0  0  0  0
   12.9335   -0.7085   25.9059 C   0  0  0  0  0  0  0  0  0  0  0  0
   12.2727   -1.3216   23.6174 C   0  0  0  0  0  0  0  0  0  0  0  0
    9.1280   -1.2090   23.4870 C   0  0  0  0  0  0  0  0  0  0  0  0
   11.6734   -0.1530   24.0335 C   0  0  0  0  0  0  0  0  0  0  0  0
    8.3450   -3.3440   25.0980 C   0  0  0  0  0  0  0  0  0  0  0  0
    6.1460    0.6070   19.9750 C   0  0  0  0  0  0  0  0  0  0  0  0
    7.2710   -0.1460   19.8310 C   0  0  0  0  0  0  0  0  0  0  0  0
    5.3890    1.0010   21.0690 C   0  0  0  0  0  0  0  0  0  0  0  0
    4.2460    1.7520   20.8250 C   0  0  0  0  0  0  0  0  0  0  0  0
    3.8860    2.1050   19.5250 C   0  0  0  0  0  0  0  0  0  0  0  0
    4.6610    1.7170   18.4380 C   0  0  0  0  0  0  0  0  0  0  0  0
    6.7262   -4.4697   26.6151 C   0  0  0  0  0  0  0  0  0  0  0  0
    9.0430    0.2380   21.4940 C   0  0  0  0  0  0  0  0  0  0  0  0
    6.5282   -5.7113   27.4665 C   0  0  0  0  0  0  0  0  0  0  0  0
    7.7583   -5.9846   28.3140 C   0  0  0  0  0  0  0  0  0  0  0  0
    9.0310   -6.0659   27.4769 C   0  0  0  0  0  0  0  0  0  0  0  0
    8.8255   -5.6238   26.0289 C   0  0  0  0  0  0  0  0  0  0  0  0
   10.7220    0.6590   23.1850 C   0  0  0  0  0  0  0  0  0  0  0  0
    9.5820   -0.1080   22.7000 C   0  0  1  0  0  0  0  0  0  0  0  0
    7.5840   -0.2700   18.5160 N   0  0  0  0  0  0  0  0  0  0  0  0
    6.7100    0.3850   17.8100 N   0  0  0  0  0  0  0  0  0  0  0  0
    5.7970    0.9500   18.6730 N   0  0  0  0  0  0  0  0  0  0  0  0
    7.9658   -4.4384   25.9449 N   0  0  0  0  0  0  0  0  0  0  0  0
    8.0950   -0.7700   20.8440 N   0  0  0  0  0  0  0  0  0  0  0  0
    5.8136   -3.6504   26.5144 O   0  0  0  0  0  0  0  0  0  0  0  0
    9.2950    1.3000   20.9480 O   0  0  0  0  0  0  0  0  0  0  0  0
   13.2920   -1.9854   24.8226 S   0  0  0  0  0  0  0  0  0  0  0  0
   10.2695   -2.6718   22.3873 H   0  0  0  0  0  0  0  0  0  0  0  0
    7.8712   -0.0014   24.7587 H   0  0  0  0  0  0  0  0  0  0  0  0
    9.5431   -4.5618   23.7801 H   0  0  0  0  0  0  0  0  0  0  0  0
    7.1923   -1.8823   26.1912 H   0  0  0  0  0  0  0  0  0  0  0  0
   11.7089    1.0803   25.8886 H   0  0  0  0  0  0  0  0  0  0  0  0
   13.3816   -0.6848   26.8892 H   0  0  0  0  0  0  0  0  0  0  0  0
   12.1643   -1.8199   22.6640 H   0  0  0  0  0  0  0  0  0  0  0  0
    5.6529    0.7487   22.0767 H   0  0  0  0  0  0  0  0  0  0  0  0
    3.6388    2.0586   21.6675 H   0  0  0  0  0  0  0  0  0  0  0  0
    2.9822    2.6968   19.3330 H   0  0  0  0  0  0  0  0  0  0  0  0
    4.4111    1.9893   17.4360 H   0  0  0  0  0  0  0  0  0  0  0  0
    5.6771   -5.5542   28.1111 H   0  0  0  0  0  0  0  0  0  0  0  0
    6.3384   -6.5392   26.7998 H   0  0  0  0  0  0  0  0  0  0  0  0
    7.8707   -5.1934   29.0843 H   0  0  0  0  0  0  0  0  0  0  0  0
    7.6207   -6.9300   28.8764 H   0  0  0  0  0  0  0  0  0  0  0  0
    9.8202   -5.4387   27.9422 H   0  0  0  0  0  0  0  0  0  0  0  0
    9.4333   -7.1021   27.4993 H   0  0  0  0  0  0  0  0  0  0  0  0
    9.7828   -5.3621   25.5884 H   0  0  0  0  0  0  0  0  0  0  0  0
    8.3738   -6.4323   25.4644 H   0  0  0  0  0  0  0  0  0  0  0  0
   10.3911    1.5389   23.7520 H   0  0  0  0  0  0  0  0  0  0  0  0
   11.2877    1.0581   22.3317 H   0  0  0  0  0  0  0  0  0  0  0  0
   10.5438   -0.9939   22.0202 H   0  0  0  0  0  0  0  0  0  0  0  0
    8.0917   -1.6083   21.0911 H   0  0  0  0  0  0  0  0  0  0  0  0
  1  3  2  0  0  0  0
  1  8  1  0  0  0  0
  2  4  1  0  0  0  0
  2  8  2  0  0  0  0
  3 10  1  0  0  0  0
  4 10  2  0  0  0  0
  5  6  2  0  0  0  0
  5  9  1  0  0  0  0
  6 32  1  0  0  0  0
  7  9  2  0  0  0  0
  7 32  1  0  0  0  0
  8 24  1  0  0  0  0
  9 23  1  0  0  0  0
 10 28  1  0  0  0  0
 11 12  2  0  0  0  0
 11 13  1  0  0  0  0
 11 27  1  0  0  0  0
 12 25  1  0  0  0  0
 12 29  1  0  0  0  0
 13 14  2  0  0  0  0
 14 15  1  0  0  0  0
 15 16  2  0  0  0  0
 16 27  1  0  0  0  0
 17 19  1  0  0  0  0
 17 28  1  0  0  0  0
 17 30  2  0  0  0  0
 18 24  1  1  0  0  0
 18 29  1  0  0  0  0
 18 31  2  0  0  0  0
 19 20  1  0  0  0  0
 20 21  1  0  0  0  0
 21 22  1  0  0  0  0
 22 28  1  0  0  0  0
 23 24  1  0  0  0  0
 25 26  2  0  0  0  0
 26 27  1  0  0  0  0
  1 33  1  0  0  0  0
  2 34  1  0  0  0  0
  3 35  1  0  0  0  0
  4 36  1  0  0  0  0
  5 37  1  0  0  0  0
  6 38  1  0  0  0  0
  7 39  1  0  0  0  0
 13 40  1  0  0  0  0
 14 41  1  0  0  0  0
 15 42  1  0  0  0  0
 16 43  1  0  0  0  0
 19 44  1  0  0  0  0
 19 45  1  0  0  0  0
 20 46  1  0  0  0  0
 20 47  1  0  0  0  0
 21 48  1  0  0  0  0
 21 49  1  0  0  0  0
 22 50  1  0  0  0  0
 22 51  1  0  0  0  0
 23 52  1  0  0  0  0
 23 53  1  0  0  0  0
 24 54  1  0  0  0  0
 29 55  1  0  0  0  0
M  END
> <clash_score>
0

> <docking_score>
-5.659966468811035

> <overlap_score>
0.9133999347686768

$$$$
BENZO_272_2
  -OEChem-08222022463D

 55 59  0     1  0  0  0  0  0999 V2000
    9.5890   -2.4950   23.2210 C   0  0  0  0  0  0  0  0  0  0  0  0
    8.2550   -1.0010   24.5520 C   0  0  0  0  0  0  0  0  0  0  0  0
    9.1890   -3.5540   24.0140 C   0  0  0  0  0  0  0  0  0  0  0  0
    7.8700   -2.0610   25.3550 C   0  0  0  0  0  0  0  0  0  0  0  0
   13.1119   -0.2539   23.5994 C   0  0  0  0  0  0  0  0  0  0  0  0
   14.2133   -0.7203   22.9162 C   0  0  0  0  0  0  0  0  0  0  0  0
   12.3853   -0.0856   21.3980 C   0  0  0  0  0  0  0  0  0  0  0  0
    9.1280   -1.2090   23.4870 C   0  0  0  0  0  0  0  0  0  0  0  0
   12.0527    0.1137   22.7200 C   0  0  0  0  0  0  0  0  0  0  0  0
    8.3450   -3.3440   25.0980 C   0  0  0  0  0  0  0  0  0  0  0  0
    6.1460    0.6070   19.9750 C   0  0  0  0  0  0  0  0  0  0  0  0
    7.2710   -0.1460   19.8310 C   0  0  0  0  0  0  0  0  0  0  0  0
    5.3890    1.0010   21.0690 C   0  0  0  0  0  0  0  0  0  0  0  0
    4.2460    1.7520   20.8250 C   0  0  0  0  0  0  0  0  0  0  0  0
    3.8860    2.1050   19.5250 C   0  0  0  0  0  0  0  0  0  0  0  0
    4.6610    1.7170   18.4380 C   0  0  0  0  0  0  0  0  0  0  0  0
    6.6194   -4.8191   26.1158 C   0  0  0  0  0  0  0  0  0  0  0  0
    9.0430    0.2380   21.4940 C   0  0  0  0  0  0  0  0  0  0  0  0
    6.4366   -5.9938   27.0605 C   0  0  0  0  0  0  0  0  0  0  0  0
    7.2458   -5.7947   28.3299 C   0  0  0  0  0  0  0  0  0  0  0  0
    8.7184   -5.5215   28.0404 C   0  0  0  0  0  0  0  0  0  0  0  0
    9.0024   -5.2744   26.5596 C   0  0  0  0  0  0  0  0  0  0  0  0
   10.7220    0.6590   23.1850 C   0  0  0  0  0  0  0  0  0  0  0  0
    9.5820   -0.1080   22.7000 C   0  0  2  0  0  0  0  0  0  0  0  0
    7.5840   -0.2700   18.5160 N   0  0  0  0  0  0  0  0  0  0  0  0
    6.7100    0.3850   17.8100 N   0  0  0  0  0  0  0  0  0  0  0  0
    5.7970    0.9500   18.6730 N   0  0  0  0  0  0  0  0  0  0  0  0
    7.9658   -4.4384   25.9449 N   0  0  0  0  0  0  0  0  0  0  0  0
    8.0950   -0.7700   20.8440 N   0  0  0  0  0  0  0  0  0  0  0  0
    5.6415   -4.3469   25.5373 O   0  0  0  0  0  0  0  0  0  0  0  0
    9.2950    1.3000   20.9480 O   0  0  0  0  0  0  0  0  0  0  0  0
   13.9685   -0.7137   21.2214 S   0  0  0  0  0  0  0  0  0  0  0  0
   10.2695   -2.6718   22.3873 H   0  0  0  0  0  0  0  0  0  0  0  0
    7.8712   -0.0014   24.7587 H   0  0  0  0  0  0  0  0  0  0  0  0
    9.5431   -4.5618   23.7801 H   0  0  0  0  0  0  0  0  0  0  0  0
    7.1923   -1.8823   26.1912 H   0  0  0  0  0  0  0  0  0  0  0  0
   13.0722   -0.1811   24.6789 H   0  0  0  0  0  0  0  0  0  0  0  0
   15.1504   -1.0639   23.3311 H   0  0  0  0  0  0  0  0  0  0  0  0
   11.7778    0.1074   20.5246 H   0  0  0  0  0  0  0  0  0  0  0  0
    5.6529    0.7487   22.0767 H   0  0  0  0  0  0  0  0  0  0  0  0
    3.6388    2.0586   21.6675 H   0  0  0  0  0  0  0  0  0  0  0  0
    2.9822    2.6968   19.3330 H   0  0  0  0  0  0  0  0  0  0  0  0
    4.4111    1.9893   17.4360 H   0  0  0  0  0  0  0  0  0  0  0  0
    5.3901   -6.0734   27.3117 H   0  0  0  0  0  0  0  0  0  0  0  0
    6.7606   -6.8843   26.5429 H   0  0  0  0  0  0  0  0  0  0  0  0
    6.8221   -4.9563   28.9212 H   0  0  0  0  0  0  0  0  0  0  0  0
    7.1526   -6.6910   28.9757 H   0  0  0  0  0  0  0  0  0  0  0  0
    9.0539   -4.6418   28.6288 H   0  0  0  0  0  0  0  0  0  0  0  0
    9.3393   -6.3684   28.4053 H   0  0  0  0  0  0  0  0  0  0  0  0
    9.9475   -4.7506   26.4523 H   0  0  0  0  0  0  0  0  0  0  0  0
    9.0509   -6.2236   26.0372 H   0  0  0  0  0  0  0  0  0  0  0  0
   10.7177    0.7189   24.2812 H   0  0  0  0  0  0  0  0  0  0  0  0
   10.6426    1.6980   22.8361 H   0  0  0  0  0  0  0  0  0  0  0  0
    8.7036    0.8022   23.4008 H   0  0  0  0  0  0  0  0  0  0  0  0
    8.0917   -1.6083   21.0911 H   0  0  0  0  0  0  0  0  0  0  0  0
  1  3  2  0  0  0  0
  1  8  1  0  0  0  0
  2  4  1  0  0  0  0
  2  8  2  0  0  0  0
  3 10  1  0  0  0  0
  4 10  2  0  0  0  0
  5  6  2  0  0  0  0
  5  9  1  0  0  0  0
  6 32  1  0  0  0  0
  7  9  2  0  0  0  0
  7 32  1  0  0  0  0
  8 24  1  0  0  0  0
  9 23  1  0  0  0  0
 10 28  1  0  0  0  0
 11 12  2  0  0  0  0
 11 13  1  0  0  0  0
 11 27  1  0  0  0  0
 12 25  1  0  0  0  0
 12 29  1  0  0  0  0
 13 14  2  0  0  0  0
 14 15  1  0  0  0  0
 15 16  2  0  0  0  0
 16 27  1  0  0  0  0
 17 19  1  0  0  0  0
 17 28  1  0  0  0  0
 17 30  2  0  0  0  0
 18 24  1  6  0  0  0
 18 29  1  0  0  0  0
 18 31  2  0  0  0  0
 19 20  1  0  0  0  0
 20 21  1  0  0  0  0
 21 22  1  0  0  0  0
 22 28  1  0  0  0  0
 23 24  1  0  0  0  0
 25 26  2  0  0  0  0
 26 27  1  0  0  0  0
  1 33  1  0  0  0  0
  2 34  1  0  0  0  0
  3 35  1  0  0  0  0
  4 36  1  0  0  0  0
  5 37  1  0  0  0  0
  6 38  1  0  0  0  0
  7 39  1  0  0  0  0
 13 40  1  0  0  0  0
 14 41  1  0  0  0  0
 15 42  1  0  0  0  0
 16 43  1  0  0  0  0
 19 44  1  0  0  0  0
 19 45  1  0  0  0  0
 20 46  1  0  0  0  0
 20 47  1  0  0  0  0
 21 48  1  0  0  0  0
 21 49  1  0  0  0  0
 22 50  1  0  0  0  0
 22 51  1  0  0  0  0
 23 52  1  0  0  0  0
 23 53  1  0  0  0  0
 24 54  1  0  0  0  0
 29 55  1  0  0  0  0
M  END
> <clash_score>
0

> <docking_score>
-7.5991902351379395

> <overlap_score>
0.951969563961029

$$$$
BENZO_274_2
  -OEChem-08222022463D

 58 62  0     1  0  0  0  0  0999 V2000
   13.8402    0.0638   21.0954 C   0  0  0  0  0  0  0  0  0  0  0  0
   12.6116    0.5657   21.5246 C   0  0  0  0  0  0  0  0  0  0  0  0
    9.5890   -2.4950   23.2210 C   0  0  0  0  0  0  0  0  0  0  0  0
    8.2550   -1.0010   24.5520 C   0  0  0  0  0  0  0  0  0  0  0  0
    9.1890   -3.5540   24.0140 C   0  0  0  0  0  0  0  0  0  0  0  0
    7.8700   -2.0610   25.3550 C   0  0  0  0  0  0  0  0  0  0  0  0
   14.5099   -0.8903   21.8616 C   0  0  0  0  0  0  0  0  0  0  0  0
   12.7224   -0.8403   23.4862 C   0  0  0  0  0  0  0  0  0  0  0  0
    9.1280   -1.2090   23.4870 C   0  0  0  0  0  0  0  0  0  0  0  0
   12.0527    0.1137   22.7200 C   0  0  0  0  0  0  0  0  0  0  0  0
    8.3450   -3.3440   25.0980 C   0  0  0  0  0  0  0  0  0  0  0  0
   13.9510   -1.3423   23.0570 C   0  0  0  0  0  0  0  0  0  0  0  0
    6.1460    0.6070   19.9750 C   0  0  0  0  0  0  0  0  0  0  0  0
    7.2710   -0.1460   19.8310 C   0  0  0  0  0  0  0  0  0  0  0  0
    5.3890    1.0010   21.0690 C   0  0  0  0  0  0  0  0  0  0  0  0
    4.2460    1.7520   20.8250 C   0  0  0  0  0  0  0  0  0  0  0  0
    3.8860    2.1050   19.5250 C   0  0  0  0  0  0  0  0  0  0  0  0
    4.6610    1.7170   18.4380 C   0  0  0  0  0  0  0  0  0  0  0  0
    6.6194   -4.8191   26.1158 C   0  0  0  0  0  0  0  0  0  0  0  0
    9.0430    0.2380   21.4940 C   0  0  0  0  0  0  0  0  0  0  0  0
    6.4366   -5.9938   27.0605 C   0  0  0  0  0  0  0  0  0  0  0  0
    7.2458   -5.7947   28.3299 C   0  0  0  0  0  0  0  0  0  0  0  0
    8.7184   -5.5215   28.0404 C   0  0  0  0  0  0  0  0  0  0  0  0
    9.0024   -5.2744   26.5596 C   0  0  0  0  0  0  0  0  0  0  0  0
   10.7220    0.6590   23.1850 C   0  0  0  0  0  0  0  0  0  0  0  0
    9.5820   -0.1080   22.7000 C   0  0  2  0  0  0  0  0  0  0  0  0
    7.5840   -0.2700   18.5160 N   0  0  0  0  0  0  0  0  0  0  0  0
    6.7100    0.3850   17.8100 N   0  0  0  0  0  0  0  0  0  0  0  0
    5.7970    0.9500   18.6730 N   0  0  0  0  0  0  0  0  0  0  0  0
    7.9658   -4.4384   25.9449 N   0  0  0  0  0  0  0  0  0  0  0  0
    8.0950   -0.7700   20.8440 N   0  0  0  0  0  0  0  0  0  0  0  0
    5.6415   -4.3469   25.5373 O   0  0  0  0  0  0  0  0  0  0  0  0
    9.2950    1.3000   20.9480 O   0  0  0  0  0  0  0  0  0  0  0  0
   14.7783   -2.5185   24.0025 Cl  0  0  0  0  0  0  0  0  0  0  0  0
   14.2752    0.4162   20.1646 H   0  0  0  0  0  0  0  0  0  0  0  0
   12.0969    1.3090   20.9213 H   0  0  0  0  0  0  0  0  0  0  0  0
   10.2695   -2.6718   22.3873 H   0  0  0  0  0  0  0  0  0  0  0  0
    7.8712   -0.0014   24.7587 H   0  0  0  0  0  0  0  0  0  0  0  0
    9.5431   -4.5618   23.7801 H   0  0  0  0  0  0  0  0  0  0  0  0
    7.1923   -1.8823   26.1912 H   0  0  0  0  0  0  0  0  0  0  0  0
   15.4669   -1.2724   21.5149 H   0  0  0  0  0  0  0  0  0  0  0  0
   12.2822   -1.1899   24.4172 H   0  0  0  0  0  0  0  0  0  0  0  0
    5.6529    0.7487   22.0767 H   0  0  0  0  0  0  0  0  0  0  0  0
    3.6388    2.0586   21.6675 H   0  0  0  0  0  0  0  0  0  0  0  0
    2.9822    2.6968   19.3330 H   0  0  0  0  0  0  0  0  0  0  0  0
    4.4111    1.9893   17.4360 H   0  0  0  0  0  0  0  0  0  0  0  0
    5.3901   -6.0734   27.3117 H   0  0  0  0  0  0  0  0  0  0  0  0
    6.7606   -6.8843   26.5429 H   0  0  0  0  0  0  0  0  0  0  0  0
    6.8221   -4.9563   28.9212 H   0  0  0  0  0  0  0  0  0  0  0  0
    7.1526   -6.6910   28.9757 H   0  0  0  0  0  0  0  0  0  0  0  0
    9.0539   -4.6418   28.6288 H   0  0  0  0  0  0  0  0  0  0  0  0
    9.3393   -6.3684   28.4053 H   0  0  0  0  0  0  0  0  0  0  0  0
    9.9475   -4.7506   26.4523 H   0  0  0  0  0  0  0  0  0  0  0  0
    9.0509   -6.2236   26.0372 H   0  0  0  0  0  0  0  0  0  0  0  0
   10.7177    0.7189   24.2812 H   0  0  0  0  0  0  0  0  0  0  0  0
   10.6426    1.6980   22.8361 H   0  0  0  0  0  0  0  0  0  0  0  0
    8.7036    0.8022   23.4008 H   0  0  0  0  0  0  0  0  0  0  0  0
    8.0917   -1.6083   21.0911 H   0  0  0  0  0  0  0  0  0  0  0  0
  1  2  2  0  0  0  0
  1  7  1  0  0  0  0
  2 10  1  0  0  0  0
  3  5  2  0  0  0  0
  3  9  1  0  0  0  0
  4  6  1  0  0  0  0
  4  9  2  0  0  0  0
  5 11  1  0  0  0  0
  6 11  2  0  0  0  0
  7 12  2  0  0  0  0
  8 10  2  0  0  0  0
  8 12  1  0  0  0  0
  9 26  1  0  0  0  0
 10 25  1  0  0  0  0
 11 30  1  0  0  0  0
 12 34  1  0  0  0  0
 13 14  2  0  0  0  0
 13 15  1  0  0  0  0
 13 29  1  0  0  0  0
 14 27  1  0  0  0  0
 14 31  1  0  0  0  0
 15 16  2  0  0  0  0
 16 17  1  0  0  0  0
 17 18  2  0  0  0  0
 18 29  1  0  0  0  0
 19 21  1  0  0  0  0
 19 30  1  0  0  0  0
 19 32  2  0  0  0  0
 20 26  1  6  0  0  0
 20 31  1  0  0  0  0
 20 33  2  0  0  0  0
 21 22  1  0  0  0  0
 22 23  1  0  0  0  0
 23 24  1  0  0  0  0
 24 30  1  0  0  0  0
 25 26  1  0  0  0  0
 27 28  2  0  0  0  0
 28 29  1  0  0  0  0
  1 35  1  0  0  0  0
  2 36  1  0  0  0  0
  3 37  1  0  0  0  0
  4 38  1  0  0  0  0
  5 39  1  0  0  0  0
  6 40  1  0  0  0  0
  7 41  1  0  0  0  0
  8 42  1  0  0  0  0
 15 43  1  0  0  0  0
 16 44  1  0  0  0  0
 17 45  1  0  0  0  0
 18 46  1  0  0  0  0
 21 47  1  0  0  0  0
 21 48  1  0  0  0  0
 22 49  1  0  0  0  0
 22 50  1  0  0  0  0
 23 51  1  0  0  0  0
 23 52  1  0  0  0  0
 24 53  1  0  0  0  0
 24 54  1  0  0  0  0
 25 55  1  0  0  0  0
 25 56  1  0  0  0  0
 26 57  1  0  0  0  0
 31 58  1  0  0  0  0
M  END
> <clash_score>
0

> <docking_score>
-6.930152416229248

> <overlap_score>
0.9699636697769165

$$$$
BENZO_274_1
  -OEChem-08222022463D

 58 62  0     1  0  0  0  0  0999 V2000
   13.0606   -1.4512   25.3114 C   0  0  0  0  0  0  0  0  0  0  0  0
   11.9841   -0.6541   24.9226 C   0  0  0  0  0  0  0  0  0  0  0  0
    9.5890   -2.4950   23.2210 C   0  0  0  0  0  0  0  0  0  0  0  0
    8.2550   -1.0010   24.5520 C   0  0  0  0  0  0  0  0  0  0  0  0
    9.1890   -3.5540   24.0140 C   0  0  0  0  0  0  0  0  0  0  0  0
    7.8700   -2.0610   25.3550 C   0  0  0  0  0  0  0  0  0  0  0  0
   14.0427   -1.7980   24.3834 C   0  0  0  0  0  0  0  0  0  0  0  0
   12.8714   -0.5506   22.6778 C   0  0  0  0  0  0  0  0  0  0  0  0
    9.1280   -1.2090   23.4870 C   0  0  0  0  0  0  0  0  0  0  0  0
   11.8895   -0.2037   23.6058 C   0  0  0  0  0  0  0  0  0  0  0  0
    8.3450   -3.3440   25.0980 C   0  0  0  0  0  0  0  0  0  0  0  0
   13.9480   -1.3477   23.0666 C   0  0  0  0  0  0  0  0  0  0  0  0
    6.1460    0.6070   19.9750 C   0  0  0  0  0  0  0  0  0  0  0  0
    7.2710   -0.1460   19.8310 C   0  0  0  0  0  0  0  0  0  0  0  0
    5.3890    1.0010   21.0690 C   0  0  0  0  0  0  0  0  0  0  0  0
    4.2460    1.7520   20.8250 C   0  0  0  0  0  0  0  0  0  0  0  0
    3.8860    2.1050   19.5250 C   0  0  0  0  0  0  0  0  0  0  0  0
    4.6610    1.7170   18.4380 C   0  0  0  0  0  0  0  0  0  0  0  0
    6.6194   -4.8191   26.1158 C   0  0  0  0  0  0  0  0  0  0  0  0
    9.0430    0.2380   21.4940 C   0  0  0  0  0  0  0  0  0  0  0  0
    6.4366   -5.9938   27.0605 C   0  0  0  0  0  0  0  0  0  0  0  0
    7.2458   -5.7947   28.3299 C   0  0  0  0  0  0  0  0  0  0  0  0
    8.7184   -5.5215   28.0404 C   0  0  0  0  0  0  0  0  0  0  0  0
    9.0024   -5.2744   26.5596 C   0  0  0  0  0  0  0  0  0  0  0  0
   10.7220    0.6590   23.1850 C   0  0  0  0  0  0  0  0  0  0  0  0
    9.5820   -0.1080   22.7000 C   0  0  1  0  0  0  0  0  0  0  0  0
    7.5840   -0.2700   18.5160 N   0  0  0  0  0  0  0  0  0  0  0  0
    6.7100    0.3850   17.8100 N   0  0  0  0  0  0  0  0  0  0  0  0
    5.7970    0.9500   18.6730 N   0  0  0  0  0  0  0  0  0  0  0  0
    7.9658   -4.4384   25.9449 N   0  0  0  0  0  0  0  0  0  0  0  0
    8.0950   -0.7700   20.8440 N   0  0  0  0  0  0  0  0  0  0  0  0
    5.6415   -4.3469   25.5373 O   0  0  0  0  0  0  0  0  0  0  0  0
    9.2950    1.3000   20.9480 O   0  0  0  0  0  0  0  0  0  0  0  0
   15.1593   -1.7769   21.9219 Cl  0  0  0  0  0  0  0  0  0  0  0  0
   13.1339   -1.8018   26.3368 H   0  0  0  0  0  0  0  0  0  0  0  0
   11.2235   -0.3889   25.6523 H   0  0  0  0  0  0  0  0  0  0  0  0
   10.2695   -2.6718   22.3873 H   0  0  0  0  0  0  0  0  0  0  0  0
    7.8712   -0.0014   24.7587 H   0  0  0  0  0  0  0  0  0  0  0  0
    9.5431   -4.5618   23.7801 H   0  0  0  0  0  0  0  0  0  0  0  0
    7.1923   -1.8823   26.1912 H   0  0  0  0  0  0  0  0  0  0  0  0
   14.8760   -2.4202   24.7005 H   0  0  0  0  0  0  0  0  0  0  0  0
   12.7934   -0.1965   21.6525 H   0  0  0  0  0  0  0  0  0  0  0  0
    5.6529    0.7487   22.0767 H   0  0  0  0  0  0  0  0  0  0  0  0
    3.6388    2.0586   21.6675 H   0  0  0  0  0  0  0  0  0  0  0  0
    2.9822    2.6968   19.3330 H   0  0  0  0  0  0  0  0  0  0  0  0
    4.4111    1.9893   17.4360 H   0  0  0  0  0  0  0  0  0  0  0  0
    5.3901   -6.0734   27.3117 H   0  0  0  0  0  0  0  0  0  0  0  0
    6.7606   -6.8843   26.5429 H   0  0  0  0  0  0  0  0  0  0  0  0
    6.8221   -4.9563   28.9212 H   0  0  0  0  0  0  0  0  0  0  0  0
    7.1526   -6.6910   28.9757 H   0  0  0  0  0  0  0  0  0  0  0  0
    9.0539   -4.6418   28.6288 H   0  0  0  0  0  0  0  0  0  0  0  0
    9.3393   -6.3684   28.4053 H   0  0  0  0  0  0  0  0  0  0  0  0
    9.9475   -4.7506   26.4523 H   0  0  0  0  0  0  0  0  0  0  0  0
    9.0509   -6.2236   26.0372 H   0  0  0  0  0  0  0  0  0  0  0  0
   10.4316    1.3089   24.0208 H   0  0  0  0  0  0  0  0  0  0  0  0
   11.0719    1.3385   22.3955 H   0  0  0  0  0  0  0  0  0  0  0  0
   10.5438   -0.9939   22.0202 H   0  0  0  0  0  0  0  0  0  0  0  0
    8.0917   -1.6083   21.0911 H   0  0  0  0  0  0  0  0  0  0  0  0
  1  2  2  0  0  0  0
  1  7  1  0  0  0  0
  2 10  1  0  0  0  0
  3  5  2  0  0  0  0
  3  9  1  0  0  0  0
  4  6  1  0  0  0  0
  4  9  2  0  0  0  0
  5 11  1  0  0  0  0
  6 11  2  0  0  0  0
  7 12  2  0  0  0  0
  8 10  2  0  0  0  0
  8 12  1  0  0  0  0
  9 26  1  0  0  0  0
 10 25  1  0  0  0  0
 11 30  1  0  0  0  0
 12 34  1  0  0  0  0
 13 14  2  0  0  0  0
 13 15  1  0  0  0  0
 13 29  1  0  0  0  0
 14 27  1  0  0  0  0
 14 31  1  0  0  0  0
 15 16  2  0  0  0  0
 16 17  1  0  0  0  0
 17 18  2  0  0  0  0
 18 29  1  0  0  0  0
 19 21  1  0  0  0  0
 19 30  1  0  0  0  0
 19 32  2  0  0  0  0
 20 26  1  1  0  0  0
 20 31  1  0  0  0  0
 20 33  2  0  0  0  0
 21 22  1  0  0  0  0
 22 23  1  0  0  0  0
 23 24  1  0  0  0  0
 24 30  1  0  0  0  0
 25 26  1  0  0  0  0
 27 28  2  0  0  0  0
 28 29  1  0  0  0  0
  1 35  1  0  0  0  0
  2 36  1  0  0  0  0
  3 37  1  0  0  0  0
  4 38  1  0  0  0  0
  5 39  1  0  0  0  0
  6 40  1  0  0  0  0
  7 41  1  0  0  0  0
  8 42  1  0  0  0  0
 15 43  1  0  0  0  0
 16 44  1  0  0  0  0
 17 45  1  0  0  0  0
 18 46  1  0  0  0  0
 21 47  1  0  0  0  0
 21 48  1  0  0  0  0
 22 49  1  0  0  0  0
 22 50  1  0  0  0  0
 23 51  1  0  0  0  0
 23 52  1  0  0  0  0
 24 53  1  0  0  0  0
 24 54  1  0  0  0  0
 25 55  1  0  0  0  0
 25 56  1  0  0  0  0
 26 57  1  0  0  0  0
 31 58  1  0  0  0  0
M  END
> <clash_score>
0

> <docking_score>
-7.571060657501221

> <overlap_score>
0.9826020002365112

$$$$
BENZO_275_1
  -OEChem-08222022463D

 58 62  0     1  0  0  0  0  0999 V2000
    9.5890   -2.4950   23.2210 C   0  0  0  0  0  0  0  0  0  0  0  0
    8.2550   -1.0010   24.5520 C   0  0  0  0  0  0  0  0  0  0  0  0
    9.1890   -3.5540   24.0140 C   0  0  0  0  0  0  0  0  0  0  0  0
    7.8700   -2.0610   25.3550 C   0  0  0  0  0  0  0  0  0  0  0  0
   13.3380    0.6111   23.0072 C   0  0  0  0  0  0  0  0  0  0  0  0
   12.2787   -0.9819   21.9231 C   0  0  0  0  0  0  0  0  0  0  0  0
    9.1280   -1.2090   23.4870 C   0  0  0  0  0  0  0  0  0  0  0  0
   12.0527    0.1137   22.7200 C   0  0  0  0  0  0  0  0  0  0  0  0
    8.3450   -3.3440   25.0980 C   0  0  0  0  0  0  0  0  0  0  0  0
    6.1460    0.6070   19.9750 C   0  0  0  0  0  0  0  0  0  0  0  0
    7.2710   -0.1460   19.8310 C   0  0  0  0  0  0  0  0  0  0  0  0
    5.3890    1.0010   21.0690 C   0  0  0  0  0  0  0  0  0  0  0  0
    4.2460    1.7520   20.8250 C   0  0  0  0  0  0  0  0  0  0  0  0
    3.8860    2.1050   19.5250 C   0  0  0  0  0  0  0  0  0  0  0  0
    4.6610    1.7170   18.4380 C   0  0  0  0  0  0  0  0  0  0  0  0
    8.2612   -4.4533   27.3232 C   0  0  0  0  0  0  0  0  0  0  0  0
    9.0430    0.2380   21.4940 C   0  0  0  0  0  0  0  0  0  0  0  0
    7.7639   -5.6979   28.0369 C   0  0  0  0  0  0  0  0  0  0  0  0
    6.3258   -5.9996   27.6538 C   0  0  0  0  0  0  0  0  0  0  0  0
    6.1385   -6.0983   26.1431 C   0  0  0  0  0  0  0  0  0  0  0  0
    7.3646   -5.6395   25.3553 C   0  0  0  0  0  0  0  0  0  0  0  0
   14.3540   -2.0687   21.0338 C   0  0  0  0  0  0  0  0  0  0  0  0
   10.7220    0.6590   23.1850 C   0  0  0  0  0  0  0  0  0  0  0  0
    9.5820   -0.1080   22.7000 C   0  0  1  0  0  0  0  0  0  0  0  0
   14.3086   -0.1095   22.4392 N   0  0  0  0  0  0  0  0  0  0  0  0
    7.5840   -0.2700   18.5160 N   0  0  0  0  0  0  0  0  0  0  0  0
    6.7100    0.3850   17.8100 N   0  0  0  0  0  0  0  0  0  0  0  0
   13.6329   -1.0709   21.7870 N   0  0  0  0  0  0  0  0  0  0  0  0
    5.7970    0.9500   18.6730 N   0  0  0  0  0  0  0  0  0  0  0  0
    7.9658   -4.4385   25.9450 N   0  0  0  0  0  0  0  0  0  0  0  0
    8.0950   -0.7700   20.8440 N   0  0  0  0  0  0  0  0  0  0  0  0
    8.9160   -3.6176   27.9452 O   0  0  0  0  0  0  0  0  0  0  0  0
    9.2950    1.3000   20.9480 O   0  0  0  0  0  0  0  0  0  0  0  0
   10.2695   -2.6718   22.3873 H   0  0  0  0  0  0  0  0  0  0  0  0
    7.8712   -0.0014   24.7587 H   0  0  0  0  0  0  0  0  0  0  0  0
    9.5431   -4.5618   23.7801 H   0  0  0  0  0  0  0  0  0  0  0  0
    7.1923   -1.8823   26.1912 H   0  0  0  0  0  0  0  0  0  0  0  0
   13.6104    1.4678   23.6073 H   0  0  0  0  0  0  0  0  0  0  0  0
   11.6080   -1.6889   21.4540 H   0  0  0  0  0  0  0  0  0  0  0  0
    5.6529    0.7487   22.0767 H   0  0  0  0  0  0  0  0  0  0  0  0
    3.6388    2.0586   21.6675 H   0  0  0  0  0  0  0  0  0  0  0  0
    2.9822    2.6968   19.3330 H   0  0  0  0  0  0  0  0  0  0  0  0
    4.4111    1.9893   17.4360 H   0  0  0  0  0  0  0  0  0  0  0  0
    8.3914   -6.5295   27.7556 H   0  0  0  0  0  0  0  0  0  0  0  0
    7.8414   -5.5198   29.0990 H   0  0  0  0  0  0  0  0  0  0  0  0
    5.9977   -6.9465   28.1311 H   0  0  0  0  0  0  0  0  0  0  0  0
    5.6587   -5.2139   28.0619 H   0  0  0  0  0  0  0  0  0  0  0  0
    5.8986   -7.1470   25.8680 H   0  0  0  0  0  0  0  0  0  0  0  0
    5.2500   -5.5067   25.8324 H   0  0  0  0  0  0  0  0  0  0  0  0
    8.1195   -6.4201   25.3688 H   0  0  0  0  0  0  0  0  0  0  0  0
    7.0780   -5.4282   24.3307 H   0  0  0  0  0  0  0  0  0  0  0  0
   14.4774   -1.6970   20.0132 H   0  0  0  0  0  0  0  0  0  0  0  0
   15.3288   -2.2415   21.4983 H   0  0  0  0  0  0  0  0  0  0  0  0
   13.7859   -3.0032   21.0354 H   0  0  0  0  0  0  0  0  0  0  0  0
   10.7177    0.7189   24.2812 H   0  0  0  0  0  0  0  0  0  0  0  0
   10.6426    1.6980   22.8361 H   0  0  0  0  0  0  0  0  0  0  0  0
    8.7036    0.8022   23.4008 H   0  0  0  0  0  0  0  0  0  0  0  0
    8.0917   -1.6083   21.0911 H   0  0  0  0  0  0  0  0  0  0  0  0
  1  3  2  0  0  0  0
  1  7  1  0  0  0  0
  2  4  1  0  0  0  0
  2  7  2  0  0  0  0
  3  9  1  0  0  0  0
  4  9  2  0  0  0  0
  5  8  1  0  0  0  0
  5 25  2  0  0  0  0
  6  8  2  0  0  0  0
  6 28  1  0  0  0  0
  7 24  1  0  0  0  0
  8 23  1  0  0  0  0
  9 30  1  0  0  0  0
 10 11  2  0  0  0  0
 10 12  1  0  0  0  0
 10 29  1  0  0  0  0
 11 26  1  0  0  0  0
 11 31  1  0  0  0  0
 12 13  2  0  0  0  0
 13 14  1  0  0  0  0
 14 15  2  0  0  0  0
 15 29  1  0  0  0  0
 16 18  1  0  0  0  0
 16 30  1  0  0  0  0
 16 32  2  0  0  0  0
 17 24  1  0  0  0  0
 17 31  1  0  0  0  0
 17 33  2  0  0  0  0
 18 19  1  0  0  0  0
 19 20  1  0  0  0  0
 20 21  1  0  0  0  0
 21 30  1  0  0  0  0
 22 28  1  0  0  0  0
 23 24  1  1  0  0  0
 25 28  1  0  0  0  0
 26 27  2  0  0  0  0
 27 29  1  0  0  0  0
  1 34  1  0  0  0  0
  2 35  1  0  0  0  0
  3 36  1  0  0  0  0
  4 37  1  0  0  0  0
  5 38  1  0  0  0  0
  6 39  1  0  0  0  0
 12 40  1  0  0  0  0
 13 41  1  0  0  0  0
 14 42  1  0  0  0  0
 15 43  1  0  0  0  0
 18 44  1  0  0  0  0
 18 45  1  0  0  0  0
 19 46  1  0  0  0  0
 19 47  1  0  0  0  0
 20 48  1  0  0  0  0
 20 49  1  0  0  0  0
 21 50  1  0  0  0  0
 21 51  1  0  0  0  0
 22 52  1  0  0  0  0
 22 53  1  0  0  0  0
 22 54  1  0  0  0  0
 23 55  1  0  0  0  0
 23 56  1  0  0  0  0
 24 57  1  0  0  0  0
 31 58  1  0  0  0  0
M  END
> <clash_score>
0

> <docking_score>
-9.332242965698242

> <overlap_score>
0.9715062975883484

$$$$
BENZO_275_2
  -OEChem-08222022463D

 58 62  0     1  0  0  0  0  0999 V2000
    9.5890   -2.4950   23.2210 C   0  0  0  0  0  0  0  0  0  0  0  0
    8.2550   -1.0010   24.5520 C   0  0  0  0  0  0  0  0  0  0  0  0
    9.1890   -3.5540   24.0140 C   0  0  0  0  0  0  0  0  0  0  0  0
    7.8700   -2.0610   25.3550 C   0  0  0  0  0  0  0  0  0  0  0  0
   12.1477   -0.7466   24.8788 C   0  0  0  0  0  0  0  0  0  0  0  0
   12.9364   -0.6364   22.8292 C   0  0  0  0  0  0  0  0  0  0  0  0
    9.1280   -1.2090   23.4870 C   0  0  0  0  0  0  0  0  0  0  0  0
   11.8895   -0.2037   23.6058 C   0  0  0  0  0  0  0  0  0  0  0  0
    8.3450   -3.3440   25.0980 C   0  0  0  0  0  0  0  0  0  0  0  0
    6.1460    0.6070   19.9750 C   0  0  0  0  0  0  0  0  0  0  0  0
    7.2710   -0.1460   19.8310 C   0  0  0  0  0  0  0  0  0  0  0  0
    5.3890    1.0010   21.0690 C   0  0  0  0  0  0  0  0  0  0  0  0
    4.2460    1.7520   20.8250 C   0  0  0  0  0  0  0  0  0  0  0  0
    3.8860    2.1050   19.5250 C   0  0  0  0  0  0  0  0  0  0  0  0
    4.6610    1.7170   18.4380 C   0  0  0  0  0  0  0  0  0  0  0  0
    6.6194   -4.8191   26.1158 C   0  0  0  0  0  0  0  0  0  0  0  0
    9.0430    0.2380   21.4940 C   0  0  0  0  0  0  0  0  0  0  0  0
    6.4366   -5.9938   27.0605 C   0  0  0  0  0  0  0  0  0  0  0  0
    7.2458   -5.7947   28.3299 C   0  0  0  0  0  0  0  0  0  0  0  0
    8.7184   -5.5215   28.0404 C   0  0  0  0  0  0  0  0  0  0  0  0
    9.0024   -5.2744   26.5596 C   0  0  0  0  0  0  0  0  0  0  0  0
   14.9528   -2.0520   23.2864 C   0  0  0  0  0  0  0  0  0  0  0  0
   10.7220    0.6590   23.1850 C   0  0  0  0  0  0  0  0  0  0  0  0
    9.5820   -0.1080   22.7000 C   0  0  2  0  0  0  0  0  0  0  0  0
   13.2706   -1.4691   24.9131 N   0  0  0  0  0  0  0  0  0  0  0  0
    7.5840   -0.2700   18.5160 N   0  0  0  0  0  0  0  0  0  0  0  0
    6.7100    0.3850   17.8100 N   0  0  0  0  0  0  0  0  0  0  0  0
   13.7271   -1.3833   23.6520 N   0  0  0  0  0  0  0  0  0  0  0  0
    5.7970    0.9500   18.6730 N   0  0  0  0  0  0  0  0  0  0  0  0
    7.9658   -4.4384   25.9449 N   0  0  0  0  0  0  0  0  0  0  0  0
    8.0950   -0.7700   20.8440 N   0  0  0  0  0  0  0  0  0  0  0  0
    5.6415   -4.3469   25.5373 O   0  0  0  0  0  0  0  0  0  0  0  0
    9.2950    1.3000   20.9480 O   0  0  0  0  0  0  0  0  0  0  0  0
   10.2695   -2.6718   22.3873 H   0  0  0  0  0  0  0  0  0  0  0  0
    7.8712   -0.0014   24.7587 H   0  0  0  0  0  0  0  0  0  0  0  0
    9.5431   -4.5618   23.7801 H   0  0  0  0  0  0  0  0  0  0  0  0
    7.1923   -1.8823   26.1912 H   0  0  0  0  0  0  0  0  0  0  0  0
   11.5656   -0.6480   25.7841 H   0  0  0  0  0  0  0  0  0  0  0  0
   13.1794   -0.4813   21.7867 H   0  0  0  0  0  0  0  0  0  0  0  0
    5.6529    0.7487   22.0767 H   0  0  0  0  0  0  0  0  0  0  0  0
    3.6388    2.0586   21.6675 H   0  0  0  0  0  0  0  0  0  0  0  0
    2.9822    2.6968   19.3330 H   0  0  0  0  0  0  0  0  0  0  0  0
    4.4111    1.9893   17.4360 H   0  0  0  0  0  0  0  0  0  0  0  0
    5.3901   -6.0734   27.3117 H   0  0  0  0  0  0  0  0  0  0  0  0
    6.7606   -6.8843   26.5429 H   0  0  0  0  0  0  0  0  0  0  0  0
    6.8221   -4.9563   28.9212 H   0  0  0  0  0  0  0  0  0  0  0  0
    7.1526   -6.6910   28.9757 H   0  0  0  0  0  0  0  0  0  0  0  0
    9.0539   -4.6418   28.6288 H   0  0  0  0  0  0  0  0  0  0  0  0
    9.3393   -6.3684   28.4053 H   0  0  0  0  0  0  0  0  0  0  0  0
    9.9475   -4.7506   26.4523 H   0  0  0  0  0  0  0  0  0  0  0  0
    9.0509   -6.2236   26.0372 H   0  0  0  0  0  0  0  0  0  0  0  0
   15.7795   -1.3568   23.4547 H   0  0  0  0  0  0  0  0  0  0  0  0
   15.0759   -2.9483   23.9007 H   0  0  0  0  0  0  0  0  0  0  0  0
   14.9053   -2.3434   22.2334 H   0  0  0  0  0  0  0  0  0  0  0  0
   10.4316    1.3089   24.0208 H   0  0  0  0  0  0  0  0  0  0  0  0
   11.0719    1.3385   22.3955 H   0  0  0  0  0  0  0  0  0  0  0  0
   10.5438   -0.9939   22.0202 H   0  0  0  0  0  0  0  0  0  0  0  0
    8.0917   -1.6083   21.0911 H   0  0  0  0  0  0  0  0  0  0  0  0
  1  3  2  0  0  0  0
  1  7  1  0  0  0  0
  2  4  1  0  0  0  0
  2  7  2  0  0  0  0
  3  9  1  0  0  0  0
  4  9  2  0  0  0  0
  5  8  1  0  0  0  0
  5 25  2  0  0  0  0
  6  8  2  0  0  0  0
  6 28  1  0  0  0  0
  7 24  1  0  0  0  0
  8 23  1  0  0  0  0
  9 30  1  0  0  0  0
 10 11  2  0  0  0  0
 10 12  1  0  0  0  0
 10 29  1  0  0  0  0
 11 26  1  0  0  0  0
 11 31  1  0  0  0  0
 12 13  2  0  0  0  0
 13 14  1  0  0  0  0
 14 15  2  0  0  0  0
 15 29  1  0  0  0  0
 16 18  1  0  0  0  0
 16 30  1  0  0  0  0
 16 32  2  0  0  0  0
 17 24  1  0  0  0  0
 17 31  1  0  0  0  0
 17 33  2  0  0  0  0
 18 19  1  0  0  0  0
 19 20  1  0  0  0  0
 20 21  1  0  0  0  0
 21 30  1  0  0  0  0
 22 28  1  0  0  0  0
 23 24  1  6  0  0  0
 25 28  1  0  0  0  0
 26 27  2  0  0  0  0
 27 29  1  0  0  0  0
  1 34  1  0  0  0  0
  2 35  1  0  0  0  0
  3 36  1  0  0  0  0
  4 37  1  0  0  0  0
  5 38  1  0  0  0  0
  6 39  1  0  0  0  0
 12 40  1  0  0  0  0
 13 41  1  0  0  0  0
 14 42  1  0  0  0  0
 15 43  1  0  0  0  0
 18 44  1  0  0  0  0
 18 45  1  0  0  0  0
 19 46  1  0  0  0  0
 19 47  1  0  0  0  0
 20 48  1  0  0  0  0
 20 49  1  0  0  0  0
 21 50  1  0  0  0  0
 21 51  1  0  0  0  0
 22 52  1  0  0  0  0
 22 53  1  0  0  0  0
 22 54  1  0  0  0  0
 23 55  1  0  0  0  0
 23 56  1  0  0  0  0
 24 57  1  0  0  0  0
 31 58  1  0  0  0  0
M  END
> <clash_score>
0

> <docking_score>
-7.50106143951416

> <overlap_score>
0.9785135388374329

$$$$
BENZO_277_2
  -OEChem-08222022463D

 57 61  0     1  0  0  0  0  0999 V2000
   14.5084   -0.8935   21.8609 C   0  0  0  0  0  0  0  0  0  0  0  0
   14.4162   -0.2303   23.0845 C   0  0  0  0  0  0  0  0  0  0  0  0
   13.3727   -1.0531   21.0668 C   0  0  0  0  0  0  0  0  0  0  0  0
   13.1884    0.2733   23.5141 C   0  0  0  0  0  0  0  0  0  0  0  0
   12.1449   -0.5495   21.4964 C   0  0  0  0  0  0  0  0  0  0  0  0
    9.5890   -2.4950   23.2210 C   0  0  0  0  0  0  0  0  0  0  0  0
    8.2550   -1.0010   24.5520 C   0  0  0  0  0  0  0  0  0  0  0  0
    9.1890   -3.5540   24.0140 C   0  0  0  0  0  0  0  0  0  0  0  0
    7.8700   -2.0610   25.3550 C   0  0  0  0  0  0  0  0  0  0  0  0
   12.0528    0.1138   22.7200 C   0  0  0  0  0  0  0  0  0  0  0  0
    9.1280   -1.2090   23.4870 C   0  0  0  0  0  0  0  0  0  0  0  0
    8.3450   -3.3440   25.0980 C   0  0  0  0  0  0  0  0  0  0  0  0
    6.1460    0.6070   19.9750 C   0  0  0  0  0  0  0  0  0  0  0  0
    7.2710   -0.1460   19.8310 C   0  0  0  0  0  0  0  0  0  0  0  0
    5.3890    1.0010   21.0690 C   0  0  0  0  0  0  0  0  0  0  0  0
    4.2460    1.7520   20.8250 C   0  0  0  0  0  0  0  0  0  0  0  0
    3.8860    2.1050   19.5250 C   0  0  0  0  0  0  0  0  0  0  0  0
    4.6610    1.7170   18.4380 C   0  0  0  0  0  0  0  0  0  0  0  0
    9.0430    0.2380   21.4940 C   0  0  0  0  0  0  0  0  0  0  0  0
    6.7636   -5.1648   25.5740 C   0  0  0  0  0  0  0  0  0  0  0  0
    8.3038   -4.3778   27.3502 C   0  0  0  0  0  0  0  0  0  0  0  0
    6.8057   -6.5368   26.2370 C   0  0  0  0  0  0  0  0  0  0  0  0
    8.2632   -5.7919   27.9188 C   0  0  0  0  0  0  0  0  0  0  0  0
   10.7220    0.6590   23.1850 C   0  0  0  0  0  0  0  0  0  0  0  0
    9.5820   -0.1080   22.7000 C   0  0  2  0  0  0  0  0  0  0  0  0
    7.5840   -0.2700   18.5160 N   0  0  0  0  0  0  0  0  0  0  0  0
    6.7100    0.3850   17.8100 N   0  0  0  0  0  0  0  0  0  0  0  0
    5.7970    0.9500   18.6730 N   0  0  0  0  0  0  0  0  0  0  0  0
    7.9748   -4.4087   25.9209 N   0  0  0  0  0  0  0  0  0  0  0  0
    8.0950   -0.7700   20.8440 N   0  0  0  0  0  0  0  0  0  0  0  0
    9.2950    1.3000   20.9480 O   0  0  0  0  0  0  0  0  0  0  0  0
    7.0041   -6.4052   27.6445 O   0  0  0  0  0  0  0  0  0  0  0  0
   15.4647   -1.2844   21.5259 H   0  0  0  0  0  0  0  0  0  0  0  0
   15.3006   -0.1050   23.7024 H   0  0  0  0  0  0  0  0  0  0  0  0
   13.4443   -1.5684   20.1136 H   0  0  0  0  0  0  0  0  0  0  0  0
   13.1260    0.7885   24.4690 H   0  0  0  0  0  0  0  0  0  0  0  0
   11.2654   -0.6786   20.8711 H   0  0  0  0  0  0  0  0  0  0  0  0
   10.2684   -2.6719   22.3867 H   0  0  0  0  0  0  0  0  0  0  0  0
    7.8717   -0.0016   24.7596 H   0  0  0  0  0  0  0  0  0  0  0  0
    9.5443   -4.5616   23.7817 H   0  0  0  0  0  0  0  0  0  0  0  0
    7.1922   -1.8821   26.1908 H   0  0  0  0  0  0  0  0  0  0  0  0
    5.6529    0.7487   22.0767 H   0  0  0  0  0  0  0  0  0  0  0  0
    3.6388    2.0586   21.6675 H   0  0  0  0  0  0  0  0  0  0  0  0
    2.9822    2.6968   19.3330 H   0  0  0  0  0  0  0  0  0  0  0  0
    4.4111    1.9893   17.4360 H   0  0  0  0  0  0  0  0  0  0  0  0
    6.6795   -5.2859   24.4876 H   0  0  0  0  0  0  0  0  0  0  0  0
    5.8835   -4.6130   25.9282 H   0  0  0  0  0  0  0  0  0  0  0  0
    7.5706   -3.7507   27.8738 H   0  0  0  0  0  0  0  0  0  0  0  0
    9.2992   -3.9474   27.5112 H   0  0  0  0  0  0  0  0  0  0  0  0
    5.8522   -7.0520   26.0823 H   0  0  0  0  0  0  0  0  0  0  0  0
    7.5937   -7.1675   25.8080 H   0  0  0  0  0  0  0  0  0  0  0  0
    9.0741   -6.4110   27.5161 H   0  0  0  0  0  0  0  0  0  0  0  0
    8.3861   -5.7563   29.0060 H   0  0  0  0  0  0  0  0  0  0  0  0
   10.7177    0.7189   24.2812 H   0  0  0  0  0  0  0  0  0  0  0  0
   10.6426    1.6980   22.8361 H   0  0  0  0  0  0  0  0  0  0  0  0
    8.7036    0.8022   23.4008 H   0  0  0  0  0  0  0  0  0  0  0  0
    8.0917   -1.6083   21.0911 H   0  0  0  0  0  0  0  0  0  0  0  0
  1  2  1  0  0  0  0
  1  3  2  0  0  0  0
  2  4  2  0  0  0  0
  3  5  1  0  0  0  0
  4 10  1  0  0  0  0
  5 10  2  0  0  0  0
  6  8  2  0  0  0  0
  6 11  1  0  0  0  0
  7  9  1  0  0  0  0
  7 11  2  0  0  0  0
  8 12  1  0  0  0  0
  9 12  2  0  0  0  0
 10 24  1  0  0  0  0
 11 25  1  0  0  0  0
 12 29  1  0  0  0  0
 13 14  2  0  0  0  0
 13 15  1  0  0  0  0
 13 28  1  0  0  0  0
 14 26  1  0  0  0  0
 14 30  1  0  0  0  0
 15 16  2  0  0  0  0
 16 17  1  0  0  0  0
 17 18  2  0  0  0  0
 18 28  1  0  0  0  0
 19 25  1  6  0  0  0
 19 30  1  0  0  0  0
 19 31  2  0  0  0  0
 20 22  1  0  0  0  0
 20 29  1  0  0  0  0
 21 23  1  0  0  0  0
 21 29  1  0  0  0  0
 22 32  1  0  0  0  0
 23 32  1  0  0  0  0
 24 25  1  0  0  0  0
 26 27  2  0  0  0  0
 27 28  1  0  0  0  0
  1 33  1  0  0  0  0
  2 34  1  0  0  0  0
  3 35  1  0  0  0  0
  4 36  1  0  0  0  0
  5 37  1  0  0  0  0
  6 38  1  0  0  0  0
  7 39  1  0  0  0  0
  8 40  1  0  0  0  0
  9 41  1  0  0  0  0
 15 42  1  0  0  0  0
 16 43  1  0  0  0  0
 17 44  1  0  0  0  0
 18 45  1  0  0  0  0
 20 46  1  0  0  0  0
 20 47  1  0  0  0  0
 21 48  1  0  0  0  0
 21 49  1  0  0  0  0
 22 50  1  0  0  0  0
 22 51  1  0  0  0  0
 23 52  1  0  0  0  0
 23 53  1  0  0  0  0
 24 54  1  0  0  0  0
 24 55  1  0  0  0  0
 25 56  1  0  0  0  0
 30 57  1  0  0  0  0
M  END
> <clash_score>
0

> <docking_score>
-7.700344562530518

> <overlap_score>
0.9552539587020874

$$$$
BENZO_277_1
  -OEChem-08222022463D

 57 61  0     1  0  0  0  0  0999 V2000
   14.0446   -1.7964   24.3813 C   0  0  0  0  0  0  0  0  0  0  0  0
   13.0634   -1.4503   25.3102 C   0  0  0  0  0  0  0  0  0  0  0  0
   13.9483   -1.3461   23.0646 C   0  0  0  0  0  0  0  0  0  0  0  0
   11.9858   -0.6540   24.9225 C   0  0  0  0  0  0  0  0  0  0  0  0
   12.8708   -0.5498   22.6769 C   0  0  0  0  0  0  0  0  0  0  0  0
    9.5890   -2.4950   23.2210 C   0  0  0  0  0  0  0  0  0  0  0  0
    8.2550   -1.0010   24.5520 C   0  0  0  0  0  0  0  0  0  0  0  0
    9.1890   -3.5540   24.0140 C   0  0  0  0  0  0  0  0  0  0  0  0
    7.8700   -2.0610   25.3550 C   0  0  0  0  0  0  0  0  0  0  0  0
   11.8895   -0.2037   23.6058 C   0  0  0  0  0  0  0  0  0  0  0  0
    9.1280   -1.2090   23.4870 C   0  0  0  0  0  0  0  0  0  0  0  0
    8.3450   -3.3440   25.0980 C   0  0  0  0  0  0  0  0  0  0  0  0
    6.1460    0.6070   19.9750 C   0  0  0  0  0  0  0  0  0  0  0  0
    7.2710   -0.1460   19.8310 C   0  0  0  0  0  0  0  0  0  0  0  0
    5.3890    1.0010   21.0690 C   0  0  0  0  0  0  0  0  0  0  0  0
    4.2460    1.7520   20.8250 C   0  0  0  0  0  0  0  0  0  0  0  0
    3.8860    2.1050   19.5250 C   0  0  0  0  0  0  0  0  0  0  0  0
    4.6610    1.7170   18.4380 C   0  0  0  0  0  0  0  0  0  0  0  0
    9.0430    0.2380   21.4940 C   0  0  0  0  0  0  0  0  0  0  0  0
    8.9526   -5.2008   26.6600 C   0  0  0  0  0  0  0  0  0  0  0  0
    6.6115   -4.5057   26.4392 C   0  0  0  0  0  0  0  0  0  0  0  0
    8.9053   -4.7827   28.1257 C   0  0  0  0  0  0  0  0  0  0  0  0
    6.6391   -4.1219   27.9194 C   0  0  0  0  0  0  0  0  0  0  0  0
   10.7220    0.6590   23.1850 C   0  0  0  0  0  0  0  0  0  0  0  0
    9.5820   -0.1080   22.7000 C   0  0  1  0  0  0  0  0  0  0  0  0
    7.5840   -0.2700   18.5160 N   0  0  0  0  0  0  0  0  0  0  0  0
    6.7100    0.3850   17.8100 N   0  0  0  0  0  0  0  0  0  0  0  0
    5.7970    0.9500   18.6730 N   0  0  0  0  0  0  0  0  0  0  0  0
    7.9774   -4.4013   25.9152 N   0  0  0  0  0  0  0  0  0  0  0  0
    8.0950   -0.7700   20.8440 N   0  0  0  0  0  0  0  0  0  0  0  0
    9.2950    1.3000   20.9480 O   0  0  0  0  0  0  0  0  0  0  0  0
    7.5748   -4.9364   28.6347 O   0  0  0  0  0  0  0  0  0  0  0  0
   14.8843   -2.4154   24.6836 H   0  0  0  0  0  0  0  0  0  0  0  0
   13.1388   -1.8000   26.3358 H   0  0  0  0  0  0  0  0  0  0  0  0
   14.7127   -1.6145   22.3413 H   0  0  0  0  0  0  0  0  0  0  0  0
   11.2259   -0.3895   25.6531 H   0  0  0  0  0  0  0  0  0  0  0  0
   12.8039   -0.2037   21.6488 H   0  0  0  0  0  0  0  0  0  0  0  0
   10.2684   -2.6719   22.3867 H   0  0  0  0  0  0  0  0  0  0  0  0
    7.8717   -0.0016   24.7596 H   0  0  0  0  0  0  0  0  0  0  0  0
    9.5443   -4.5616   23.7817 H   0  0  0  0  0  0  0  0  0  0  0  0
    7.1921   -1.8821   26.1908 H   0  0  0  0  0  0  0  0  0  0  0  0
    5.6529    0.7487   22.0767 H   0  0  0  0  0  0  0  0  0  0  0  0
    3.6388    2.0586   21.6675 H   0  0  0  0  0  0  0  0  0  0  0  0
    2.9822    2.6968   19.3331 H   0  0  0  0  0  0  0  0  0  0  0  0
    4.4111    1.9893   17.4360 H   0  0  0  0  0  0  0  0  0  0  0  0
    9.9614   -5.0503   26.2701 H   0  0  0  0  0  0  0  0  0  0  0  0
    8.6932   -6.2593   26.5731 H   0  0  0  0  0  0  0  0  0  0  0  0
    6.2625   -5.5339   26.3355 H   0  0  0  0  0  0  0  0  0  0  0  0
    5.9348   -3.8414   25.9036 H   0  0  0  0  0  0  0  0  0  0  0  0
    9.5615   -5.4255   28.7162 H   0  0  0  0  0  0  0  0  0  0  0  0
    9.2365   -3.7494   28.2620 H   0  0  0  0  0  0  0  0  0  0  0  0
    6.8895   -3.0633   28.0551 H   0  0  0  0  0  0  0  0  0  0  0  0
    5.6514   -4.2861   28.3610 H   0  0  0  0  0  0  0  0  0  0  0  0
   10.4315    1.3089   24.0208 H   0  0  0  0  0  0  0  0  0  0  0  0
   11.0719    1.3385   22.3955 H   0  0  0  0  0  0  0  0  0  0  0  0
   10.5438   -0.9939   22.0202 H   0  0  0  0  0  0  0  0  0  0  0  0
    8.0917   -1.6083   21.0911 H   0  0  0  0  0  0  0  0  0  0  0  0
  1  2  1  0  0  0  0
  1  3  2  0  0  0  0
  2  4  2  0  0  0  0
  3  5  1  0  0  0  0
  4 10  1  0  0  0  0
  5 10  2  0  0  0  0
  6  8  2  0  0  0  0
  6 11  1  0  0  0  0
  7  9  1  0  0  0  0
  7 11  2  0  0  0  0
  8 12  1  0  0  0  0
  9 12  2  0  0  0  0
 10 24  1  0  0  0  0
 11 25  1  0  0  0  0
 12 29  1  0  0  0  0
 13 14  2  0  0  0  0
 13 15  1  0  0  0  0
 13 28  1  0  0  0  0
 14 26  1  0  0  0  0
 14 30  1  0  0  0  0
 15 16  2  0  0  0  0
 16 17  1  0  0  0  0
 17 18  2  0  0  0  0
 18 28  1  0  0  0  0
 19 25  1  1  0  0  0
 19 30  1  0  0  0  0
 19 31  2  0  0  0  0
 20 22  1  0  0  0  0
 20 29  1  0  0  0  0
 21 23  1  0  0  0  0
 21 29  1  0  0  0  0
 22 32  1  0  0  0  0
 23 32  1  0  0  0  0
 24 25  1  0  0  0  0
 26 27  2  0  0  0  0
 27 28  1  0  0  0  0
  1 33  1  0  0  0  0
  2 34  1  0  0  0  0
  3 35  1  0  0  0  0
  4 36  1  0  0  0  0
  5 37  1  0  0  0  0
  6 38  1  0  0  0  0
  7 39  1  0  0  0  0
  8 40  1  0  0  0  0
  9 41  1  0  0  0  0
 15 42  1  0  0  0  0
 16 43  1  0  0  0  0
 17 44  1  0  0  0  0
 18 45  1  0  0  0  0
 20 46  1  0  0  0  0
 20 47  1  0  0  0  0
 21 48  1  0  0  0  0
 21 49  1  0  0  0  0
 22 50  1  0  0  0  0
 22 51  1  0  0  0  0
 23 52  1  0  0  0  0
 23 53  1  0  0  0  0
 24 54  1  0  0  0  0
 24 55  1  0  0  0  0
 25 56  1  0  0  0  0
 30 57  1  0  0  0  0
M  END
> <clash_score>
0

> <docking_score>
-8.586029052734375

> <overlap_score>
0.9756206274032593

$$$$
BENZO_276_2
  -OEChem-08222022463D

 54 58  0     1  0  0  0  0  0999 V2000
    9.5890   -2.4950   23.2210 C   0  0  0  0  0  0  0  0  0  0  0  0
    8.2550   -1.0010   24.5520 C   0  0  0  0  0  0  0  0  0  0  0  0
    9.1890   -3.5540   24.0140 C   0  0  0  0  0  0  0  0  0  0  0  0
    7.8700   -2.0610   25.3550 C   0  0  0  0  0  0  0  0  0  0  0  0
   13.1119   -0.2538   23.5994 C   0  0  0  0  0  0  0  0  0  0  0  0
   14.2134   -0.7202   22.9163 C   0  0  0  0  0  0  0  0  0  0  0  0
   12.3853   -0.0855   21.3980 C   0  0  0  0  0  0  0  0  0  0  0  0
    9.1280   -1.2090   23.4870 C   0  0  0  0  0  0  0  0  0  0  0  0
   12.0528    0.1138   22.7200 C   0  0  0  0  0  0  0  0  0  0  0  0
    8.3450   -3.3440   25.0980 C   0  0  0  0  0  0  0  0  0  0  0  0
    6.1460    0.6070   19.9750 C   0  0  0  0  0  0  0  0  0  0  0  0
    7.2710   -0.1460   19.8310 C   0  0  0  0  0  0  0  0  0  0  0  0
    5.3890    1.0010   21.0690 C   0  0  0  0  0  0  0  0  0  0  0  0
    4.2460    1.7520   20.8250 C   0  0  0  0  0  0  0  0  0  0  0  0
    3.8860    2.1050   19.5250 C   0  0  0  0  0  0  0  0  0  0  0  0
    4.6610    1.7170   18.4380 C   0  0  0  0  0  0  0  0  0  0  0  0
    9.0430    0.2380   21.4940 C   0  0  0  0  0  0  0  0  0  0  0  0
    8.9526   -5.2008   26.6600 C   0  0  0  0  0  0  0  0  0  0  0  0
    6.6115   -4.5057   26.4392 C   0  0  0  0  0  0  0  0  0  0  0  0
    8.9053   -4.7827   28.1257 C   0  0  0  0  0  0  0  0  0  0  0  0
    6.6391   -4.1219   27.9194 C   0  0  0  0  0  0  0  0  0  0  0  0
   10.7220    0.6590   23.1850 C   0  0  0  0  0  0  0  0  0  0  0  0
    9.5820   -0.1080   22.7000 C   0  0  2  0  0  0  0  0  0  0  0  0
    7.5840   -0.2700   18.5160 N   0  0  0  0  0  0  0  0  0  0  0  0
    6.7100    0.3850   17.8100 N   0  0  0  0  0  0  0  0  0  0  0  0
    5.7970    0.9500   18.6730 N   0  0  0  0  0  0  0  0  0  0  0  0
    7.9774   -4.4013   25.9152 N   0  0  0  0  0  0  0  0  0  0  0  0
    8.0950   -0.7700   20.8440 N   0  0  0  0  0  0  0  0  0  0  0  0
    9.2950    1.3000   20.9480 O   0  0  0  0  0  0  0  0  0  0  0  0
    7.5748   -4.9364   28.6347 O   0  0  0  0  0  0  0  0  0  0  0  0
   13.9685   -0.7136   21.2215 S   0  0  0  0  0  0  0  0  0  0  0  0
   10.2684   -2.6719   22.3867 H   0  0  0  0  0  0  0  0  0  0  0  0
    7.8717   -0.0016   24.7596 H   0  0  0  0  0  0  0  0  0  0  0  0
    9.5443   -4.5616   23.7817 H   0  0  0  0  0  0  0  0  0  0  0  0
    7.1921   -1.8821   26.1908 H   0  0  0  0  0  0  0  0  0  0  0  0
   13.0722   -0.1810   24.6789 H   0  0  0  0  0  0  0  0  0  0  0  0
   15.1504   -1.0638   23.3311 H   0  0  0  0  0  0  0  0  0  0  0  0
   11.7779    0.1073   20.5246 H   0  0  0  0  0  0  0  0  0  0  0  0
    5.6529    0.7487   22.0767 H   0  0  0  0  0  0  0  0  0  0  0  0
    3.6388    2.0586   21.6675 H   0  0  0  0  0  0  0  0  0  0  0  0
    2.9822    2.6968   19.3330 H   0  0  0  0  0  0  0  0  0  0  0  0
    4.4111    1.9893   17.4360 H   0  0  0  0  0  0  0  0  0  0  0  0
    9.9614   -5.0503   26.2701 H   0  0  0  0  0  0  0  0  0  0  0  0
    8.6932   -6.2593   26.5731 H   0  0  0  0  0  0  0  0  0  0  0  0
    6.2625   -5.5339   26.3355 H   0  0  0  0  0  0  0  0  0  0  0  0
    5.9348   -3.8414   25.9036 H   0  0  0  0  0  0  0  0  0  0  0  0
    9.5615   -5.4255   28.7162 H   0  0  0  0  0  0  0  0  0  0  0  0
    9.2365   -3.7494   28.2620 H   0  0  0  0  0  0  0  0  0  0  0  0
    6.8895   -3.0633   28.0551 H   0  0  0  0  0  0  0  0  0  0  0  0
    5.6514   -4.2861   28.3610 H   0  0  0  0  0  0  0  0  0  0  0  0
   10.7177    0.7189   24.2812 H   0  0  0  0  0  0  0  0  0  0  0  0
   10.6426    1.6980   22.8361 H   0  0  0  0  0  0  0  0  0  0  0  0
    8.7036    0.8022   23.4008 H   0  0  0  0  0  0  0  0  0  0  0  0
    8.0917   -1.6083   21.0911 H   0  0  0  0  0  0  0  0  0  0  0  0
  1  3  2  0  0  0  0
  1  8  1  0  0  0  0
  2  4  1  0  0  0  0
  2  8  2  0  0  0  0
  3 10  1  0  0  0  0
  4 10  2  0  0  0  0
  5  6  2  0  0  0  0
  5  9  1  0  0  0  0
  6 31  1  0  0  0  0
  7  9  2  0  0  0  0
  7 31  1  0  0  0  0
  8 23  1  0  0  0  0
  9 22  1  0  0  0  0
 10 27  1  0  0  0  0
 11 12  2  0  0  0  0
 11 13  1  0  0  0  0
 11 26  1  0  0  0  0
 12 24  1  0  0  0  0
 12 28  1  0  0  0  0
 13 14  2  0  0  0  0
 14 15  1  0  0  0  0
 15 16  2  0  0  0  0
 16 26  1  0  0  0  0
 17 23  1  6  0  0  0
 17 28  1  0  0  0  0
 17 29  2  0  0  0  0
 18 20  1  0  0  0  0
 18 27  1  0  0  0  0
 19 21  1  0  0  0  0
 19 27  1  0  0  0  0
 20 30  1  0  0  0  0
 21 30  1  0  0  0  0
 22 23  1  0  0  0  0
 24 25  2  0  0  0  0
 25 26  1  0  0  0  0
  1 32  1  0  0  0  0
  2 33  1  0  0  0  0
  3 34  1  0  0  0  0
  4 35  1  0  0  0  0
  5 36  1  0  0  0  0
  6 37  1  0  0  0  0
  7 38  1  0  0  0  0
 13 39  1  0  0  0  0
 14 40  1  0  0  0  0
 15 41  1  0  0  0  0
 16 42  1  0  0  0  0
 18 43  1  0  0  0  0
 18 44  1  0  0  0  0
 19 45  1  0  0  0  0
 19 46  1  0  0  0  0
 20 47  1  0  0  0  0
 20 48  1  0  0  0  0
 21 49  1  0  0  0  0
 21 50  1  0  0  0  0
 22 51  1  0  0  0  0
 22 52  1  0  0  0  0
 23 53  1  0  0  0  0
 28 54  1  0  0  0  0
M  END
> <clash_score>
0

> <docking_score>
-7.743196487426758

> <overlap_score>
0.9507242441177368

$$$$
BENZO_276_1
  -OEChem-08222022463D

 54 58  0     1  0  0  0  0  0999 V2000
    9.5890   -2.4950   23.2210 C   0  0  0  0  0  0  0  0  0  0  0  0
    8.2550   -1.0010   24.5520 C   0  0  0  0  0  0  0  0  0  0  0  0
    9.1890   -3.5540   24.0140 C   0  0  0  0  0  0  0  0  0  0  0  0
    7.8700   -2.0610   25.3550 C   0  0  0  0  0  0  0  0  0  0  0  0
   12.0564    0.2022   25.3592 C   0  0  0  0  0  0  0  0  0  0  0  0
   12.9336   -0.7085   25.9059 C   0  0  0  0  0  0  0  0  0  0  0  0
   12.2727   -1.3216   23.6174 C   0  0  0  0  0  0  0  0  0  0  0  0
    9.1280   -1.2090   23.4870 C   0  0  0  0  0  0  0  0  0  0  0  0
   11.6734   -0.1530   24.0335 C   0  0  0  0  0  0  0  0  0  0  0  0
    8.3450   -3.3440   25.0980 C   0  0  0  0  0  0  0  0  0  0  0  0
    6.1460    0.6070   19.9750 C   0  0  0  0  0  0  0  0  0  0  0  0
    7.2710   -0.1460   19.8310 C   0  0  0  0  0  0  0  0  0  0  0  0
    5.3890    1.0010   21.0690 C   0  0  0  0  0  0  0  0  0  0  0  0
    4.2460    1.7520   20.8250 C   0  0  0  0  0  0  0  0  0  0  0  0
    3.8860    2.1050   19.5250 C   0  0  0  0  0  0  0  0  0  0  0  0
    4.6610    1.7170   18.4380 C   0  0  0  0  0  0  0  0  0  0  0  0
    9.0430    0.2380   21.4940 C   0  0  0  0  0  0  0  0  0  0  0  0
    6.7636   -5.1648   25.5740 C   0  0  0  0  0  0  0  0  0  0  0  0
    8.3038   -4.3778   27.3502 C   0  0  0  0  0  0  0  0  0  0  0  0
    6.8057   -6.5368   26.2370 C   0  0  0  0  0  0  0  0  0  0  0  0
    8.2632   -5.7919   27.9188 C   0  0  0  0  0  0  0  0  0  0  0  0
   10.7220    0.6590   23.1850 C   0  0  0  0  0  0  0  0  0  0  0  0
    9.5820   -0.1080   22.7000 C   0  0  1  0  0  0  0  0  0  0  0  0
    7.5840   -0.2700   18.5160 N   0  0  0  0  0  0  0  0  0  0  0  0
    6.7100    0.3850   17.8100 N   0  0  0  0  0  0  0  0  0  0  0  0
    5.7970    0.9500   18.6730 N   0  0  0  0  0  0  0  0  0  0  0  0
    7.9748   -4.4087   25.9209 N   0  0  0  0  0  0  0  0  0  0  0  0
    8.0950   -0.7700   20.8440 N   0  0  0  0  0  0  0  0  0  0  0  0
    9.2950    1.3000   20.9480 O   0  0  0  0  0  0  0  0  0  0  0  0
    7.0041   -6.4052   27.6445 O   0  0  0  0  0  0  0  0  0  0  0  0
   13.2921   -1.9853   24.8226 S   0  0  0  0  0  0  0  0  0  0  0  0
   10.2684   -2.6719   22.3867 H   0  0  0  0  0  0  0  0  0  0  0  0
    7.8717   -0.0016   24.7596 H   0  0  0  0  0  0  0  0  0  0  0  0
    9.5443   -4.5616   23.7817 H   0  0  0  0  0  0  0  0  0  0  0  0
    7.1922   -1.8821   26.1908 H   0  0  0  0  0  0  0  0  0  0  0  0
   11.7089    1.0804   25.8886 H   0  0  0  0  0  0  0  0  0  0  0  0
   13.3816   -0.6847   26.8892 H   0  0  0  0  0  0  0  0  0  0  0  0
   12.1644   -1.8199   22.6640 H   0  0  0  0  0  0  0  0  0  0  0  0
    5.6529    0.7487   22.0767 H   0  0  0  0  0  0  0  0  0  0  0  0
    3.6388    2.0586   21.6675 H   0  0  0  0  0  0  0  0  0  0  0  0
    2.9822    2.6968   19.3331 H   0  0  0  0  0  0  0  0  0  0  0  0
    4.4111    1.9893   17.4360 H   0  0  0  0  0  0  0  0  0  0  0  0
    6.6795   -5.2859   24.4876 H   0  0  0  0  0  0  0  0  0  0  0  0
    5.8835   -4.6130   25.9282 H   0  0  0  0  0  0  0  0  0  0  0  0
    7.5706   -3.7507   27.8738 H   0  0  0  0  0  0  0  0  0  0  0  0
    9.2992   -3.9474   27.5112 H   0  0  0  0  0  0  0  0  0  0  0  0
    5.8522   -7.0520   26.0823 H   0  0  0  0  0  0  0  0  0  0  0  0
    7.5937   -7.1675   25.8080 H   0  0  0  0  0  0  0  0  0  0  0  0
    9.0741   -6.4110   27.5161 H   0  0  0  0  0  0  0  0  0  0  0  0
    8.3861   -5.7563   29.0060 H   0  0  0  0  0  0  0  0  0  0  0  0
   10.3911    1.5389   23.7520 H   0  0  0  0  0  0  0  0  0  0  0  0
   11.2877    1.0581   22.3316 H   0  0  0  0  0  0  0  0  0  0  0  0
   10.5438   -0.9939   22.0202 H   0  0  0  0  0  0  0  0  0  0  0  0
    8.0917   -1.6083   21.0911 H   0  0  0  0  0  0  0  0  0  0  0  0
  1  3  2  0  0  0  0
  1  8  1  0  0  0  0
  2  4  1  0  0  0  0
  2  8  2  0  0  0  0
  3 10  1  0  0  0  0
  4 10  2  0  0  0  0
  5  6  2  0  0  0  0
  5  9  1  0  0  0  0
  6 31  1  0  0  0  0
  7  9  2  0  0  0  0
  7 31  1  0  0  0  0
  8 23  1  0  0  0  0
  9 22  1  0  0  0  0
 10 27  1  0  0  0  0
 11 12  2  0  0  0  0
 11 13  1  0  0  0  0
 11 26  1  0  0  0  0
 12 24  1  0  0  0  0
 12 28  1  0  0  0  0
 13 14  2  0  0  0  0
 14 15  1  0  0  0  0
 15 16  2  0  0  0  0
 16 26  1  0  0  0  0
 17 23  1  1  0  0  0
 17 28  1  0  0  0  0
 17 29  2  0  0  0  0
 18 20  1  0  0  0  0
 18 27  1  0  0  0  0
 19 21  1  0  0  0  0
 19 27  1  0  0  0  0
 20 30  1  0  0  0  0
 21 30  1  0  0  0  0
 22 23  1  0  0  0  0
 24 25  2  0  0  0  0
 25 26  1  0  0  0  0
  1 32  1  0  0  0  0
  2 33  1  0  0  0  0
  3 34  1  0  0  0  0
  4 35  1  0  0  0  0
  5 36  1  0  0  0  0
  6 37  1  0  0  0  0
  7 38  1  0  0  0  0
 13 39  1  0  0  0  0
 14 40  1  0  0  0  0
 15 41  1  0  0  0  0
 16 42  1  0  0  0  0
 18 43  1  0  0  0  0
 18 44  1  0  0  0  0
 19 45  1  0  0  0  0
 19 46  1  0  0  0  0
 20 47  1  0  0  0  0
 20 48  1  0  0  0  0
 21 49  1  0  0  0  0
 21 50  1  0  0  0  0
 22 51  1  0  0  0  0
 22 52  1  0  0  0  0
 23 53  1  0  0  0  0
 28 54  1  0  0  0  0
M  END
> <clash_score>
0

> <docking_score>
-6.131903648376465

> <overlap_score>
0.9189088940620422

$$$$
BENZO_281_1
  -OEChem-08222022463D

 54 57  0     1  0  0  0  0  0999 V2000
   14.4827   -0.9249   21.8253 C   0  0  0  0  0  0  0  0  0  0  0  0
    4.2460    1.7520   20.8250 C   0  0  0  0  0  0  0  0  0  0  0  0
   14.4071   -0.2631   23.0508 C   0  0  0  0  0  0  0  0  0  0  0  0
   13.3388   -1.0729   21.0408 C   0  0  0  0  0  0  0  0  0  0  0  0
    3.8860    2.1050   19.5250 C   0  0  0  0  0  0  0  0  0  0  0  0
    5.3890    1.0010   21.0690 C   0  0  0  0  0  0  0  0  0  0  0  0
   13.1876    0.2507   23.4919 C   0  0  0  0  0  0  0  0  0  0  0  0
   12.1193   -0.5591   21.4820 C   0  0  0  0  0  0  0  0  0  0  0  0
    9.5890   -2.4950   23.2210 C   0  0  0  0  0  0  0  0  0  0  0  0
    8.2550   -1.0010   24.5520 C   0  0  0  0  0  0  0  0  0  0  0  0
    4.6610    1.7170   18.4380 C   0  0  0  0  0  0  0  0  0  0  0  0
    9.1890   -3.5540   24.0140 C   0  0  0  0  0  0  0  0  0  0  0  0
    7.8700   -2.0610   25.3550 C   0  0  0  0  0  0  0  0  0  0  0  0
    7.5840   -0.2700   18.5160 C   0  0  0  0  0  0  0  0  0  0  0  0
    6.1460    0.6070   19.9750 C   0  0  0  0  0  0  0  0  0  0  0  0
   12.0437    0.1027   22.7075 C   0  0  0  0  0  0  0  0  0  0  0  0
    9.1280   -1.2090   23.4870 C   0  0  0  0  0  0  0  0  0  0  0  0
    5.7970    0.9500   18.6730 C   0  0  0  0  0  0  0  0  0  0  0  0
    8.3450   -3.3440   25.0980 C   0  0  0  0  0  0  0  0  0  0  0  0
    7.2710   -0.1460   19.8310 C   0  0  0  0  0  0  0  0  0  0  0  0
    9.0430    0.2380   21.4940 C   0  0  0  0  0  0  0  0  0  0  0  0
    7.2615   -5.5563   25.3804 C   0  0  0  0  0  0  0  0  0  0  0  0
    8.3045   -4.4045   27.3385 C   0  0  0  0  0  0  0  0  0  0  0  0
   10.7220    0.6590   23.1850 C   0  0  0  0  0  0  0  0  0  0  0  0
    9.5820   -0.1080   22.7000 C   0  0  1  0  0  0  0  0  0  0  0  0
    6.7100    0.3850   17.8100 N   0  0  0  0  0  0  0  0  0  0  0  0
    8.0950   -0.7700   20.8440 N   0  0  0  0  0  0  0  0  0  0  0  0
    7.9717   -4.4175   25.9277 N   0  0  0  0  0  0  0  0  0  0  0  0
    9.2950    1.3000   20.9480 O   0  0  0  0  0  0  0  0  0  0  0  0
   15.4325   -1.3238   21.4813 H   0  0  0  0  0  0  0  0  0  0  0  0
    3.6208    2.0704   21.6579 H   0  0  0  0  0  0  0  0  0  0  0  0
   15.2979   -0.1468   23.6612 H   0  0  0  0  0  0  0  0  0  0  0  0
   13.3975   -1.5871   20.0862 H   0  0  0  0  0  0  0  0  0  0  0  0
    2.9857    2.6926   19.3615 H   0  0  0  0  0  0  0  0  0  0  0  0
    5.6664    0.7407   22.0807 H   0  0  0  0  0  0  0  0  0  0  0  0
   13.1382    0.7647   24.4482 H   0  0  0  0  0  0  0  0  0  0  0  0
   11.2333   -0.6792   20.8642 H   0  0  0  0  0  0  0  0  0  0  0  0
   10.2684   -2.6719   22.3867 H   0  0  0  0  0  0  0  0  0  0  0  0
    7.8717   -0.0016   24.7596 H   0  0  0  0  0  0  0  0  0  0  0  0
    4.3794    2.0106   17.4221 H   0  0  0  0  0  0  0  0  0  0  0  0
    9.5443   -4.5616   23.7817 H   0  0  0  0  0  0  0  0  0  0  0  0
    7.1921   -1.8821   26.1908 H   0  0  0  0  0  0  0  0  0  0  0  0
    8.4172   -0.8135   18.0384 H   0  0  0  0  0  0  0  0  0  0  0  0
    7.0607   -6.2833   26.1812 H   0  0  0  0  0  0  0  0  0  0  0  0
    6.3096   -5.2194   24.9441 H   0  0  0  0  0  0  0  0  0  0  0  0
    7.8750   -6.0305   24.6002 H   0  0  0  0  0  0  0  0  0  0  0  0
    7.9298   -5.3236   27.8126 H   0  0  0  0  0  0  0  0  0  0  0  0
    9.3968   -4.3501   27.4569 H   0  0  0  0  0  0  0  0  0  0  0  0
    7.8398   -3.5297   27.8166 H   0  0  0  0  0  0  0  0  0  0  0  0
   10.7266    0.7141   24.2815 H   0  0  0  0  0  0  0  0  0  0  0  0
   10.6502    1.7003   22.8412 H   0  0  0  0  0  0  0  0  0  0  0  0
    8.7027    0.7972   23.4026 H   0  0  0  0  0  0  0  0  0  0  0  0
    6.6715    0.4865   16.8044 H   0  0  0  0  0  0  0  0  0  0  0  0
    8.0730   -1.6176   21.0751 H   0  0  0  0  0  0  0  0  0  0  0  0
  1  3  1  0  0  0  0
  1  4  2  0  0  0  0
  2  5  1  0  0  0  0
  2  6  2  0  0  0  0
  3  7  2  0  0  0  0
  4  8  1  0  0  0  0
  5 11  2  0  0  0  0
  6 15  1  0  0  0  0
  7 16  1  0  0  0  0
  8 16  2  0  0  0  0
  9 12  2  0  0  0  0
  9 17  1  0  0  0  0
 10 13  1  0  0  0  0
 10 17  2  0  0  0  0
 11 18  1  0  0  0  0
 12 19  1  0  0  0  0
 13 19  2  0  0  0  0
 14 20  2  0  0  0  0
 14 26  1  0  0  0  0
 15 18  2  0  0  0  0
 15 20  1  0  0  0  0
 16 24  1  0  0  0  0
 17 25  1  0  0  0  0
 18 26  1  0  0  0  0
 19 28  1  0  0  0  0
 20 27  1  0  0  0  0
 21 25  1  0  0  0  0
 21 27  1  0  0  0  0
 21 29  2  0  0  0  0
 22 28  1  0  0  0  0
 23 28  1  0  0  0  0
 24 25  1  1  0  0  0
  1 30  1  0  0  0  0
  2 31  1  0  0  0  0
  3 32  1  0  0  0  0
  4 33  1  0  0  0  0
  5 34  1  0  0  0  0
  6 35  1  0  0  0  0
  7 36  1  0  0  0  0
  8 37  1  0  0  0  0
  9 38  1  0  0  0  0
 10 39  1  0  0  0  0
 11 40  1  0  0  0  0
 12 41  1  0  0  0  0
 13 42  1  0  0  0  0
 14 43  1  0  0  0  0
 22 44  1  0  0  0  0
 22 45  1  0  0  0  0
 22 46  1  0  0  0  0
 23 47  1  0  0  0  0
 23 48  1  0  0  0  0
 23 49  1  0  0  0  0
 24 50  1  0  0  0  0
 24 51  1  0  0  0  0
 25 52  1  0  0  0  0
 26 53  1  0  0  0  0
 27 54  1  0  0  0  0
M  END
> <clash_score>
0

> <docking_score>
-6.884974479675293

> <overlap_score>
0.907168984413147

$$$$
BENZO_281_2
  -OEChem-08222022463D

 54 57  0     1  0  0  0  0  0999 V2000
   14.0137   -1.8398   24.3768 C   0  0  0  0  0  0  0  0  0  0  0  0
    4.2460    1.7520   20.8250 C   0  0  0  0  0  0  0  0  0  0  0  0
   13.0361   -1.4844   25.3061 C   0  0  0  0  0  0  0  0  0  0  0  0
   13.9239   -1.3848   23.0613 C   0  0  0  0  0  0  0  0  0  0  0  0
    3.8860    2.1050   19.5250 C   0  0  0  0  0  0  0  0  0  0  0  0
    5.3890    1.0010   21.0690 C   0  0  0  0  0  0  0  0  0  0  0  0
   11.9686   -0.6740   24.9198 C   0  0  0  0  0  0  0  0  0  0  0  0
   12.8563   -0.5744   22.6750 C   0  0  0  0  0  0  0  0  0  0  0  0
    9.5890   -2.4950   23.2210 C   0  0  0  0  0  0  0  0  0  0  0  0
    8.2550   -1.0010   24.5520 C   0  0  0  0  0  0  0  0  0  0  0  0
    4.6610    1.7170   18.4380 C   0  0  0  0  0  0  0  0  0  0  0  0
    9.1890   -3.5540   24.0140 C   0  0  0  0  0  0  0  0  0  0  0  0
    7.8700   -2.0610   25.3550 C   0  0  0  0  0  0  0  0  0  0  0  0
    7.5840   -0.2700   18.5160 C   0  0  0  0  0  0  0  0  0  0  0  0
    6.1460    0.6070   19.9750 C   0  0  0  0  0  0  0  0  0  0  0  0
   11.8786   -0.2190   23.6043 C   0  0  0  0  0  0  0  0  0  0  0  0
    9.1280   -1.2090   23.4870 C   0  0  0  0  0  0  0  0  0  0  0  0
    5.7970    0.9500   18.6730 C   0  0  0  0  0  0  0  0  0  0  0  0
    8.3450   -3.3440   25.0980 C   0  0  0  0  0  0  0  0  0  0  0  0
    7.2710   -0.1460   19.8310 C   0  0  0  0  0  0  0  0  0  0  0  0
    9.0430    0.2380   21.4940 C   0  0  0  0  0  0  0  0  0  0  0  0
    7.2615   -5.5563   25.3804 C   0  0  0  0  0  0  0  0  0  0  0  0
    8.3045   -4.4045   27.3385 C   0  0  0  0  0  0  0  0  0  0  0  0
   10.7220    0.6590   23.1850 C   0  0  0  0  0  0  0  0  0  0  0  0
    9.5820   -0.1080   22.7000 C   0  0  2  0  0  0  0  0  0  0  0  0
    6.7100    0.3850   17.8100 N   0  0  0  0  0  0  0  0  0  0  0  0
    8.0950   -0.7700   20.8440 N   0  0  0  0  0  0  0  0  0  0  0  0
    7.9717   -4.4175   25.9277 N   0  0  0  0  0  0  0  0  0  0  0  0
    9.2950    1.3000   20.9480 O   0  0  0  0  0  0  0  0  0  0  0  0
   14.8456   -2.4698   24.6781 H   0  0  0  0  0  0  0  0  0  0  0  0
    3.6208    2.0704   21.6579 H   0  0  0  0  0  0  0  0  0  0  0  0
   13.1065   -1.8377   26.3307 H   0  0  0  0  0  0  0  0  0  0  0  0
   14.6854   -1.6605   22.3378 H   0  0  0  0  0  0  0  0  0  0  0  0
    2.9857    2.6926   19.3615 H   0  0  0  0  0  0  0  0  0  0  0  0
    5.6664    0.7407   22.0807 H   0  0  0  0  0  0  0  0  0  0  0  0
   11.2114   -0.4022   25.6506 H   0  0  0  0  0  0  0  0  0  0  0  0
   12.7944   -0.2247   21.6479 H   0  0  0  0  0  0  0  0  0  0  0  0
   10.2684   -2.6719   22.3867 H   0  0  0  0  0  0  0  0  0  0  0  0
    7.8717   -0.0016   24.7596 H   0  0  0  0  0  0  0  0  0  0  0  0
    4.3794    2.0106   17.4221 H   0  0  0  0  0  0  0  0  0  0  0  0
    9.5443   -4.5616   23.7817 H   0  0  0  0  0  0  0  0  0  0  0  0
    7.1921   -1.8821   26.1908 H   0  0  0  0  0  0  0  0  0  0  0  0
    8.4172   -0.8135   18.0384 H   0  0  0  0  0  0  0  0  0  0  0  0
    7.0607   -6.2833   26.1812 H   0  0  0  0  0  0  0  0  0  0  0  0
    6.3096   -5.2194   24.9441 H   0  0  0  0  0  0  0  0  0  0  0  0
    7.8750   -6.0305   24.6002 H   0  0  0  0  0  0  0  0  0  0  0  0
    7.9298   -5.3236   27.8126 H   0  0  0  0  0  0  0  0  0  0  0  0
    9.3968   -4.3501   27.4569 H   0  0  0  0  0  0  0  0  0  0  0  0
    7.8398   -3.5297   27.8166 H   0  0  0  0  0  0  0  0  0  0  0  0
   10.4369    1.3080   24.0233 H   0  0  0  0  0  0  0  0  0  0  0  0
   11.0815    1.3384   22.3997 H   0  0  0  0  0  0  0  0  0  0  0  0
   10.5413   -0.9955   22.0233 H   0  0  0  0  0  0  0  0  0  0  0  0
    6.6715    0.4865   16.8044 H   0  0  0  0  0  0  0  0  0  0  0  0
    8.0730   -1.6176   21.0751 H   0  0  0  0  0  0  0  0  0  0  0  0
  1  3  1  0  0  0  0
  1  4  2  0  0  0  0
  2  5  1  0  0  0  0
  2  6  2  0  0  0  0
  3  7  2  0  0  0  0
  4  8  1  0  0  0  0
  5 11  2  0  0  0  0
  6 15  1  0  0  0  0
  7 16  1  0  0  0  0
  8 16  2  0  0  0  0
  9 12  2  0  0  0  0
  9 17  1  0  0  0  0
 10 13  1  0  0  0  0
 10 17  2  0  0  0  0
 11 18  1  0  0  0  0
 12 19  1  0  0  0  0
 13 19  2  0  0  0  0
 14 20  2  0  0  0  0
 14 26  1  0  0  0  0
 15 18  2  0  0  0  0
 15 20  1  0  0  0  0
 16 24  1  0  0  0  0
 17 25  1  0  0  0  0
 18 26  1  0  0  0  0
 19 28  1  0  0  0  0
 20 27  1  0  0  0  0
 21 25  1  0  0  0  0
 21 27  1  0  0  0  0
 21 29  2  0  0  0  0
 22 28  1  0  0  0  0
 23 28  1  0  0  0  0
 24 25  1  6  0  0  0
  1 30  1  0  0  0  0
  2 31  1  0  0  0  0
  3 32  1  0  0  0  0
  4 33  1  0  0  0  0
  5 34  1  0  0  0  0
  6 35  1  0  0  0  0
  7 36  1  0  0  0  0
  8 37  1  0  0  0  0
  9 38  1  0  0  0  0
 10 39  1  0  0  0  0
 11 40  1  0  0  0  0
 12 41  1  0  0  0  0
 13 42  1  0  0  0  0
 14 43  1  0  0  0  0
 22 44  1  0  0  0  0
 22 45  1  0  0  0  0
 22 46  1  0  0  0  0
 23 47  1  0  0  0  0
 23 48  1  0  0  0  0
 23 49  1  0  0  0  0
 24 50  1  0  0  0  0
 24 51  1  0  0  0  0
 25 52  1  0  0  0  0
 26 53  1  0  0  0  0
 27 54  1  0  0  0  0
M  END
> <clash_score>
0

> <docking_score>
-7.447591781616211

> <overlap_score>
0.9280038475990295

$$$$
BENZO_280_1
  -OEChem-08222022463D

 51 54  0     1  0  0  0  0  0999 V2000
    4.2460    1.7520   20.8250 C   0  0  0  0  0  0  0  0  0  0  0  0
    3.8860    2.1050   19.5250 C   0  0  0  0  0  0  0  0  0  0  0  0
    5.3890    1.0010   21.0690 C   0  0  0  0  0  0  0  0  0  0  0  0
    9.5890   -2.4950   23.2210 C   0  0  0  0  0  0  0  0  0  0  0  0
    8.2550   -1.0010   24.5520 C   0  0  0  0  0  0  0  0  0  0  0  0
    4.6610    1.7170   18.4380 C   0  0  0  0  0  0  0  0  0  0  0  0
    9.1890   -3.5540   24.0140 C   0  0  0  0  0  0  0  0  0  0  0  0
    7.8700   -2.0610   25.3550 C   0  0  0  0  0  0  0  0  0  0  0  0
   13.1058   -0.2791   23.5772 C   0  0  0  0  0  0  0  0  0  0  0  0
    7.5840   -0.2700   18.5160 C   0  0  0  0  0  0  0  0  0  0  0  0
   14.1974   -0.7534   22.8836 C   0  0  0  0  0  0  0  0  0  0  0  0
   12.3642   -0.0940   21.3822 C   0  0  0  0  0  0  0  0  0  0  0  0
    6.1460    0.6070   19.9750 C   0  0  0  0  0  0  0  0  0  0  0  0
    9.1280   -1.2090   23.4870 C   0  0  0  0  0  0  0  0  0  0  0  0
   12.0437    0.1027   22.7075 C   0  0  0  0  0  0  0  0  0  0  0  0
    5.7970    0.9500   18.6730 C   0  0  0  0  0  0  0  0  0  0  0  0
    8.3450   -3.3440   25.0980 C   0  0  0  0  0  0  0  0  0  0  0  0
    7.2710   -0.1460   19.8310 C   0  0  0  0  0  0  0  0  0  0  0  0
    9.0430    0.2380   21.4940 C   0  0  0  0  0  0  0  0  0  0  0  0
    7.2615   -5.5563   25.3804 C   0  0  0  0  0  0  0  0  0  0  0  0
    8.3045   -4.4045   27.3385 C   0  0  0  0  0  0  0  0  0  0  0  0
   10.7220    0.6590   23.1850 C   0  0  0  0  0  0  0  0  0  0  0  0
    9.5820   -0.1080   22.7000 C   0  0  1  0  0  0  0  0  0  0  0  0
    6.7100    0.3850   17.8100 N   0  0  0  0  0  0  0  0  0  0  0  0
    8.0950   -0.7700   20.8440 N   0  0  0  0  0  0  0  0  0  0  0  0
    7.9717   -4.4175   25.9277 N   0  0  0  0  0  0  0  0  0  0  0  0
    9.2950    1.3000   20.9480 O   0  0  0  0  0  0  0  0  0  0  0  0
   13.9398   -0.7369   21.1908 S   0  0  0  0  0  0  0  0  0  0  0  0
    3.6208    2.0704   21.6579 H   0  0  0  0  0  0  0  0  0  0  0  0
    2.9857    2.6926   19.3615 H   0  0  0  0  0  0  0  0  0  0  0  0
    5.6664    0.7407   22.0807 H   0  0  0  0  0  0  0  0  0  0  0  0
   10.2684   -2.6719   22.3867 H   0  0  0  0  0  0  0  0  0  0  0  0
    7.8717   -0.0016   24.7596 H   0  0  0  0  0  0  0  0  0  0  0  0
    4.3794    2.0106   17.4221 H   0  0  0  0  0  0  0  0  0  0  0  0
    9.5443   -4.5616   23.7817 H   0  0  0  0  0  0  0  0  0  0  0  0
    7.1921   -1.8821   26.1908 H   0  0  0  0  0  0  0  0  0  0  0  0
   13.0750   -0.2107   24.6573 H   0  0  0  0  0  0  0  0  0  0  0  0
    8.4172   -0.8135   18.0384 H   0  0  0  0  0  0  0  0  0  0  0  0
   15.1341   -1.1080   23.2899 H   0  0  0  0  0  0  0  0  0  0  0  0
   11.7521    0.1087   20.5143 H   0  0  0  0  0  0  0  0  0  0  0  0
    7.0607   -6.2833   26.1812 H   0  0  0  0  0  0  0  0  0  0  0  0
    6.3096   -5.2194   24.9441 H   0  0  0  0  0  0  0  0  0  0  0  0
    7.8750   -6.0305   24.6002 H   0  0  0  0  0  0  0  0  0  0  0  0
    7.9298   -5.3236   27.8126 H   0  0  0  0  0  0  0  0  0  0  0  0
    9.3968   -4.3501   27.4569 H   0  0  0  0  0  0  0  0  0  0  0  0
    7.8398   -3.5297   27.8166 H   0  0  0  0  0  0  0  0  0  0  0  0
   10.7266    0.7141   24.2815 H   0  0  0  0  0  0  0  0  0  0  0  0
   10.6502    1.7003   22.8412 H   0  0  0  0  0  0  0  0  0  0  0  0
    8.7027    0.7972   23.4026 H   0  0  0  0  0  0  0  0  0  0  0  0
    6.6715    0.4865   16.8044 H   0  0  0  0  0  0  0  0  0  0  0  0
    8.0730   -1.6176   21.0751 H   0  0  0  0  0  0  0  0  0  0  0  0
  1  2  1  0  0  0  0
  1  3  2  0  0  0  0
  2  6  2  0  0  0  0
  3 13  1  0  0  0  0
  4  7  2  0  0  0  0
  4 14  1  0  0  0  0
  5  8  1  0  0  0  0
  5 14  2  0  0  0  0
  6 16  1  0  0  0  0
  7 17  1  0  0  0  0
  8 17  2  0  0  0  0
  9 11  2  0  0  0  0
  9 15  1  0  0  0  0
 10 18  2  0  0  0  0
 10 24  1  0  0  0  0
 11 28  1  0  0  0  0
 12 15  2  0  0  0  0
 12 28  1  0  0  0  0
 13 16  2  0  0  0  0
 13 18  1  0  0  0  0
 14 23  1  0  0  0  0
 15 22  1  0  0  0  0
 16 24  1  0  0  0  0
 17 26  1  0  0  0  0
 18 25  1  0  0  0  0
 19 23  1  0  0  0  0
 19 25  1  0  0  0  0
 19 27  2  0  0  0  0
 20 26  1  0  0  0  0
 21 26  1  0  0  0  0
 22 23  1  1  0  0  0
  1 29  1  0  0  0  0
  2 30  1  0  0  0  0
  3 31  1  0  0  0  0
  4 32  1  0  0  0  0
  5 33  1  0  0  0  0
  6 34  1  0  0  0  0
  7 35  1  0  0  0  0
  8 36  1  0  0  0  0
  9 37  1  0  0  0  0
 10 38  1  0  0  0  0
 11 39  1  0  0  0  0
 12 40  1  0  0  0  0
 20 41  1  0  0  0  0
 20 42  1  0  0  0  0
 20 43  1  0  0  0  0
 21 44  1  0  0  0  0
 21 45  1  0  0  0  0
 21 46  1  0  0  0  0
 22 47  1  0  0  0  0
 22 48  1  0  0  0  0
 23 49  1  0  0  0  0
 24 50  1  0  0  0  0
 25 51  1  0  0  0  0
M  END
> <clash_score>
0

> <docking_score>
-6.660146713256836

> <overlap_score>
0.9037571549415588

$$$$
BENZO_280_2
  -OEChem-08222022463D

 51 54  0     1  0  0  0  0  0999 V2000
    4.2460    1.7520   20.8250 C   0  0  0  0  0  0  0  0  0  0  0  0
    3.8860    2.1050   19.5250 C   0  0  0  0  0  0  0  0  0  0  0  0
    5.3890    1.0010   21.0690 C   0  0  0  0  0  0  0  0  0  0  0  0
    9.5890   -2.4950   23.2210 C   0  0  0  0  0  0  0  0  0  0  0  0
    8.2550   -1.0010   24.5520 C   0  0  0  0  0  0  0  0  0  0  0  0
    4.6610    1.7170   18.4380 C   0  0  0  0  0  0  0  0  0  0  0  0
    9.1890   -3.5540   24.0140 C   0  0  0  0  0  0  0  0  0  0  0  0
    7.8700   -2.0610   25.3550 C   0  0  0  0  0  0  0  0  0  0  0  0
   12.0393    0.1762   25.3640 C   0  0  0  0  0  0  0  0  0  0  0  0
    7.5840   -0.2700   18.5160 C   0  0  0  0  0  0  0  0  0  0  0  0
   12.9049   -0.7459   25.9099 C   0  0  0  0  0  0  0  0  0  0  0  0
   12.2520   -1.3383   23.6137 C   0  0  0  0  0  0  0  0  0  0  0  0
    6.1460    0.6070   19.9750 C   0  0  0  0  0  0  0  0  0  0  0  0
    9.1280   -1.2090   23.4870 C   0  0  0  0  0  0  0  0  0  0  0  0
   11.6609   -0.1670   24.0339 C   0  0  0  0  0  0  0  0  0  0  0  0
    5.7970    0.9500   18.6730 C   0  0  0  0  0  0  0  0  0  0  0  0
    8.3450   -3.3440   25.0980 C   0  0  0  0  0  0  0  0  0  0  0  0
    7.2710   -0.1460   19.8310 C   0  0  0  0  0  0  0  0  0  0  0  0
    9.0430    0.2380   21.4940 C   0  0  0  0  0  0  0  0  0  0  0  0
    8.4623   -5.7555   25.6629 C   0  0  0  0  0  0  0  0  0  0  0  0
    7.1022   -4.1969   27.0663 C   0  0  0  0  0  0  0  0  0  0  0  0
   10.7220    0.6590   23.1850 C   0  0  0  0  0  0  0  0  0  0  0  0
    9.5820   -0.1080   22.7000 C   0  0  2  0  0  0  0  0  0  0  0  0
    6.7100    0.3850   17.8100 N   0  0  0  0  0  0  0  0  0  0  0  0
    8.0950   -0.7700   20.8440 N   0  0  0  0  0  0  0  0  0  0  0  0
    7.9717   -4.4175   25.9277 N   0  0  0  0  0  0  0  0  0  0  0  0
    9.2950    1.3000   20.9480 O   0  0  0  0  0  0  0  0  0  0  0  0
   13.2582   -2.0191   24.8206 S   0  0  0  0  0  0  0  0  0  0  0  0
    3.6208    2.0704   21.6579 H   0  0  0  0  0  0  0  0  0  0  0  0
    2.9857    2.6926   19.3615 H   0  0  0  0  0  0  0  0  0  0  0  0
    5.6664    0.7407   22.0807 H   0  0  0  0  0  0  0  0  0  0  0  0
   10.2684   -2.6719   22.3867 H   0  0  0  0  0  0  0  0  0  0  0  0
    7.8717   -0.0016   24.7596 H   0  0  0  0  0  0  0  0  0  0  0  0
    4.3794    2.0106   17.4221 H   0  0  0  0  0  0  0  0  0  0  0  0
    9.5443   -4.5616   23.7817 H   0  0  0  0  0  0  0  0  0  0  0  0
    7.1921   -1.8821   26.1908 H   0  0  0  0  0  0  0  0  0  0  0  0
   11.6967    1.0541   25.8970 H   0  0  0  0  0  0  0  0  0  0  0  0
    8.4172   -0.8135   18.0384 H   0  0  0  0  0  0  0  0  0  0  0  0
   13.3474   -0.7325   26.8960 H   0  0  0  0  0  0  0  0  0  0  0  0
   12.1448   -1.8296   22.6565 H   0  0  0  0  0  0  0  0  0  0  0  0
    8.0608   -6.4495   26.4161 H   0  0  0  0  0  0  0  0  0  0  0  0
    8.1373   -6.0735   24.6613 H   0  0  0  0  0  0  0  0  0  0  0  0
    9.5612   -5.7590   25.7101 H   0  0  0  0  0  0  0  0  0  0  0  0
    6.9276   -5.1509   27.5853 H   0  0  0  0  0  0  0  0  0  0  0  0
    7.5769   -3.4850   27.7576 H   0  0  0  0  0  0  0  0  0  0  0  0
    6.1419   -3.7869   26.7201 H   0  0  0  0  0  0  0  0  0  0  0  0
   10.3958    1.5383   23.7557 H   0  0  0  0  0  0  0  0  0  0  0  0
   11.2964    1.0584   22.3376 H   0  0  0  0  0  0  0  0  0  0  0  0
   10.5413   -0.9955   22.0233 H   0  0  0  0  0  0  0  0  0  0  0  0
    6.6715    0.4865   16.8044 H   0  0  0  0  0  0  0  0  0  0  0  0
    8.0730   -1.6176   21.0751 H   0  0  0  0  0  0  0  0  0  0  0  0
  1  2  1  0  0  0  0
  1  3  2  0  0  0  0
  2  6  2  0  0  0  0
  3 13  1  0  0  0  0
  4  7  2  0  0  0  0
  4 14  1  0  0  0  0
  5  8  1  0  0  0  0
  5 14  2  0  0  0  0
  6 16  1  0  0  0  0
  7 17  1  0  0  0  0
  8 17  2  0  0  0  0
  9 11  2  0  0  0  0
  9 15  1  0  0  0  0
 10 18  2  0  0  0  0
 10 24  1  0  0  0  0
 11 28  1  0  0  0  0
 12 15  2  0  0  0  0
 12 28  1  0  0  0  0
 13 16  2  0  0  0  0
 13 18  1  0  0  0  0
 14 23  1  0  0  0  0
 15 22  1  0  0  0  0
 16 24  1  0  0  0  0
 17 26  1  0  0  0  0
 18 25  1  0  0  0  0
 19 23  1  0  0  0  0
 19 25  1  0  0  0  0
 19 27  2  0  0  0  0
 20 26  1  0  0  0  0
 21 26  1  0  0  0  0
 22 23  1  6  0  0  0
  1 29  1  0  0  0  0
  2 30  1  0  0  0  0
  3 31  1  0  0  0  0
  4 32  1  0  0  0  0
  5 33  1  0  0  0  0
  6 34  1  0  0  0  0
  7 35  1  0  0  0  0
  8 36  1  0  0  0  0
  9 37  1  0  0  0  0
 10 38  1  0  0  0  0
 11 39  1  0  0  0  0
 12 40  1  0  0  0  0
 20 41  1  0  0  0  0
 20 42  1  0  0  0  0
 20 43  1  0  0  0  0
 21 44  1  0  0  0  0
 21 45  1  0  0  0  0
 21 46  1  0  0  0  0
 22 47  1  0  0  0  0
 22 48  1  0  0  0  0
 23 49  1  0  0  0  0
 24 50  1  0  0  0  0
 25 51  1  0  0  0  0
M  END
> <clash_score>
0

> <docking_score>
-5.162603378295898

> <overlap_score>
0.8567754030227661

$$$$
BENZO_279_2
  -OEChem-08222022463D

 57 61  0     1  0  0  0  0  0999 V2000
    9.5890   -2.4950   23.2210 C   0  0  0  0  0  0  0  0  0  0  0  0
    8.2550   -1.0010   24.5520 C   0  0  0  0  0  0  0  0  0  0  0  0
    9.1890   -3.5540   24.0140 C   0  0  0  0  0  0  0  0  0  0  0  0
    7.8700   -2.0610   25.3550 C   0  0  0  0  0  0  0  0  0  0  0  0
   12.1478   -0.7466   24.8788 C   0  0  0  0  0  0  0  0  0  0  0  0
   12.9365   -0.6363   22.8292 C   0  0  0  0  0  0  0  0  0  0  0  0
    9.1280   -1.2090   23.4870 C   0  0  0  0  0  0  0  0  0  0  0  0
   11.8895   -0.2037   23.6058 C   0  0  0  0  0  0  0  0  0  0  0  0
    8.3450   -3.3440   25.0980 C   0  0  0  0  0  0  0  0  0  0  0  0
    6.1460    0.6070   19.9750 C   0  0  0  0  0  0  0  0  0  0  0  0
    7.2710   -0.1460   19.8310 C   0  0  0  0  0  0  0  0  0  0  0  0
    5.3890    1.0010   21.0690 C   0  0  0  0  0  0  0  0  0  0  0  0
    4.2460    1.7520   20.8250 C   0  0  0  0  0  0  0  0  0  0  0  0
    3.8860    2.1050   19.5250 C   0  0  0  0  0  0  0  0  0  0  0  0
    4.6610    1.7170   18.4380 C   0  0  0  0  0  0  0  0  0  0  0  0
    9.0430    0.2380   21.4940 C   0  0  0  0  0  0  0  0  0  0  0  0
    8.9526   -5.2008   26.6600 C   0  0  0  0  0  0  0  0  0  0  0  0
    6.6115   -4.5057   26.4392 C   0  0  0  0  0  0  0  0  0  0  0  0
    8.9053   -4.7827   28.1257 C   0  0  0  0  0  0  0  0  0  0  0  0
    6.6391   -4.1219   27.9194 C   0  0  0  0  0  0  0  0  0  0  0  0
   14.9529   -2.0519   23.2864 C   0  0  0  0  0  0  0  0  0  0  0  0
   10.7220    0.6590   23.1850 C   0  0  0  0  0  0  0  0  0  0  0  0
    9.5820   -0.1080   22.7000 C   0  0  2  0  0  0  0  0  0  0  0  0
   13.2706   -1.4691   24.9131 N   0  0  0  0  0  0  0  0  0  0  0  0
    7.5840   -0.2700   18.5160 N   0  0  0  0  0  0  0  0  0  0  0  0
    6.7100    0.3850   17.8100 N   0  0  0  0  0  0  0  0  0  0  0  0
   13.7272   -1.3833   23.6520 N   0  0  0  0  0  0  0  0  0  0  0  0
    5.7970    0.9500   18.6730 N   0  0  0  0  0  0  0  0  0  0  0  0
    7.9774   -4.4013   25.9152 N   0  0  0  0  0  0  0  0  0  0  0  0
    8.0950   -0.7700   20.8440 N   0  0  0  0  0  0  0  0  0  0  0  0
    9.2950    1.3000   20.9480 O   0  0  0  0  0  0  0  0  0  0  0  0
    7.5748   -4.9364   28.6347 O   0  0  0  0  0  0  0  0  0  0  0  0
   10.2684   -2.6719   22.3867 H   0  0  0  0  0  0  0  0  0  0  0  0
    7.8717   -0.0016   24.7596 H   0  0  0  0  0  0  0  0  0  0  0  0
    9.5443   -4.5616   23.7817 H   0  0  0  0  0  0  0  0  0  0  0  0
    7.1921   -1.8821   26.1908 H   0  0  0  0  0  0  0  0  0  0  0  0
   11.5656   -0.6480   25.7841 H   0  0  0  0  0  0  0  0  0  0  0  0
   13.1794   -0.4813   21.7867 H   0  0  0  0  0  0  0  0  0  0  0  0
    5.6529    0.7487   22.0767 H   0  0  0  0  0  0  0  0  0  0  0  0
    3.6388    2.0586   21.6675 H   0  0  0  0  0  0  0  0  0  0  0  0
    2.9822    2.6968   19.3331 H   0  0  0  0  0  0  0  0  0  0  0  0
    4.4111    1.9893   17.4360 H   0  0  0  0  0  0  0  0  0  0  0  0
    9.9614   -5.0503   26.2701 H   0  0  0  0  0  0  0  0  0  0  0  0
    8.6932   -6.2593   26.5731 H   0  0  0  0  0  0  0  0  0  0  0  0
    6.2625   -5.5339   26.3355 H   0  0  0  0  0  0  0  0  0  0  0  0
    5.9348   -3.8414   25.9036 H   0  0  0  0  0  0  0  0  0  0  0  0
    9.5615   -5.4255   28.7162 H   0  0  0  0  0  0  0  0  0  0  0  0
    9.2365   -3.7494   28.2620 H   0  0  0  0  0  0  0  0  0  0  0  0
    6.8895   -3.0633   28.0551 H   0  0  0  0  0  0  0  0  0  0  0  0
    5.6514   -4.2861   28.3610 H   0  0  0  0  0  0  0  0  0  0  0  0
   15.7795   -1.3567   23.4548 H   0  0  0  0  0  0  0  0  0  0  0  0
   15.0760   -2.9481   23.9008 H   0  0  0  0  0  0  0  0  0  0  0  0
   14.9053   -2.3433   22.2334 H   0  0  0  0  0  0  0  0  0  0  0  0
   10.4315    1.3089   24.0208 H   0  0  0  0  0  0  0  0  0  0  0  0
   11.0719    1.3385   22.3955 H   0  0  0  0  0  0  0  0  0  0  0  0
   10.5438   -0.9939   22.0202 H   0  0  0  0  0  0  0  0  0  0  0  0
    8.0917   -1.6083   21.0911 H   0  0  0  0  0  0  0  0  0  0  0  0
  1  3  2  0  0  0  0
  1  7  1  0  0  0  0
  2  4  1  0  0  0  0
  2  7  2  0  0  0  0
  3  9  1  0  0  0  0
  4  9  2  0  0  0  0
  5  8  1  0  0  0  0
  5 24  2  0  0  0  0
  6  8  2  0  0  0  0
  6 27  1  0  0  0  0
  7 23  1  0  0  0  0
  8 22  1  0  0  0  0
  9 29  1  0  0  0  0
 10 11  2  0  0  0  0
 10 12  1  0  0  0  0
 10 28  1  0  0  0  0
 11 25  1  0  0  0  0
 11 30  1  0  0  0  0
 12 13  2  0  0  0  0
 13 14  1  0  0  0  0
 14 15  2  0  0  0  0
 15 28  1  0  0  0  0
 16 23  1  0  0  0  0
 16 30  1  0  0  0  0
 16 31  2  0  0  0  0
 17 19  1  0  0  0  0
 17 29  1  0  0  0  0
 18 20  1  0  0  0  0
 18 29  1  0  0  0  0
 19 32  1  0  0  0  0
 20 32  1  0  0  0  0
 21 27  1  0  0  0  0
 22 23  1  6  0  0  0
 24 27  1  0  0  0  0
 25 26  2  0  0  0  0
 26 28  1  0  0  0  0
  1 33  1  0  0  0  0
  2 34  1  0  0  0  0
  3 35  1  0  0  0  0
  4 36  1  0  0  0  0
  5 37  1  0  0  0  0
  6 38  1  0  0  0  0
 12 39  1  0  0  0  0
 13 40  1  0  0  0  0
 14 41  1  0  0  0  0
 15 42  1  0  0  0  0
 17 43  1  0  0  0  0
 17 44  1  0  0  0  0
 18 45  1  0  0  0  0
 18 46  1  0  0  0  0
 19 47  1  0  0  0  0
 19 48  1  0  0  0  0
 20 49  1  0  0  0  0
 20 50  1  0  0  0  0
 21 51  1  0  0  0  0
 21 52  1  0  0  0  0
 21 53  1  0  0  0  0
 22 54  1  0  0  0  0
 22 55  1  0  0  0  0
 23 56  1  0  0  0  0
 30 57  1  0  0  0  0
M  END
> <clash_score>
0

> <docking_score>
-7.645151138305664

> <overlap_score>
0.9773151278495789

$$$$
BENZO_279_1
  -OEChem-08222022463D

 57 61  0     1  0  0  0  0  0999 V2000
    9.5890   -2.4950   23.2210 C   0  0  0  0  0  0  0  0  0  0  0  0
    8.2550   -1.0010   24.5520 C   0  0  0  0  0  0  0  0  0  0  0  0
    9.1890   -3.5540   24.0140 C   0  0  0  0  0  0  0  0  0  0  0  0
    7.8700   -2.0610   25.3550 C   0  0  0  0  0  0  0  0  0  0  0  0
   13.2924    0.1786   23.3840 C   0  0  0  0  0  0  0  0  0  0  0  0
   12.3227   -0.5596   21.5537 C   0  0  0  0  0  0  0  0  0  0  0  0
    9.1280   -1.2090   23.4870 C   0  0  0  0  0  0  0  0  0  0  0  0
   12.0528    0.1138   22.7200 C   0  0  0  0  0  0  0  0  0  0  0  0
    8.3450   -3.3440   25.0980 C   0  0  0  0  0  0  0  0  0  0  0  0
    6.1460    0.6070   19.9750 C   0  0  0  0  0  0  0  0  0  0  0  0
    7.2710   -0.1460   19.8310 C   0  0  0  0  0  0  0  0  0  0  0  0
    5.3890    1.0010   21.0690 C   0  0  0  0  0  0  0  0  0  0  0  0
    4.2460    1.7520   20.8250 C   0  0  0  0  0  0  0  0  0  0  0  0
    3.8860    2.1050   19.5250 C   0  0  0  0  0  0  0  0  0  0  0  0
    4.6610    1.7170   18.4380 C   0  0  0  0  0  0  0  0  0  0  0  0
    9.0430    0.2380   21.4940 C   0  0  0  0  0  0  0  0  0  0  0  0
    8.9526   -5.2008   26.6600 C   0  0  0  0  0  0  0  0  0  0  0  0
    6.6115   -4.5057   26.4392 C   0  0  0  0  0  0  0  0  0  0  0  0
    8.9053   -4.7827   28.1257 C   0  0  0  0  0  0  0  0  0  0  0  0
    6.6391   -4.1219   27.9194 C   0  0  0  0  0  0  0  0  0  0  0  0
   14.4073   -1.5490   20.5768 C   0  0  0  0  0  0  0  0  0  0  0  0
   10.7220    0.6590   23.1850 C   0  0  0  0  0  0  0  0  0  0  0  0
    9.5820   -0.1080   22.7000 C   0  0  1  0  0  0  0  0  0  0  0  0
   14.2767   -0.4070   22.6967 N   0  0  0  0  0  0  0  0  0  0  0  0
    7.5840   -0.2700   18.5160 N   0  0  0  0  0  0  0  0  0  0  0  0
    6.7100    0.3850   17.8100 N   0  0  0  0  0  0  0  0  0  0  0  0
   13.6557   -0.8463   21.5888 N   0  0  0  0  0  0  0  0  0  0  0  0
    5.7970    0.9500   18.6730 N   0  0  0  0  0  0  0  0  0  0  0  0
    7.9774   -4.4013   25.9152 N   0  0  0  0  0  0  0  0  0  0  0  0
    8.0950   -0.7700   20.8440 N   0  0  0  0  0  0  0  0  0  0  0  0
    9.2950    1.3000   20.9480 O   0  0  0  0  0  0  0  0  0  0  0  0
    7.5748   -4.9364   28.6347 O   0  0  0  0  0  0  0  0  0  0  0  0
   10.2684   -2.6719   22.3867 H   0  0  0  0  0  0  0  0  0  0  0  0
    7.8717   -0.0016   24.7596 H   0  0  0  0  0  0  0  0  0  0  0  0
    9.5443   -4.5616   23.7817 H   0  0  0  0  0  0  0  0  0  0  0  0
    7.1921   -1.8821   26.1908 H   0  0  0  0  0  0  0  0  0  0  0  0
   13.5219    0.6268   24.3404 H   0  0  0  0  0  0  0  0  0  0  0  0
   11.6952   -0.8530   20.7231 H   0  0  0  0  0  0  0  0  0  0  0  0
    5.6529    0.7487   22.0767 H   0  0  0  0  0  0  0  0  0  0  0  0
    3.6388    2.0586   21.6675 H   0  0  0  0  0  0  0  0  0  0  0  0
    2.9822    2.6968   19.3330 H   0  0  0  0  0  0  0  0  0  0  0  0
    4.4111    1.9893   17.4360 H   0  0  0  0  0  0  0  0  0  0  0  0
    9.9614   -5.0503   26.2701 H   0  0  0  0  0  0  0  0  0  0  0  0
    8.6932   -6.2593   26.5731 H   0  0  0  0  0  0  0  0  0  0  0  0
    6.2625   -5.5339   26.3355 H   0  0  0  0  0  0  0  0  0  0  0  0
    5.9348   -3.8414   25.9036 H   0  0  0  0  0  0  0  0  0  0  0  0
    9.5615   -5.4255   28.7162 H   0  0  0  0  0  0  0  0  0  0  0  0
    9.2365   -3.7494   28.2620 H   0  0  0  0  0  0  0  0  0  0  0  0
    6.8895   -3.0633   28.0551 H   0  0  0  0  0  0  0  0  0  0  0  0
    5.6514   -4.2861   28.3610 H   0  0  0  0  0  0  0  0  0  0  0  0
   14.7895   -0.8108   19.8669 H   0  0  0  0  0  0  0  0  0  0  0  0
   15.2329   -2.0907   21.0468 H   0  0  0  0  0  0  0  0  0  0  0  0
   13.7520   -2.2637   20.0711 H   0  0  0  0  0  0  0  0  0  0  0  0
   10.7177    0.7189   24.2812 H   0  0  0  0  0  0  0  0  0  0  0  0
   10.6426    1.6980   22.8361 H   0  0  0  0  0  0  0  0  0  0  0  0
    8.7036    0.8022   23.4008 H   0  0  0  0  0  0  0  0  0  0  0  0
    8.0917   -1.6083   21.0911 H   0  0  0  0  0  0  0  0  0  0  0  0
  1  3  2  0  0  0  0
  1  7  1  0  0  0  0
  2  4  1  0  0  0  0
  2  7  2  0  0  0  0
  3  9  1  0  0  0  0
  4  9  2  0  0  0  0
  5  8  1  0  0  0  0
  5 24  2  0  0  0  0
  6  8  2  0  0  0  0
  6 27  1  0  0  0  0
  7 23  1  0  0  0  0
  8 22  1  0  0  0  0
  9 29  1  0  0  0  0
 10 11  2  0  0  0  0
 10 12  1  0  0  0  0
 10 28  1  0  0  0  0
 11 25  1  0  0  0  0
 11 30  1  0  0  0  0
 12 13  2  0  0  0  0
 13 14  1  0  0  0  0
 14 15  2  0  0  0  0
 15 28  1  0  0  0  0
 16 23  1  0  0  0  0
 16 30  1  0  0  0  0
 16 31  2  0  0  0  0
 17 19  1  0  0  0  0
 17 29  1  0  0  0  0
 18 20  1  0  0  0  0
 18 29  1  0  0  0  0
 19 32  1  0  0  0  0
 20 32  1  0  0  0  0
 21 27  1  0  0  0  0
 22 23  1  1  0  0  0
 24 27  1  0  0  0  0
 25 26  2  0  0  0  0
 26 28  1  0  0  0  0
  1 33  1  0  0  0  0
  2 34  1  0  0  0  0
  3 35  1  0  0  0  0
  4 36  1  0  0  0  0
  5 37  1  0  0  0  0
  6 38  1  0  0  0  0
 12 39  1  0  0  0  0
 13 40  1  0  0  0  0
 14 41  1  0  0  0  0
 15 42  1  0  0  0  0
 17 43  1  0  0  0  0
 17 44  1  0  0  0  0
 18 45  1  0  0  0  0
 18 46  1  0  0  0  0
 19 47  1  0  0  0  0
 19 48  1  0  0  0  0
 20 49  1  0  0  0  0
 20 50  1  0  0  0  0
 21 51  1  0  0  0  0
 21 52  1  0  0  0  0
 21 53  1  0  0  0  0
 22 54  1  0  0  0  0
 22 55  1  0  0  0  0
 23 56  1  0  0  0  0
 30 57  1  0  0  0  0
M  END
> <clash_score>
0

> <docking_score>
-9.11545181274414

> <overlap_score>
0.9540113806724548

$$$$
BENZO_278_2
  -OEChem-08222022463D

 57 61  0     1  0  0  0  0  0999 V2000
   13.3731   -1.0509   21.0656 C   0  0  0  0  0  0  0  0  0  0  0  0
   12.1451   -0.5485   21.4959 C   0  0  0  0  0  0  0  0  0  0  0  0
    9.5890   -2.4950   23.2210 C   0  0  0  0  0  0  0  0  0  0  0  0
    8.2550   -1.0010   24.5520 C   0  0  0  0  0  0  0  0  0  0  0  0
    9.1890   -3.5540   24.0140 C   0  0  0  0  0  0  0  0  0  0  0  0
    7.8700   -2.0610   25.3550 C   0  0  0  0  0  0  0  0  0  0  0  0
   14.5088   -0.8912   21.8596 C   0  0  0  0  0  0  0  0  0  0  0  0
   13.1885    0.2735   23.5140 C   0  0  0  0  0  0  0  0  0  0  0  0
    9.1280   -1.2090   23.4870 C   0  0  0  0  0  0  0  0  0  0  0  0
   12.0528    0.1138   22.7200 C   0  0  0  0  0  0  0  0  0  0  0  0
    8.3450   -3.3440   25.0980 C   0  0  0  0  0  0  0  0  0  0  0  0
   14.4165   -0.2290   23.0837 C   0  0  0  0  0  0  0  0  0  0  0  0
    6.1460    0.6070   19.9750 C   0  0  0  0  0  0  0  0  0  0  0  0
    7.2710   -0.1460   19.8310 C   0  0  0  0  0  0  0  0  0  0  0  0
    5.3890    1.0010   21.0690 C   0  0  0  0  0  0  0  0  0  0  0  0
    4.2460    1.7520   20.8250 C   0  0  0  0  0  0  0  0  0  0  0  0
    3.8860    2.1050   19.5250 C   0  0  0  0  0  0  0  0  0  0  0  0
    4.6610    1.7170   18.4380 C   0  0  0  0  0  0  0  0  0  0  0  0
    9.0430    0.2380   21.4940 C   0  0  0  0  0  0  0  0  0  0  0  0
    8.9526   -5.2008   26.6600 C   0  0  0  0  0  0  0  0  0  0  0  0
    6.6115   -4.5057   26.4392 C   0  0  0  0  0  0  0  0  0  0  0  0
    8.9053   -4.7827   28.1257 C   0  0  0  0  0  0  0  0  0  0  0  0
    6.6391   -4.1219   27.9194 C   0  0  0  0  0  0  0  0  0  0  0  0
   10.7220    0.6590   23.1850 C   0  0  0  0  0  0  0  0  0  0  0  0
    9.5820   -0.1080   22.7000 C   0  0  2  0  0  0  0  0  0  0  0  0
    7.5840   -0.2700   18.5160 N   0  0  0  0  0  0  0  0  0  0  0  0
    6.7100    0.3850   17.8100 N   0  0  0  0  0  0  0  0  0  0  0  0
    5.7970    0.9500   18.6730 N   0  0  0  0  0  0  0  0  0  0  0  0
    7.9774   -4.4013   25.9152 N   0  0  0  0  0  0  0  0  0  0  0  0
    8.0950   -0.7700   20.8440 N   0  0  0  0  0  0  0  0  0  0  0  0
    9.2950    1.3000   20.9480 O   0  0  0  0  0  0  0  0  0  0  0  0
    7.5748   -4.9364   28.6347 O   0  0  0  0  0  0  0  0  0  0  0  0
   15.8183   -0.0312   24.0623 Cl  0  0  0  0  0  0  0  0  0  0  0  0
   13.4446   -1.5664   20.1122 H   0  0  0  0  0  0  0  0  0  0  0  0
   11.2654   -0.6774   20.8707 H   0  0  0  0  0  0  0  0  0  0  0  0
   10.2684   -2.6719   22.3867 H   0  0  0  0  0  0  0  0  0  0  0  0
    7.8717   -0.0016   24.7596 H   0  0  0  0  0  0  0  0  0  0  0  0
    9.5443   -4.5616   23.7817 H   0  0  0  0  0  0  0  0  0  0  0  0
    7.1921   -1.8821   26.1908 H   0  0  0  0  0  0  0  0  0  0  0  0
   15.4594   -1.2877   21.5114 H   0  0  0  0  0  0  0  0  0  0  0  0
   13.1112    0.7902   24.4679 H   0  0  0  0  0  0  0  0  0  0  0  0
    5.6529    0.7487   22.0767 H   0  0  0  0  0  0  0  0  0  0  0  0
    3.6388    2.0586   21.6675 H   0  0  0  0  0  0  0  0  0  0  0  0
    2.9822    2.6968   19.3330 H   0  0  0  0  0  0  0  0  0  0  0  0
    4.4111    1.9893   17.4360 H   0  0  0  0  0  0  0  0  0  0  0  0
    9.9614   -5.0503   26.2701 H   0  0  0  0  0  0  0  0  0  0  0  0
    8.6932   -6.2593   26.5731 H   0  0  0  0  0  0  0  0  0  0  0  0
    6.2625   -5.5339   26.3355 H   0  0  0  0  0  0  0  0  0  0  0  0
    5.9348   -3.8414   25.9036 H   0  0  0  0  0  0  0  0  0  0  0  0
    9.5615   -5.4255   28.7162 H   0  0  0  0  0  0  0  0  0  0  0  0
    9.2365   -3.7494   28.2620 H   0  0  0  0  0  0  0  0  0  0  0  0
    6.8895   -3.0633   28.0551 H   0  0  0  0  0  0  0  0  0  0  0  0
    5.6514   -4.2861   28.3610 H   0  0  0  0  0  0  0  0  0  0  0  0
   10.7177    0.7189   24.2812 H   0  0  0  0  0  0  0  0  0  0  0  0
   10.6426    1.6980   22.8361 H   0  0  0  0  0  0  0  0  0  0  0  0
    8.7036    0.8022   23.4008 H   0  0  0  0  0  0  0  0  0  0  0  0
    8.0917   -1.6083   21.0911 H   0  0  0  0  0  0  0  0  0  0  0  0
  1  2  2  0  0  0  0
  1  7  1  0  0  0  0
  2 10  1  0  0  0  0
  3  5  2  0  0  0  0
  3  9  1  0  0  0  0
  4  6  1  0  0  0  0
  4  9  2  0  0  0  0
  5 11  1  0  0  0  0
  6 11  2  0  0  0  0
  7 12  2  0  0  0  0
  8 10  2  0  0  0  0
  8 12  1  0  0  0  0
  9 25  1  0  0  0  0
 10 24  1  0  0  0  0
 11 29  1  0  0  0  0
 12 33  1  0  0  0  0
 13 14  2  0  0  0  0
 13 15  1  0  0  0  0
 13 28  1  0  0  0  0
 14 26  1  0  0  0  0
 14 30  1  0  0  0  0
 15 16  2  0  0  0  0
 16 17  1  0  0  0  0
 17 18  2  0  0  0  0
 18 28  1  0  0  0  0
 19 25  1  6  0  0  0
 19 30  1  0  0  0  0
 19 31  2  0  0  0  0
 20 22  1  0  0  0  0
 20 29  1  0  0  0  0
 21 23  1  0  0  0  0
 21 29  1  0  0  0  0
 22 32  1  0  0  0  0
 23 32  1  0  0  0  0
 24 25  1  0  0  0  0
 26 27  2  0  0  0  0
 27 28  1  0  0  0  0
  1 34  1  0  0  0  0
  2 35  1  0  0  0  0
  3 36  1  0  0  0  0
  4 37  1  0  0  0  0
  5 38  1  0  0  0  0
  6 39  1  0  0  0  0
  7 40  1  0  0  0  0
  8 41  1  0  0  0  0
 15 42  1  0  0  0  0
 16 43  1  0  0  0  0
 17 44  1  0  0  0  0
 18 45  1  0  0  0  0
 20 46  1  0  0  0  0
 20 47  1  0  0  0  0
 21 48  1  0  0  0  0
 21 49  1  0  0  0  0
 22 50  1  0  0  0  0
 22 51  1  0  0  0  0
 23 52  1  0  0  0  0
 23 53  1  0  0  0  0
 24 54  1  0  0  0  0
 24 55  1  0  0  0  0
 25 56  1  0  0  0  0
 30 57  1  0  0  0  0
M  END
> <clash_score>
1.470581667490539

> <docking_score>
-7.121042251586914

> <overlap_score>
0.9555860161781311

$$$$
BENZO_278_1
  -OEChem-08222022463D

 57 61  0     1  0  0  0  0  0999 V2000
   13.0607   -1.4512   25.3114 C   0  0  0  0  0  0  0  0  0  0  0  0
   11.9841   -0.6540   24.9226 C   0  0  0  0  0  0  0  0  0  0  0  0
    9.5890   -2.4950   23.2210 C   0  0  0  0  0  0  0  0  0  0  0  0
    8.2550   -1.0010   24.5520 C   0  0  0  0  0  0  0  0  0  0  0  0
    9.1890   -3.5540   24.0140 C   0  0  0  0  0  0  0  0  0  0  0  0
    7.8700   -2.0610   25.3550 C   0  0  0  0  0  0  0  0  0  0  0  0
   14.0427   -1.7979   24.3834 C   0  0  0  0  0  0  0  0  0  0  0  0
   12.8715   -0.5505   22.6778 C   0  0  0  0  0  0  0  0  0  0  0  0
    9.1280   -1.2090   23.4870 C   0  0  0  0  0  0  0  0  0  0  0  0
   11.8895   -0.2037   23.6058 C   0  0  0  0  0  0  0  0  0  0  0  0
    8.3450   -3.3440   25.0980 C   0  0  0  0  0  0  0  0  0  0  0  0
   13.9481   -1.3476   23.0666 C   0  0  0  0  0  0  0  0  0  0  0  0
    6.1460    0.6070   19.9750 C   0  0  0  0  0  0  0  0  0  0  0  0
    7.2710   -0.1460   19.8310 C   0  0  0  0  0  0  0  0  0  0  0  0
    5.3890    1.0010   21.0690 C   0  0  0  0  0  0  0  0  0  0  0  0
    4.2460    1.7520   20.8250 C   0  0  0  0  0  0  0  0  0  0  0  0
    3.8860    2.1050   19.5250 C   0  0  0  0  0  0  0  0  0  0  0  0
    4.6610    1.7170   18.4380 C   0  0  0  0  0  0  0  0  0  0  0  0
    9.0430    0.2380   21.4940 C   0  0  0  0  0  0  0  0  0  0  0  0
    8.9526   -5.2008   26.6600 C   0  0  0  0  0  0  0  0  0  0  0  0
    6.6115   -4.5057   26.4392 C   0  0  0  0  0  0  0  0  0  0  0  0
    8.9053   -4.7827   28.1257 C   0  0  0  0  0  0  0  0  0  0  0  0
    6.6391   -4.1219   27.9194 C   0  0  0  0  0  0  0  0  0  0  0  0
   10.7220    0.6590   23.1850 C   0  0  0  0  0  0  0  0  0  0  0  0
    9.5820   -0.1080   22.7000 C   0  0  1  0  0  0  0  0  0  0  0  0
    7.5840   -0.2700   18.5160 N   0  0  0  0  0  0  0  0  0  0  0  0
    6.7100    0.3850   17.8100 N   0  0  0  0  0  0  0  0  0  0  0  0
    5.7970    0.9500   18.6730 N   0  0  0  0  0  0  0  0  0  0  0  0
    7.9774   -4.4013   25.9152 N   0  0  0  0  0  0  0  0  0  0  0  0
    8.0950   -0.7700   20.8440 N   0  0  0  0  0  0  0  0  0  0  0  0
    9.2950    1.3000   20.9480 O   0  0  0  0  0  0  0  0  0  0  0  0
    7.5748   -4.9364   28.6347 O   0  0  0  0  0  0  0  0  0  0  0  0
   15.1593   -1.7768   21.9219 Cl  0  0  0  0  0  0  0  0  0  0  0  0
   13.1340   -1.8017   26.3368 H   0  0  0  0  0  0  0  0  0  0  0  0
   11.2236   -0.3888   25.6524 H   0  0  0  0  0  0  0  0  0  0  0  0
   10.2684   -2.6719   22.3867 H   0  0  0  0  0  0  0  0  0  0  0  0
    7.8717   -0.0016   24.7596 H   0  0  0  0  0  0  0  0  0  0  0  0
    9.5443   -4.5616   23.7817 H   0  0  0  0  0  0  0  0  0  0  0  0
    7.1921   -1.8821   26.1908 H   0  0  0  0  0  0  0  0  0  0  0  0
   14.8761   -2.4201   24.7005 H   0  0  0  0  0  0  0  0  0  0  0  0
   12.7934   -0.1965   21.6525 H   0  0  0  0  0  0  0  0  0  0  0  0
    5.6529    0.7487   22.0767 H   0  0  0  0  0  0  0  0  0  0  0  0
    3.6388    2.0586   21.6675 H   0  0  0  0  0  0  0  0  0  0  0  0
    2.9822    2.6968   19.3331 H   0  0  0  0  0  0  0  0  0  0  0  0
    4.4111    1.9893   17.4360 H   0  0  0  0  0  0  0  0  0  0  0  0
    9.9614   -5.0503   26.2701 H   0  0  0  0  0  0  0  0  0  0  0  0
    8.6932   -6.2593   26.5731 H   0  0  0  0  0  0  0  0  0  0  0  0
    6.2625   -5.5339   26.3355 H   0  0  0  0  0  0  0  0  0  0  0  0
    5.9348   -3.8414   25.9036 H   0  0  0  0  0  0  0  0  0  0  0  0
    9.5615   -5.4255   28.7162 H   0  0  0  0  0  0  0  0  0  0  0  0
    9.2365   -3.7494   28.2620 H   0  0  0  0  0  0  0  0  0  0  0  0
    6.8895   -3.0633   28.0551 H   0  0  0  0  0  0  0  0  0  0  0  0
    5.6514   -4.2861   28.3610 H   0  0  0  0  0  0  0  0  0  0  0  0
   10.4315    1.3089   24.0208 H   0  0  0  0  0  0  0  0  0  0  0  0
   11.0719    1.3385   22.3955 H   0  0  0  0  0  0  0  0  0  0  0  0
   10.5438   -0.9939   22.0202 H   0  0  0  0  0  0  0  0  0  0  0  0
    8.0917   -1.6083   21.0911 H   0  0  0  0  0  0  0  0  0  0  0  0
  1  2  2  0  0  0  0
  1  7  1  0  0  0  0
  2 10  1  0  0  0  0
  3  5  2  0  0  0  0
  3  9  1  0  0  0  0
  4  6  1  0  0  0  0
  4  9  2  0  0  0  0
  5 11  1  0  0  0  0
  6 11  2  0  0  0  0
  7 12  2  0  0  0  0
  8 10  2  0  0  0  0
  8 12  1  0  0  0  0
  9 25  1  0  0  0  0
 10 24  1  0  0  0  0
 11 29  1  0  0  0  0
 12 33  1  0  0  0  0
 13 14  2  0  0  0  0
 13 15  1  0  0  0  0
 13 28  1  0  0  0  0
 14 26  1  0  0  0  0
 14 30  1  0  0  0  0
 15 16  2  0  0  0  0
 16 17  1  0  0  0  0
 17 18  2  0  0  0  0
 18 28  1  0  0  0  0
 19 25  1  1  0  0  0
 19 30  1  0  0  0  0
 19 31  2  0  0  0  0
 20 22  1  0  0  0  0
 20 29  1  0  0  0  0
 21 23  1  0  0  0  0
 21 29  1  0  0  0  0
 22 32  1  0  0  0  0
 23 32  1  0  0  0  0
 24 25  1  0  0  0  0
 26 27  2  0  0  0  0
 27 28  1  0  0  0  0
  1 34  1  0  0  0  0
  2 35  1  0  0  0  0
  3 36  1  0  0  0  0
  4 37  1  0  0  0  0
  5 38  1  0  0  0  0
  6 39  1  0  0  0  0
  7 40  1  0  0  0  0
  8 41  1  0  0  0  0
 15 42  1  0  0  0  0
 16 43  1  0  0  0  0
 17 44  1  0  0  0  0
 18 45  1  0  0  0  0
 20 46  1  0  0  0  0
 20 47  1  0  0  0  0
 21 48  1  0  0  0  0
 21 49  1  0  0  0  0
 22 50  1  0  0  0  0
 22 51  1  0  0  0  0
 23 52  1  0  0  0  0
 23 53  1  0  0  0  0
 24 54  1  0  0  0  0
 24 55  1  0  0  0  0
 25 56  1  0  0  0  0
 30 57  1  0  0  0  0
M  END
> <clash_score>
0

> <docking_score>
-7.7151994705200195

> <overlap_score>
0.9814106822013855

$$$$
BENZO_283_1
  -OEChem-08222022463D

 54 57  0     1  0  0  0  0  0999 V2000
    4.2460    1.7520   20.8250 C   0  0  0  0  0  0  0  0  0  0  0  0
    3.8860    2.1050   19.5250 C   0  0  0  0  0  0  0  0  0  0  0  0
    5.3890    1.0010   21.0690 C   0  0  0  0  0  0  0  0  0  0  0  0
    9.5890   -2.4950   23.2210 C   0  0  0  0  0  0  0  0  0  0  0  0
    8.2550   -1.0010   24.5520 C   0  0  0  0  0  0  0  0  0  0  0  0
    4.6610    1.7170   18.4380 C   0  0  0  0  0  0  0  0  0  0  0  0
    9.1890   -3.5540   24.0140 C   0  0  0  0  0  0  0  0  0  0  0  0
    7.8700   -2.0610   25.3550 C   0  0  0  0  0  0  0  0  0  0  0  0
   13.2896    0.1553   23.3608 C   0  0  0  0  0  0  0  0  0  0  0  0
   12.2975   -0.5709   21.5378 C   0  0  0  0  0  0  0  0  0  0  0  0
    7.5840   -0.2700   18.5160 C   0  0  0  0  0  0  0  0  0  0  0  0
    6.1460    0.6070   19.9750 C   0  0  0  0  0  0  0  0  0  0  0  0
    9.1280   -1.2090   23.4870 C   0  0  0  0  0  0  0  0  0  0  0  0
   12.0437    0.1027   22.7075 C   0  0  0  0  0  0  0  0  0  0  0  0
    5.7970    0.9500   18.6730 C   0  0  0  0  0  0  0  0  0  0  0  0
    8.3450   -3.3440   25.0980 C   0  0  0  0  0  0  0  0  0  0  0  0
    7.2710   -0.1460   19.8310 C   0  0  0  0  0  0  0  0  0  0  0  0
    9.0430    0.2380   21.4940 C   0  0  0  0  0  0  0  0  0  0  0  0
   14.3645   -1.5772   20.5410 C   0  0  0  0  0  0  0  0  0  0  0  0
    7.2615   -5.5563   25.3804 C   0  0  0  0  0  0  0  0  0  0  0  0
    8.3045   -4.4045   27.3385 C   0  0  0  0  0  0  0  0  0  0  0  0
   10.7220    0.6590   23.1850 C   0  0  0  0  0  0  0  0  0  0  0  0
    9.5820   -0.1080   22.7000 C   0  0  1  0  0  0  0  0  0  0  0  0
   14.2626   -0.4379   22.6640 N   0  0  0  0  0  0  0  0  0  0  0  0
    6.7100    0.3850   17.8100 N   0  0  0  0  0  0  0  0  0  0  0  0
   13.6281   -0.8696   21.5608 N   0  0  0  0  0  0  0  0  0  0  0  0
    8.0950   -0.7700   20.8440 N   0  0  0  0  0  0  0  0  0  0  0  0
    7.9717   -4.4175   25.9277 N   0  0  0  0  0  0  0  0  0  0  0  0
    9.2950    1.3000   20.9480 O   0  0  0  0  0  0  0  0  0  0  0  0
    3.6208    2.0704   21.6579 H   0  0  0  0  0  0  0  0  0  0  0  0
    2.9857    2.6926   19.3615 H   0  0  0  0  0  0  0  0  0  0  0  0
    5.6664    0.7407   22.0807 H   0  0  0  0  0  0  0  0  0  0  0  0
   10.2684   -2.6719   22.3867 H   0  0  0  0  0  0  0  0  0  0  0  0
    7.8717   -0.0016   24.7596 H   0  0  0  0  0  0  0  0  0  0  0  0
    4.3794    2.0106   17.4221 H   0  0  0  0  0  0  0  0  0  0  0  0
    9.5443   -4.5616   23.7817 H   0  0  0  0  0  0  0  0  0  0  0  0
    7.1921   -1.8821   26.1908 H   0  0  0  0  0  0  0  0  0  0  0  0
   13.5314    0.5997   24.3159 H   0  0  0  0  0  0  0  0  0  0  0  0
   11.6602   -0.8572   20.7121 H   0  0  0  0  0  0  0  0  0  0  0  0
    8.4172   -0.8135   18.0384 H   0  0  0  0  0  0  0  0  0  0  0  0
   14.7472   -0.8411   19.8291 H   0  0  0  0  0  0  0  0  0  0  0  0
   15.1893   -2.1271   21.0028 H   0  0  0  0  0  0  0  0  0  0  0  0
   13.6985   -2.2851   20.0398 H   0  0  0  0  0  0  0  0  0  0  0  0
    7.0607   -6.2833   26.1812 H   0  0  0  0  0  0  0  0  0  0  0  0
    6.3096   -5.2194   24.9441 H   0  0  0  0  0  0  0  0  0  0  0  0
    7.8750   -6.0305   24.6002 H   0  0  0  0  0  0  0  0  0  0  0  0
    7.9298   -5.3236   27.8126 H   0  0  0  0  0  0  0  0  0  0  0  0
    9.3968   -4.3501   27.4569 H   0  0  0  0  0  0  0  0  0  0  0  0
    7.8398   -3.5297   27.8166 H   0  0  0  0  0  0  0  0  0  0  0  0
   10.7266    0.7141   24.2815 H   0  0  0  0  0  0  0  0  0  0  0  0
   10.6502    1.7003   22.8412 H   0  0  0  0  0  0  0  0  0  0  0  0
    8.7027    0.7972   23.4026 H   0  0  0  0  0  0  0  0  0  0  0  0
    6.6715    0.4865   16.8044 H   0  0  0  0  0  0  0  0  0  0  0  0
    8.0730   -1.6176   21.0751 H   0  0  0  0  0  0  0  0  0  0  0  0
  1  2  1  0  0  0  0
  1  3  2  0  0  0  0
  2  6  2  0  0  0  0
  3 12  1  0  0  0  0
  4  7  2  0  0  0  0
  4 13  1  0  0  0  0
  5  8  1  0  0  0  0
  5 13  2  0  0  0  0
  6 15  1  0  0  0  0
  7 16  1  0  0  0  0
  8 16  2  0  0  0  0
  9 14  1  0  0  0  0
  9 24  2  0  0  0  0
 10 14  2  0  0  0  0
 10 26  1  0  0  0  0
 11 17  2  0  0  0  0
 11 25  1  0  0  0  0
 12 15  2  0  0  0  0
 12 17  1  0  0  0  0
 13 23  1  0  0  0  0
 14 22  1  0  0  0  0
 15 25  1  0  0  0  0
 16 28  1  0  0  0  0
 17 27  1  0  0  0  0
 18 23  1  0  0  0  0
 18 27  1  0  0  0  0
 18 29  2  0  0  0  0
 19 26  1  0  0  0  0
 20 28  1  0  0  0  0
 21 28  1  0  0  0  0
 22 23  1  1  0  0  0
 24 26  1  0  0  0  0
  1 30  1  0  0  0  0
  2 31  1  0  0  0  0
  3 32  1  0  0  0  0
  4 33  1  0  0  0  0
  5 34  1  0  0  0  0
  6 35  1  0  0  0  0
  7 36  1  0  0  0  0
  8 37  1  0  0  0  0
  9 38  1  0  0  0  0
 10 39  1  0  0  0  0
 11 40  1  0  0  0  0
 19 41  1  0  0  0  0
 19 42  1  0  0  0  0
 19 43  1  0  0  0  0
 20 44  1  0  0  0  0
 20 45  1  0  0  0  0
 20 46  1  0  0  0  0
 21 47  1  0  0  0  0
 21 48  1  0  0  0  0
 21 49  1  0  0  0  0
 22 50  1  0  0  0  0
 22 51  1  0  0  0  0
 23 52  1  0  0  0  0
 25 53  1  0  0  0  0
 27 54  1  0  0  0  0
M  END
> <clash_score>
0

> <docking_score>
-7.992767810821533

> <overlap_score>
0.9069583415985107

$$$$
BENZO_283_2
  -OEChem-08222022463D

 54 57  0     1  0  0  0  0  0999 V2000
    4.2460    1.7520   20.8250 C   0  0  0  0  0  0  0  0  0  0  0  0
    3.8860    2.1050   19.5250 C   0  0  0  0  0  0  0  0  0  0  0  0
    5.3890    1.0010   21.0690 C   0  0  0  0  0  0  0  0  0  0  0  0
    9.5890   -2.4950   23.2210 C   0  0  0  0  0  0  0  0  0  0  0  0
    8.2550   -1.0010   24.5520 C   0  0  0  0  0  0  0  0  0  0  0  0
    4.6610    1.7170   18.4380 C   0  0  0  0  0  0  0  0  0  0  0  0
    9.1890   -3.5540   24.0140 C   0  0  0  0  0  0  0  0  0  0  0  0
    7.8700   -2.0610   25.3550 C   0  0  0  0  0  0  0  0  0  0  0  0
   12.1294   -0.7684   24.8759 C   0  0  0  0  0  0  0  0  0  0  0  0
   12.9208   -0.6622   22.8272 C   0  0  0  0  0  0  0  0  0  0  0  0
    7.5840   -0.2700   18.5160 C   0  0  0  0  0  0  0  0  0  0  0  0
    6.1460    0.6070   19.9750 C   0  0  0  0  0  0  0  0  0  0  0  0
    9.1280   -1.2090   23.4870 C   0  0  0  0  0  0  0  0  0  0  0  0
   11.8786   -0.2190   23.6043 C   0  0  0  0  0  0  0  0  0  0  0  0
    5.7970    0.9500   18.6730 C   0  0  0  0  0  0  0  0  0  0  0  0
    8.3450   -3.3440   25.0980 C   0  0  0  0  0  0  0  0  0  0  0  0
    7.2710   -0.1460   19.8310 C   0  0  0  0  0  0  0  0  0  0  0  0
    9.0430    0.2380   21.4940 C   0  0  0  0  0  0  0  0  0  0  0  0
   14.9196   -2.1033   23.2819 C   0  0  0  0  0  0  0  0  0  0  0  0
    7.2615   -5.5563   25.3804 C   0  0  0  0  0  0  0  0  0  0  0  0
    8.3045   -4.4045   27.3385 C   0  0  0  0  0  0  0  0  0  0  0  0
   10.7220    0.6590   23.1850 C   0  0  0  0  0  0  0  0  0  0  0  0
    9.5820   -0.1080   22.7000 C   0  0  2  0  0  0  0  0  0  0  0  0
   13.2434   -1.5045   24.9090 N   0  0  0  0  0  0  0  0  0  0  0  0
    6.7100    0.3850   17.8100 N   0  0  0  0  0  0  0  0  0  0  0  0
   13.7018   -1.4209   23.6485 N   0  0  0  0  0  0  0  0  0  0  0  0
    8.0950   -0.7700   20.8440 N   0  0  0  0  0  0  0  0  0  0  0  0
    7.9717   -4.4175   25.9277 N   0  0  0  0  0  0  0  0  0  0  0  0
    9.2950    1.3000   20.9480 O   0  0  0  0  0  0  0  0  0  0  0  0
    3.6208    2.0704   21.6579 H   0  0  0  0  0  0  0  0  0  0  0  0
    2.9857    2.6926   19.3615 H   0  0  0  0  0  0  0  0  0  0  0  0
    5.6664    0.7407   22.0807 H   0  0  0  0  0  0  0  0  0  0  0  0
   10.2684   -2.6719   22.3867 H   0  0  0  0  0  0  0  0  0  0  0  0
    7.8717   -0.0016   24.7596 H   0  0  0  0  0  0  0  0  0  0  0  0
    4.3794    2.0106   17.4221 H   0  0  0  0  0  0  0  0  0  0  0  0
    9.5443   -4.5616   23.7817 H   0  0  0  0  0  0  0  0  0  0  0  0
    7.1921   -1.8821   26.1908 H   0  0  0  0  0  0  0  0  0  0  0  0
   11.5479   -0.6652   25.7811 H   0  0  0  0  0  0  0  0  0  0  0  0
   13.1664   -0.5073   21.7853 H   0  0  0  0  0  0  0  0  0  0  0  0
    8.4172   -0.8135   18.0384 H   0  0  0  0  0  0  0  0  0  0  0  0
   15.7545   -1.4186   23.4527 H   0  0  0  0  0  0  0  0  0  0  0  0
   15.0313   -3.0027   23.8939 H   0  0  0  0  0  0  0  0  0  0  0  0
   14.8692   -2.3913   22.2281 H   0  0  0  0  0  0  0  0  0  0  0  0
    7.0607   -6.2833   26.1812 H   0  0  0  0  0  0  0  0  0  0  0  0
    6.3096   -5.2194   24.9441 H   0  0  0  0  0  0  0  0  0  0  0  0
    7.8750   -6.0305   24.6002 H   0  0  0  0  0  0  0  0  0  0  0  0
    7.9298   -5.3236   27.8126 H   0  0  0  0  0  0  0  0  0  0  0  0
    9.3968   -4.3501   27.4569 H   0  0  0  0  0  0  0  0  0  0  0  0
    7.8398   -3.5297   27.8166 H   0  0  0  0  0  0  0  0  0  0  0  0
   10.4369    1.3080   24.0233 H   0  0  0  0  0  0  0  0  0  0  0  0
   11.0815    1.3384   22.3997 H   0  0  0  0  0  0  0  0  0  0  0  0
   10.5413   -0.9955   22.0233 H   0  0  0  0  0  0  0  0  0  0  0  0
    6.6715    0.4865   16.8044 H   0  0  0  0  0  0  0  0  0  0  0  0
    8.0730   -1.6176   21.0751 H   0  0  0  0  0  0  0  0  0  0  0  0
  1  2  1  0  0  0  0
  1  3  2  0  0  0  0
  2  6  2  0  0  0  0
  3 12  1  0  0  0  0
  4  7  2  0  0  0  0
  4 13  1  0  0  0  0
  5  8  1  0  0  0  0
  5 13  2  0  0  0  0
  6 15  1  0  0  0  0
  7 16  1  0  0  0  0
  8 16  2  0  0  0  0
  9 14  1  0  0  0  0
  9 24  2  0  0  0  0
 10 14  2  0  0  0  0
 10 26  1  0  0  0  0
 11 17  2  0  0  0  0
 11 25  1  0  0  0  0
 12 15  2  0  0  0  0
 12 17  1  0  0  0  0
 13 23  1  0  0  0  0
 14 22  1  0  0  0  0
 15 25  1  0  0  0  0
 16 28  1  0  0  0  0
 17 27  1  0  0  0  0
 18 23  1  0  0  0  0
 18 27  1  0  0  0  0
 18 29  2  0  0  0  0
 19 26  1  0  0  0  0
 20 28  1  0  0  0  0
 21 28  1  0  0  0  0
 22 23  1  6  0  0  0
 24 26  1  0  0  0  0
  1 30  1  0  0  0  0
  2 31  1  0  0  0  0
  3 32  1  0  0  0  0
  4 33  1  0  0  0  0
  5 34  1  0  0  0  0
  6 35  1  0  0  0  0
  7 36  1  0  0  0  0
  8 37  1  0  0  0  0
  9 38  1  0  0  0  0
 10 39  1  0  0  0  0
 11 40  1  0  0  0  0
 19 41  1  0  0  0  0
 19 42  1  0  0  0  0
 19 43  1  0  0  0  0
 20 44  1  0  0  0  0
 20 45  1  0  0  0  0
 20 46  1  0  0  0  0
 21 47  1  0  0  0  0
 21 48  1  0  0  0  0
 21 49  1  0  0  0  0
 22 50  1  0  0  0  0
 22 51  1  0  0  0  0
 23 52  1  0  0  0  0
 25 53  1  0  0  0  0
 27 54  1  0  0  0  0
M  END
> <clash_score>
0

> <docking_score>
-6.517782211303711

> <overlap_score>
0.9296138286590576

$$$$
BENZO_285_1
  -OEChem-08222022463D

 56 59  0     1  0  0  0  0  0999 V2000
   14.4830   -0.9237   21.8249 C   0  0  0  0  0  0  0  0  0  0  0  0
    4.2460    1.7520   20.8250 C   0  0  0  0  0  0  0  0  0  0  0  0
   13.9310   -1.3719   23.0248 C   0  0  0  0  0  0  0  0  0  0  0  0
   13.8154    0.0379   21.0662 C   0  0  0  0  0  0  0  0  0  0  0  0
    3.8860    2.1050   19.5250 C   0  0  0  0  0  0  0  0  0  0  0  0
    5.3890    1.0010   21.0690 C   0  0  0  0  0  0  0  0  0  0  0  0
   12.7114   -0.8588   23.4661 C   0  0  0  0  0  0  0  0  0  0  0  0
   12.5958    0.5510   21.5075 C   0  0  0  0  0  0  0  0  0  0  0  0
    9.5890   -2.4950   23.2210 C   0  0  0  0  0  0  0  0  0  0  0  0
    8.2550   -1.0010   24.5520 C   0  0  0  0  0  0  0  0  0  0  0  0
    4.6610    1.7170   18.4380 C   0  0  0  0  0  0  0  0  0  0  0  0
    9.1890   -3.5540   24.0140 C   0  0  0  0  0  0  0  0  0  0  0  0
    7.8700   -2.0610   25.3550 C   0  0  0  0  0  0  0  0  0  0  0  0
    7.5840   -0.2700   18.5160 C   0  0  0  0  0  0  0  0  0  0  0  0
    6.1460    0.6070   19.9750 C   0  0  0  0  0  0  0  0  0  0  0  0
   12.0437    0.1027   22.7075 C   0  0  0  0  0  0  0  0  0  0  0  0
    9.1280   -1.2090   23.4870 C   0  0  0  0  0  0  0  0  0  0  0  0
    5.7970    0.9500   18.6730 C   0  0  0  0  0  0  0  0  0  0  0  0
    8.3450   -3.3440   25.0980 C   0  0  0  0  0  0  0  0  0  0  0  0
    7.2710   -0.1460   19.8310 C   0  0  0  0  0  0  0  0  0  0  0  0
    8.2026   -4.5566   27.2975 C   0  0  0  0  0  0  0  0  0  0  0  0
    9.0430    0.2380   21.4940 C   0  0  0  0  0  0  0  0  0  0  0  0
    7.8889   -6.0882   29.2879 C   0  0  0  0  0  0  0  0  0  0  0  0
   10.7220    0.6590   23.1850 C   0  0  0  0  0  0  0  0  0  0  0  0
    7.6343   -5.8728   27.8068 C   0  0  0  0  0  0  0  0  0  0  0  0
    9.5820   -0.1080   22.7000 C   0  0  1  0  0  0  0  0  0  0  0  0
    6.7100    0.3850   17.8100 N   0  0  0  0  0  0  0  0  0  0  0  0
    7.9771   -4.4057   25.9197 N   0  0  0  0  0  0  0  0  0  0  0  0
    8.0950   -0.7700   20.8440 N   0  0  0  0  0  0  0  0  0  0  0  0
    8.7749   -3.7648   28.0392 O   0  0  0  0  0  0  0  0  0  0  0  0
    9.2950    1.3000   20.9480 O   0  0  0  0  0  0  0  0  0  0  0  0
   15.4334   -1.3223   21.4820 H   0  0  0  0  0  0  0  0  0  0  0  0
    3.6208    2.0704   21.6579 H   0  0  0  0  0  0  0  0  0  0  0  0
   14.4512   -2.1198   23.6162 H   0  0  0  0  0  0  0  0  0  0  0  0
   14.2455    0.3879   20.1325 H   0  0  0  0  0  0  0  0  0  0  0  0
    2.9857    2.6926   19.3615 H   0  0  0  0  0  0  0  0  0  0  0  0
    5.6664    0.7407   22.0807 H   0  0  0  0  0  0  0  0  0  0  0  0
   12.2887   -1.2141   24.4023 H   0  0  0  0  0  0  0  0  0  0  0  0
   12.0827    1.2998   20.9098 H   0  0  0  0  0  0  0  0  0  0  0  0
   10.2695   -2.6718   22.3873 H   0  0  0  0  0  0  0  0  0  0  0  0
    7.8712   -0.0014   24.7587 H   0  0  0  0  0  0  0  0  0  0  0  0
    4.3794    2.0106   17.4221 H   0  0  0  0  0  0  0  0  0  0  0  0
    9.5431   -4.5618   23.7801 H   0  0  0  0  0  0  0  0  0  0  0  0
    7.1923   -1.8823   26.1912 H   0  0  0  0  0  0  0  0  0  0  0  0
    8.4172   -0.8135   18.0384 H   0  0  0  0  0  0  0  0  0  0  0  0
    8.9616   -6.0836   29.5073 H   0  0  0  0  0  0  0  0  0  0  0  0
    7.4783   -7.0503   29.6092 H   0  0  0  0  0  0  0  0  0  0  0  0
    7.4206   -5.2995   29.8860 H   0  0  0  0  0  0  0  0  0  0  0  0
   10.7266    0.7141   24.2815 H   0  0  0  0  0  0  0  0  0  0  0  0
   10.6502    1.7003   22.8412 H   0  0  0  0  0  0  0  0  0  0  0  0
    6.5549   -5.8821   27.6165 H   0  0  0  0  0  0  0  0  0  0  0  0
    8.0869   -6.6912   27.2352 H   0  0  0  0  0  0  0  0  0  0  0  0
    8.7027    0.7972   23.4026 H   0  0  0  0  0  0  0  0  0  0  0  0
    6.6715    0.4865   16.8044 H   0  0  0  0  0  0  0  0  0  0  0  0
    7.4775   -5.1797   25.4665 H   0  0  0  0  0  0  0  0  0  0  0  0
    8.0730   -1.6176   21.0751 H   0  0  0  0  0  0  0  0  0  0  0  0
  1  3  1  0  0  0  0
  1  4  2  0  0  0  0
  2  5  1  0  0  0  0
  2  6  2  0  0  0  0
  3  7  2  0  0  0  0
  4  8  1  0  0  0  0
  5 11  2  0  0  0  0
  6 15  1  0  0  0  0
  7 16  1  0  0  0  0
  8 16  2  0  0  0  0
  9 12  2  0  0  0  0
  9 17  1  0  0  0  0
 10 13  1  0  0  0  0
 10 17  2  0  0  0  0
 11 18  1  0  0  0  0
 12 19  1  0  0  0  0
 13 19  2  0  0  0  0
 14 20  2  0  0  0  0
 14 27  1  0  0  0  0
 15 18  2  0  0  0  0
 15 20  1  0  0  0  0
 16 24  1  0  0  0  0
 17 26  1  0  0  0  0
 18 27  1  0  0  0  0
 19 28  1  0  0  0  0
 20 29  1  0  0  0  0
 21 25  1  0  0  0  0
 21 28  1  0  0  0  0
 21 30  2  0  0  0  0
 22 26  1  0  0  0  0
 22 29  1  0  0  0  0
 22 31  2  0  0  0  0
 23 25  1  0  0  0  0
 24 26  1  1  0  0  0
  1 32  1  0  0  0  0
  2 33  1  0  0  0  0
  3 34  1  0  0  0  0
  4 35  1  0  0  0  0
  5 36  1  0  0  0  0
  6 37  1  0  0  0  0
  7 38  1  0  0  0  0
  8 39  1  0  0  0  0
  9 40  1  0  0  0  0
 10 41  1  0  0  0  0
 11 42  1  0  0  0  0
 12 43  1  0  0  0  0
 13 44  1  0  0  0  0
 14 45  1  0  0  0  0
 23 46  1  0  0  0  0
 23 47  1  0  0  0  0
 23 48  1  0  0  0  0
 24 49  1  0  0  0  0
 24 50  1  0  0  0  0
 25 51  1  0  0  0  0
 25 52  1  0  0  0  0
 26 53  1  0  0  0  0
 27 54  1  0  0  0  0
 28 55  1  0  0  0  0
 29 56  1  0  0  0  0
M  END
> <clash_score>
0

> <docking_score>
-6.877199172973633

> <overlap_score>
0.9701080918312073

$$$$
BENZO_282_1
  -OEChem-08222022463D

 54 57  0     1  0  0  0  0  0999 V2000
    4.2460    1.7520   20.8250 C   0  0  0  0  0  0  0  0  0  0  0  0
    3.8860    2.1050   19.5250 C   0  0  0  0  0  0  0  0  0  0  0  0
   13.8166    0.0398   21.0674 C   0  0  0  0  0  0  0  0  0  0  0  0
    5.3890    1.0010   21.0690 C   0  0  0  0  0  0  0  0  0  0  0  0
   12.5963    0.5519   21.5081 C   0  0  0  0  0  0  0  0  0  0  0  0
    9.5890   -2.4950   23.2210 C   0  0  0  0  0  0  0  0  0  0  0  0
    8.2550   -1.0010   24.5520 C   0  0  0  0  0  0  0  0  0  0  0  0
    4.6610    1.7170   18.4380 C   0  0  0  0  0  0  0  0  0  0  0  0
    9.1890   -3.5540   24.0140 C   0  0  0  0  0  0  0  0  0  0  0  0
    7.8700   -2.0610   25.3550 C   0  0  0  0  0  0  0  0  0  0  0  0
   14.4843   -0.9216   21.8261 C   0  0  0  0  0  0  0  0  0  0  0  0
   12.7115   -0.8586   23.4663 C   0  0  0  0  0  0  0  0  0  0  0  0
    7.5840   -0.2700   18.5160 C   0  0  0  0  0  0  0  0  0  0  0  0
    6.1460    0.6070   19.9750 C   0  0  0  0  0  0  0  0  0  0  0  0
    9.1280   -1.2090   23.4870 C   0  0  0  0  0  0  0  0  0  0  0  0
   12.0437    0.1027   22.7075 C   0  0  0  0  0  0  0  0  0  0  0  0
    5.7970    0.9500   18.6730 C   0  0  0  0  0  0  0  0  0  0  0  0
    8.3450   -3.3440   25.0980 C   0  0  0  0  0  0  0  0  0  0  0  0
    7.2710   -0.1460   19.8310 C   0  0  0  0  0  0  0  0  0  0  0  0
   13.9318   -1.3708   23.0255 C   0  0  0  0  0  0  0  0  0  0  0  0
    9.0430    0.2380   21.4940 C   0  0  0  0  0  0  0  0  0  0  0  0
    7.2615   -5.5563   25.3804 C   0  0  0  0  0  0  0  0  0  0  0  0
    8.3045   -4.4045   27.3385 C   0  0  0  0  0  0  0  0  0  0  0  0
   10.7220    0.6590   23.1850 C   0  0  0  0  0  0  0  0  0  0  0  0
    9.5820   -0.1080   22.7000 C   0  0  1  0  0  0  0  0  0  0  0  0
    6.7100    0.3850   17.8100 N   0  0  0  0  0  0  0  0  0  0  0  0
    8.0950   -0.7700   20.8440 N   0  0  0  0  0  0  0  0  0  0  0  0
    7.9717   -4.4175   25.9277 N   0  0  0  0  0  0  0  0  0  0  0  0
    9.2950    1.3000   20.9480 O   0  0  0  0  0  0  0  0  0  0  0  0
   14.7567   -2.5560   23.9617 Cl  0  0  0  0  0  0  0  0  0  0  0  0
    3.6208    2.0704   21.6579 H   0  0  0  0  0  0  0  0  0  0  0  0
    2.9857    2.6926   19.3615 H   0  0  0  0  0  0  0  0  0  0  0  0
   14.2465    0.3899   20.1334 H   0  0  0  0  0  0  0  0  0  0  0  0
    5.6664    0.7407   22.0807 H   0  0  0  0  0  0  0  0  0  0  0  0
   12.0830    1.3008   20.9105 H   0  0  0  0  0  0  0  0  0  0  0  0
   10.2684   -2.6719   22.3867 H   0  0  0  0  0  0  0  0  0  0  0  0
    7.8717   -0.0016   24.7596 H   0  0  0  0  0  0  0  0  0  0  0  0
    4.3794    2.0106   17.4221 H   0  0  0  0  0  0  0  0  0  0  0  0
    9.5443   -4.5616   23.7817 H   0  0  0  0  0  0  0  0  0  0  0  0
    7.1921   -1.8821   26.1908 H   0  0  0  0  0  0  0  0  0  0  0  0
   15.4348   -1.3117   21.4705 H   0  0  0  0  0  0  0  0  0  0  0  0
   12.2763   -1.2059   24.4005 H   0  0  0  0  0  0  0  0  0  0  0  0
    8.4172   -0.8135   18.0384 H   0  0  0  0  0  0  0  0  0  0  0  0
    7.0607   -6.2833   26.1812 H   0  0  0  0  0  0  0  0  0  0  0  0
    6.3096   -5.2194   24.9441 H   0  0  0  0  0  0  0  0  0  0  0  0
    7.8750   -6.0305   24.6002 H   0  0  0  0  0  0  0  0  0  0  0  0
    7.9298   -5.3236   27.8126 H   0  0  0  0  0  0  0  0  0  0  0  0
    9.3968   -4.3501   27.4569 H   0  0  0  0  0  0  0  0  0  0  0  0
    7.8398   -3.5297   27.8166 H   0  0  0  0  0  0  0  0  0  0  0  0
   10.7266    0.7141   24.2815 H   0  0  0  0  0  0  0  0  0  0  0  0
   10.6502    1.7003   22.8412 H   0  0  0  0  0  0  0  0  0  0  0  0
    8.7027    0.7972   23.4026 H   0  0  0  0  0  0  0  0  0  0  0  0
    6.6715    0.4865   16.8044 H   0  0  0  0  0  0  0  0  0  0  0  0
    8.0730   -1.6176   21.0751 H   0  0  0  0  0  0  0  0  0  0  0  0
  1  2  1  0  0  0  0
  1  4  2  0  0  0  0
  2  8  2  0  0  0  0
  3  5  2  0  0  0  0
  3 11  1  0  0  0  0
  4 14  1  0  0  0  0
  5 16  1  0  0  0  0
  6  9  2  0  0  0  0
  6 15  1  0  0  0  0
  7 10  1  0  0  0  0
  7 15  2  0  0  0  0
  8 17  1  0  0  0  0
  9 18  1  0  0  0  0
 10 18  2  0  0  0  0
 11 20  2  0  0  0  0
 12 16  2  0  0  0  0
 12 20  1  0  0  0  0
 13 19  2  0  0  0  0
 13 26  1  0  0  0  0
 14 17  2  0  0  0  0
 14 19  1  0  0  0  0
 15 25  1  0  0  0  0
 16 24  1  0  0  0  0
 17 26  1  0  0  0  0
 18 28  1  0  0  0  0
 19 27  1  0  0  0  0
 20 30  1  0  0  0  0
 21 25  1  0  0  0  0
 21 27  1  0  0  0  0
 21 29  2  0  0  0  0
 22 28  1  0  0  0  0
 23 28  1  0  0  0  0
 24 25  1  1  0  0  0
  1 31  1  0  0  0  0
  2 32  1  0  0  0  0
  3 33  1  0  0  0  0
  4 34  1  0  0  0  0
  5 35  1  0  0  0  0
  6 36  1  0  0  0  0
  7 37  1  0  0  0  0
  8 38  1  0  0  0  0
  9 39  1  0  0  0  0
 10 40  1  0  0  0  0
 11 41  1  0  0  0  0
 12 42  1  0  0  0  0
 13 43  1  0  0  0  0
 22 44  1  0  0  0  0
 22 45  1  0  0  0  0
 22 46  1  0  0  0  0
 23 47  1  0  0  0  0
 23 48  1  0  0  0  0
 23 49  1  0  0  0  0
 24 50  1  0  0  0  0
 24 51  1  0  0  0  0
 25 52  1  0  0  0  0
 26 53  1  0  0  0  0
 27 54  1  0  0  0  0
M  END
> <clash_score>
0

> <docking_score>
-6.04820442199707

> <overlap_score>
0.9217535257339478

$$$$
BENZO_285_2
  -OEChem-08222022463D

 56 59  0     1  0  0  0  0  0999 V2000
   14.0137   -1.8398   24.3768 C   0  0  0  0  0  0  0  0  0  0  0  0
    4.2460    1.7520   20.8250 C   0  0  0  0  0  0  0  0  0  0  0  0
   13.0361   -1.4844   25.3061 C   0  0  0  0  0  0  0  0  0  0  0  0
   13.9239   -1.3848   23.0613 C   0  0  0  0  0  0  0  0  0  0  0  0
    3.8860    2.1050   19.5250 C   0  0  0  0  0  0  0  0  0  0  0  0
    5.3890    1.0010   21.0690 C   0  0  0  0  0  0  0  0  0  0  0  0
   11.9686   -0.6740   24.9198 C   0  0  0  0  0  0  0  0  0  0  0  0
   12.8563   -0.5744   22.6750 C   0  0  0  0  0  0  0  0  0  0  0  0
    9.5890   -2.4950   23.2210 C   0  0  0  0  0  0  0  0  0  0  0  0
    8.2550   -1.0010   24.5520 C   0  0  0  0  0  0  0  0  0  0  0  0
    4.6610    1.7170   18.4380 C   0  0  0  0  0  0  0  0  0  0  0  0
    9.1890   -3.5540   24.0140 C   0  0  0  0  0  0  0  0  0  0  0  0
    7.8700   -2.0610   25.3550 C   0  0  0  0  0  0  0  0  0  0  0  0
    7.5840   -0.2700   18.5160 C   0  0  0  0  0  0  0  0  0  0  0  0
    6.1460    0.6070   19.9750 C   0  0  0  0  0  0  0  0  0  0  0  0
   11.8786   -0.2190   23.6043 C   0  0  0  0  0  0  0  0  0  0  0  0
    9.1280   -1.2090   23.4870 C   0  0  0  0  0  0  0  0  0  0  0  0
    5.7970    0.9500   18.6730 C   0  0  0  0  0  0  0  0  0  0  0  0
    8.3450   -3.3440   25.0980 C   0  0  0  0  0  0  0  0  0  0  0  0
    7.2710   -0.1460   19.8310 C   0  0  0  0  0  0  0  0  0  0  0  0
    7.6607   -4.3765   27.2876 C   0  0  0  0  0  0  0  0  0  0  0  0
    9.0430    0.2380   21.4940 C   0  0  0  0  0  0  0  0  0  0  0  0
    8.4364   -6.7651   27.6016 C   0  0  0  0  0  0  0  0  0  0  0  0
   10.7220    0.6590   23.1850 C   0  0  0  0  0  0  0  0  0  0  0  0
    7.3113   -5.7655   27.8009 C   0  0  0  0  0  0  0  0  0  0  0  0
    9.5820   -0.1080   22.7000 C   0  0  2  0  0  0  0  0  0  0  0  0
    6.7100    0.3850   17.8100 N   0  0  0  0  0  0  0  0  0  0  0  0
    7.9771   -4.4057   25.9197 N   0  0  0  0  0  0  0  0  0  0  0  0
    8.0950   -0.7700   20.8440 N   0  0  0  0  0  0  0  0  0  0  0  0
    7.6510   -3.3915   28.0184 O   0  0  0  0  0  0  0  0  0  0  0  0
    9.2950    1.3000   20.9480 O   0  0  0  0  0  0  0  0  0  0  0  0
   14.8456   -2.4698   24.6781 H   0  0  0  0  0  0  0  0  0  0  0  0
    3.6208    2.0704   21.6579 H   0  0  0  0  0  0  0  0  0  0  0  0
   13.1065   -1.8377   26.3307 H   0  0  0  0  0  0  0  0  0  0  0  0
   14.6854   -1.6605   22.3378 H   0  0  0  0  0  0  0  0  0  0  0  0
    2.9857    2.6926   19.3615 H   0  0  0  0  0  0  0  0  0  0  0  0
    5.6664    0.7407   22.0807 H   0  0  0  0  0  0  0  0  0  0  0  0
   11.2114   -0.4022   25.6506 H   0  0  0  0  0  0  0  0  0  0  0  0
   12.7944   -0.2247   21.6479 H   0  0  0  0  0  0  0  0  0  0  0  0
   10.2695   -2.6718   22.3873 H   0  0  0  0  0  0  0  0  0  0  0  0
    7.8712   -0.0014   24.7587 H   0  0  0  0  0  0  0  0  0  0  0  0
    4.3794    2.0106   17.4221 H   0  0  0  0  0  0  0  0  0  0  0  0
    9.5431   -4.5618   23.7801 H   0  0  0  0  0  0  0  0  0  0  0  0
    7.1923   -1.8823   26.1912 H   0  0  0  0  0  0  0  0  0  0  0  0
    8.4172   -0.8135   18.0384 H   0  0  0  0  0  0  0  0  0  0  0  0
    8.6959   -6.8591   26.5420 H   0  0  0  0  0  0  0  0  0  0  0  0
    8.1391   -7.7519   27.9697 H   0  0  0  0  0  0  0  0  0  0  0  0
    9.3373   -6.4558   28.1416 H   0  0  0  0  0  0  0  0  0  0  0  0
   10.4369    1.3080   24.0233 H   0  0  0  0  0  0  0  0  0  0  0  0
   11.0815    1.3384   22.3997 H   0  0  0  0  0  0  0  0  0  0  0  0
    7.0728   -5.6917   28.8682 H   0  0  0  0  0  0  0  0  0  0  0  0
    6.4147   -6.1147   27.2759 H   0  0  0  0  0  0  0  0  0  0  0  0
   10.5413   -0.9955   22.0233 H   0  0  0  0  0  0  0  0  0  0  0  0
    6.6715    0.4865   16.8044 H   0  0  0  0  0  0  0  0  0  0  0  0
    7.9296   -5.3298   25.4749 H   0  0  0  0  0  0  0  0  0  0  0  0
    8.0730   -1.6176   21.0751 H   0  0  0  0  0  0  0  0  0  0  0  0
  1  3  1  0  0  0  0
  1  4  2  0  0  0  0
  2  5  1  0  0  0  0
  2  6  2  0  0  0  0
  3  7  2  0  0  0  0
  4  8  1  0  0  0  0
  5 11  2  0  0  0  0
  6 15  1  0  0  0  0
  7 16  1  0  0  0  0
  8 16  2  0  0  0  0
  9 12  2  0  0  0  0
  9 17  1  0  0  0  0
 10 13  1  0  0  0  0
 10 17  2  0  0  0  0
 11 18  1  0  0  0  0
 12 19  1  0  0  0  0
 13 19  2  0  0  0  0
 14 20  2  0  0  0  0
 14 27  1  0  0  0  0
 15 18  2  0  0  0  0
 15 20  1  0  0  0  0
 16 24  1  0  0  0  0
 17 26  1  0  0  0  0
 18 27  1  0  0  0  0
 19 28  1  0  0  0  0
 20 29  1  0  0  0  0
 21 25  1  0  0  0  0
 21 28  1  0  0  0  0
 21 30  2  0  0  0  0
 22 26  1  0  0  0  0
 22 29  1  0  0  0  0
 22 31  2  0  0  0  0
 23 25  1  0  0  0  0
 24 26  1  6  0  0  0
  1 32  1  0  0  0  0
  2 33  1  0  0  0  0
  3 34  1  0  0  0  0
  4 35  1  0  0  0  0
  5 36  1  0  0  0  0
  6 37  1  0  0  0  0
  7 38  1  0  0  0  0
  8 39  1  0  0  0  0
  9 40  1  0  0  0  0
 10 41  1  0  0  0  0
 11 42  1  0  0  0  0
 12 43  1  0  0  0  0
 13 44  1  0  0  0  0
 14 45  1  0  0  0  0
 23 46  1  0  0  0  0
 23 47  1  0  0  0  0
 23 48  1  0  0  0  0
 24 49  1  0  0  0  0
 24 50  1  0  0  0  0
 25 51  1  0  0  0  0
 25 52  1  0  0  0  0
 26 53  1  0  0  0  0
 27 54  1  0  0  0  0
 28 55  1  0  0  0  0
 29 56  1  0  0  0  0
M  END
> <clash_score>
0

> <docking_score>
-7.217415809631348

> <overlap_score>
0.9671779870986938

$$$$
BENZO_282_2
  -OEChem-08222022463D

 54 57  0     1  0  0  0  0  0999 V2000
    4.2460    1.7520   20.8250 C   0  0  0  0  0  0  0  0  0  0  0  0
    3.8860    2.1050   19.5250 C   0  0  0  0  0  0  0  0  0  0  0  0
   13.0334   -1.4852   25.3072 C   0  0  0  0  0  0  0  0  0  0  0  0
    5.3890    1.0010   21.0690 C   0  0  0  0  0  0  0  0  0  0  0  0
   11.9669   -0.6739   24.9199 C   0  0  0  0  0  0  0  0  0  0  0  0
    9.5890   -2.4950   23.2210 C   0  0  0  0  0  0  0  0  0  0  0  0
    8.2550   -1.0010   24.5520 C   0  0  0  0  0  0  0  0  0  0  0  0
    4.6610    1.7170   18.4380 C   0  0  0  0  0  0  0  0  0  0  0  0
    9.1890   -3.5540   24.0140 C   0  0  0  0  0  0  0  0  0  0  0  0
    7.8700   -2.0610   25.3550 C   0  0  0  0  0  0  0  0  0  0  0  0
   14.0118   -1.8413   24.3790 C   0  0  0  0  0  0  0  0  0  0  0  0
   12.8570   -0.5751   22.6760 C   0  0  0  0  0  0  0  0  0  0  0  0
    7.5840   -0.2700   18.5160 C   0  0  0  0  0  0  0  0  0  0  0  0
    6.1460    0.6070   19.9750 C   0  0  0  0  0  0  0  0  0  0  0  0
    9.1280   -1.2090   23.4870 C   0  0  0  0  0  0  0  0  0  0  0  0
   11.8786   -0.2190   23.6043 C   0  0  0  0  0  0  0  0  0  0  0  0
    5.7970    0.9500   18.6730 C   0  0  0  0  0  0  0  0  0  0  0  0
    8.3450   -3.3440   25.0980 C   0  0  0  0  0  0  0  0  0  0  0  0
    7.2710   -0.1460   19.8310 C   0  0  0  0  0  0  0  0  0  0  0  0
   13.9235   -1.3863   23.0634 C   0  0  0  0  0  0  0  0  0  0  0  0
    9.0430    0.2380   21.4940 C   0  0  0  0  0  0  0  0  0  0  0  0
    7.2615   -5.5563   25.3804 C   0  0  0  0  0  0  0  0  0  0  0  0
    8.3045   -4.4045   27.3385 C   0  0  0  0  0  0  0  0  0  0  0  0
   10.7220    0.6590   23.1850 C   0  0  0  0  0  0  0  0  0  0  0  0
    9.5820   -0.1080   22.7000 C   0  0  2  0  0  0  0  0  0  0  0  0
    6.7100    0.3850   17.8100 N   0  0  0  0  0  0  0  0  0  0  0  0
    8.0950   -0.7700   20.8440 N   0  0  0  0  0  0  0  0  0  0  0  0
    7.9717   -4.4175   25.9277 N   0  0  0  0  0  0  0  0  0  0  0  0
    9.2950    1.3000   20.9480 O   0  0  0  0  0  0  0  0  0  0  0  0
   15.1303   -1.8270   21.9183 Cl  0  0  0  0  0  0  0  0  0  0  0  0
    3.6208    2.0704   21.6579 H   0  0  0  0  0  0  0  0  0  0  0  0
    2.9857    2.6926   19.3615 H   0  0  0  0  0  0  0  0  0  0  0  0
   13.1017   -1.8394   26.3318 H   0  0  0  0  0  0  0  0  0  0  0  0
    5.6664    0.7407   22.0807 H   0  0  0  0  0  0  0  0  0  0  0  0
   11.2091   -0.4015   25.6498 H   0  0  0  0  0  0  0  0  0  0  0  0
   10.2684   -2.6719   22.3867 H   0  0  0  0  0  0  0  0  0  0  0  0
    7.8717   -0.0016   24.7596 H   0  0  0  0  0  0  0  0  0  0  0  0
    4.3794    2.0106   17.4221 H   0  0  0  0  0  0  0  0  0  0  0  0
    9.5443   -4.5616   23.7817 H   0  0  0  0  0  0  0  0  0  0  0  0
    7.1921   -1.8821   26.1908 H   0  0  0  0  0  0  0  0  0  0  0  0
   14.8373   -2.4744   24.6949 H   0  0  0  0  0  0  0  0  0  0  0  0
   12.7839   -0.2174   21.6515 H   0  0  0  0  0  0  0  0  0  0  0  0
    8.4172   -0.8135   18.0384 H   0  0  0  0  0  0  0  0  0  0  0  0
    7.0607   -6.2833   26.1812 H   0  0  0  0  0  0  0  0  0  0  0  0
    6.3096   -5.2194   24.9441 H   0  0  0  0  0  0  0  0  0  0  0  0
    7.8750   -6.0305   24.6002 H   0  0  0  0  0  0  0  0  0  0  0  0
    7.9298   -5.3236   27.8126 H   0  0  0  0  0  0  0  0  0  0  0  0
    9.3968   -4.3501   27.4569 H   0  0  0  0  0  0  0  0  0  0  0  0
    7.8398   -3.5297   27.8166 H   0  0  0  0  0  0  0  0  0  0  0  0
   10.4369    1.3080   24.0233 H   0  0  0  0  0  0  0  0  0  0  0  0
   11.0815    1.3384   22.3997 H   0  0  0  0  0  0  0  0  0  0  0  0
   10.5413   -0.9955   22.0233 H   0  0  0  0  0  0  0  0  0  0  0  0
    6.6715    0.4865   16.8044 H   0  0  0  0  0  0  0  0  0  0  0  0
    8.0730   -1.6176   21.0751 H   0  0  0  0  0  0  0  0  0  0  0  0
  1  2  1  0  0  0  0
  1  4  2  0  0  0  0
  2  8  2  0  0  0  0
  3  5  2  0  0  0  0
  3 11  1  0  0  0  0
  4 14  1  0  0  0  0
  5 16  1  0  0  0  0
  6  9  2  0  0  0  0
  6 15  1  0  0  0  0
  7 10  1  0  0  0  0
  7 15  2  0  0  0  0
  8 17  1  0  0  0  0
  9 18  1  0  0  0  0
 10 18  2  0  0  0  0
 11 20  2  0  0  0  0
 12 16  2  0  0  0  0
 12 20  1  0  0  0  0
 13 19  2  0  0  0  0
 13 26  1  0  0  0  0
 14 17  2  0  0  0  0
 14 19  1  0  0  0  0
 15 25  1  0  0  0  0
 16 24  1  0  0  0  0
 17 26  1  0  0  0  0
 18 28  1  0  0  0  0
 19 27  1  0  0  0  0
 20 30  1  0  0  0  0
 21 25  1  0  0  0  0
 21 27  1  0  0  0  0
 21 29  2  0  0  0  0
 22 28  1  0  0  0  0
 23 28  1  0  0  0  0
 24 25  1  6  0  0  0
  1 31  1  0  0  0  0
  2 32  1  0  0  0  0
  3 33  1  0  0  0  0
  4 34  1  0  0  0  0
  5 35  1  0  0  0  0
  6 36  1  0  0  0  0
  7 37  1  0  0  0  0
  8 38  1  0  0  0  0
  9 39  1  0  0  0  0
 10 40  1  0  0  0  0
 11 41  1  0  0  0  0
 12 42  1  0  0  0  0
 13 43  1  0  0  0  0
 22 44  1  0  0  0  0
 22 45  1  0  0  0  0
 22 46  1  0  0  0  0
 23 47  1  0  0  0  0
 23 48  1  0  0  0  0
 23 49  1  0  0  0  0
 24 50  1  0  0  0  0
 24 51  1  0  0  0  0
 25 52  1  0  0  0  0
 26 53  1  0  0  0  0
 27 54  1  0  0  0  0
M  END
> <clash_score>
0

> <docking_score>
-6.5684967041015625

> <overlap_score>
0.9340415000915527

$$$$
BENZO_284_1
  -OEChem-08222022463D

 53 56  0     1  0  0  0  0  0999 V2000
    4.2460    1.7520   20.8250 C   0  0  0  0  0  0  0  0  0  0  0  0
    3.8860    2.1050   19.5250 C   0  0  0  0  0  0  0  0  0  0  0  0
    5.3890    1.0010   21.0690 C   0  0  0  0  0  0  0  0  0  0  0  0
    9.5890   -2.4950   23.2210 C   0  0  0  0  0  0  0  0  0  0  0  0
    8.2550   -1.0010   24.5520 C   0  0  0  0  0  0  0  0  0  0  0  0
    4.6610    1.7170   18.4380 C   0  0  0  0  0  0  0  0  0  0  0  0
    9.1890   -3.5540   24.0140 C   0  0  0  0  0  0  0  0  0  0  0  0
    7.8700   -2.0610   25.3550 C   0  0  0  0  0  0  0  0  0  0  0  0
   13.1058   -0.2791   23.5772 C   0  0  0  0  0  0  0  0  0  0  0  0
    7.5840   -0.2700   18.5160 C   0  0  0  0  0  0  0  0  0  0  0  0
   14.1974   -0.7534   22.8836 C   0  0  0  0  0  0  0  0  0  0  0  0
   12.3642   -0.0940   21.3822 C   0  0  0  0  0  0  0  0  0  0  0  0
    6.1460    0.6070   19.9750 C   0  0  0  0  0  0  0  0  0  0  0  0
    9.1280   -1.2090   23.4870 C   0  0  0  0  0  0  0  0  0  0  0  0
   12.0437    0.1027   22.7075 C   0  0  0  0  0  0  0  0  0  0  0  0
    5.7970    0.9500   18.6730 C   0  0  0  0  0  0  0  0  0  0  0  0
    8.3450   -3.3440   25.0980 C   0  0  0  0  0  0  0  0  0  0  0  0
    7.2710   -0.1460   19.8310 C   0  0  0  0  0  0  0  0  0  0  0  0
    8.2026   -4.5566   27.2975 C   0  0  0  0  0  0  0  0  0  0  0  0
    9.0430    0.2380   21.4940 C   0  0  0  0  0  0  0  0  0  0  0  0
    7.8889   -6.0882   29.2879 C   0  0  0  0  0  0  0  0  0  0  0  0
   10.7220    0.6590   23.1850 C   0  0  0  0  0  0  0  0  0  0  0  0
    7.6343   -5.8728   27.8068 C   0  0  0  0  0  0  0  0  0  0  0  0
    9.5820   -0.1080   22.7000 C   0  0  1  0  0  0  0  0  0  0  0  0
    6.7100    0.3850   17.8100 N   0  0  0  0  0  0  0  0  0  0  0  0
    7.9771   -4.4057   25.9197 N   0  0  0  0  0  0  0  0  0  0  0  0
    8.0950   -0.7700   20.8440 N   0  0  0  0  0  0  0  0  0  0  0  0
    8.7749   -3.7648   28.0392 O   0  0  0  0  0  0  0  0  0  0  0  0
    9.2950    1.3000   20.9480 O   0  0  0  0  0  0  0  0  0  0  0  0
   13.9398   -0.7369   21.1908 S   0  0  0  0  0  0  0  0  0  0  0  0
    3.6208    2.0704   21.6579 H   0  0  0  0  0  0  0  0  0  0  0  0
    2.9857    2.6926   19.3615 H   0  0  0  0  0  0  0  0  0  0  0  0
    5.6664    0.7407   22.0807 H   0  0  0  0  0  0  0  0  0  0  0  0
   10.2695   -2.6718   22.3873 H   0  0  0  0  0  0  0  0  0  0  0  0
    7.8712   -0.0014   24.7587 H   0  0  0  0  0  0  0  0  0  0  0  0
    4.3794    2.0106   17.4221 H   0  0  0  0  0  0  0  0  0  0  0  0
    9.5431   -4.5618   23.7801 H   0  0  0  0  0  0  0  0  0  0  0  0
    7.1923   -1.8823   26.1912 H   0  0  0  0  0  0  0  0  0  0  0  0
   13.0750   -0.2107   24.6573 H   0  0  0  0  0  0  0  0  0  0  0  0
    8.4172   -0.8135   18.0384 H   0  0  0  0  0  0  0  0  0  0  0  0
   15.1341   -1.1080   23.2899 H   0  0  0  0  0  0  0  0  0  0  0  0
   11.7521    0.1087   20.5143 H   0  0  0  0  0  0  0  0  0  0  0  0
    8.9616   -6.0836   29.5073 H   0  0  0  0  0  0  0  0  0  0  0  0
    7.4783   -7.0503   29.6092 H   0  0  0  0  0  0  0  0  0  0  0  0
    7.4206   -5.2995   29.8860 H   0  0  0  0  0  0  0  0  0  0  0  0
   10.7266    0.7141   24.2815 H   0  0  0  0  0  0  0  0  0  0  0  0
   10.6502    1.7003   22.8412 H   0  0  0  0  0  0  0  0  0  0  0  0
    6.5549   -5.8821   27.6165 H   0  0  0  0  0  0  0  0  0  0  0  0
    8.0869   -6.6912   27.2352 H   0  0  0  0  0  0  0  0  0  0  0  0
    8.7027    0.7972   23.4026 H   0  0  0  0  0  0  0  0  0  0  0  0
    6.6715    0.4865   16.8044 H   0  0  0  0  0  0  0  0  0  0  0  0
    7.4775   -5.1797   25.4665 H   0  0  0  0  0  0  0  0  0  0  0  0
    8.0730   -1.6176   21.0751 H   0  0  0  0  0  0  0  0  0  0  0  0
  1  2  1  0  0  0  0
  1  3  2  0  0  0  0
  2  6  2  0  0  0  0
  3 13  1  0  0  0  0
  4  7  2  0  0  0  0
  4 14  1  0  0  0  0
  5  8  1  0  0  0  0
  5 14  2  0  0  0  0
  6 16  1  0  0  0  0
  7 17  1  0  0  0  0
  8 17  2  0  0  0  0
  9 11  2  0  0  0  0
  9 15  1  0  0  0  0
 10 18  2  0  0  0  0
 10 25  1  0  0  0  0
 11 30  1  0  0  0  0
 12 15  2  0  0  0  0
 12 30  1  0  0  0  0
 13 16  2  0  0  0  0
 13 18  1  0  0  0  0
 14 24  1  0  0  0  0
 15 22  1  0  0  0  0
 16 25  1  0  0  0  0
 17 26  1  0  0  0  0
 18 27  1  0  0  0  0
 19 23  1  0  0  0  0
 19 26  1  0  0  0  0
 19 28  2  0  0  0  0
 20 24  1  0  0  0  0
 20 27  1  0  0  0  0
 20 29  2  0  0  0  0
 21 23  1  0  0  0  0
 22 24  1  1  0  0  0
  1 31  1  0  0  0  0
  2 32  1  0  0  0  0
  3 33  1  0  0  0  0
  4 34  1  0  0  0  0
  5 35  1  0  0  0  0
  6 36  1  0  0  0  0
  7 37  1  0  0  0  0
  8 38  1  0  0  0  0
  9 39  1  0  0  0  0
 10 40  1  0  0  0  0
 11 41  1  0  0  0  0
 12 42  1  0  0  0  0
 21 43  1  0  0  0  0
 21 44  1  0  0  0  0
 21 45  1  0  0  0  0
 22 46  1  0  0  0  0
 22 47  1  0  0  0  0
 23 48  1  0  0  0  0
 23 49  1  0  0  0  0
 24 50  1  0  0  0  0
 25 51  1  0  0  0  0
 26 52  1  0  0  0  0
 27 53  1  0  0  0  0
M  END
> <clash_score>
0

> <docking_score>
-6.936349868774414

> <overlap_score>
0.9602660536766052

$$$$
BENZO_284_2
  -OEChem-08222022463D

 53 56  0     1  0  0  0  0  0999 V2000
    4.2460    1.7520   20.8250 C   0  0  0  0  0  0  0  0  0  0  0  0
    3.8860    2.1050   19.5250 C   0  0  0  0  0  0  0  0  0  0  0  0
    5.3890    1.0010   21.0690 C   0  0  0  0  0  0  0  0  0  0  0  0
    9.5890   -2.4950   23.2210 C   0  0  0  0  0  0  0  0  0  0  0  0
    8.2550   -1.0010   24.5520 C   0  0  0  0  0  0  0  0  0  0  0  0
    4.6610    1.7170   18.4380 C   0  0  0  0  0  0  0  0  0  0  0  0
    9.1890   -3.5540   24.0140 C   0  0  0  0  0  0  0  0  0  0  0  0
    7.8700   -2.0610   25.3550 C   0  0  0  0  0  0  0  0  0  0  0  0
   12.0393    0.1762   25.3640 C   0  0  0  0  0  0  0  0  0  0  0  0
    7.5840   -0.2700   18.5160 C   0  0  0  0  0  0  0  0  0  0  0  0
   12.9049   -0.7459   25.9099 C   0  0  0  0  0  0  0  0  0  0  0  0
   12.2520   -1.3383   23.6137 C   0  0  0  0  0  0  0  0  0  0  0  0
    6.1460    0.6070   19.9750 C   0  0  0  0  0  0  0  0  0  0  0  0
    9.1280   -1.2090   23.4870 C   0  0  0  0  0  0  0  0  0  0  0  0
   11.6609   -0.1670   24.0339 C   0  0  0  0  0  0  0  0  0  0  0  0
    5.7970    0.9500   18.6730 C   0  0  0  0  0  0  0  0  0  0  0  0
    8.3450   -3.3440   25.0980 C   0  0  0  0  0  0  0  0  0  0  0  0
    7.2710   -0.1460   19.8310 C   0  0  0  0  0  0  0  0  0  0  0  0
    7.1421   -4.3818   27.0485 C   0  0  0  0  0  0  0  0  0  0  0  0
    9.0430    0.2380   21.4940 C   0  0  0  0  0  0  0  0  0  0  0  0
    8.0791   -6.0697   28.6852 C   0  0  0  0  0  0  0  0  0  0  0  0
   10.7220    0.6590   23.1850 C   0  0  0  0  0  0  0  0  0  0  0  0
    7.0021   -5.7686   27.6584 C   0  0  0  0  0  0  0  0  0  0  0  0
    9.5820   -0.1080   22.7000 C   0  0  2  0  0  0  0  0  0  0  0  0
    6.7100    0.3850   17.8100 N   0  0  0  0  0  0  0  0  0  0  0  0
    7.9771   -4.4057   25.9197 N   0  0  0  0  0  0  0  0  0  0  0  0
    8.0950   -0.7700   20.8440 N   0  0  0  0  0  0  0  0  0  0  0  0
    6.5755   -3.4026   27.5224 O   0  0  0  0  0  0  0  0  0  0  0  0
    9.2950    1.3000   20.9480 O   0  0  0  0  0  0  0  0  0  0  0  0
   13.2582   -2.0191   24.8206 S   0  0  0  0  0  0  0  0  0  0  0  0
    3.6208    2.0704   21.6579 H   0  0  0  0  0  0  0  0  0  0  0  0
    2.9857    2.6926   19.3615 H   0  0  0  0  0  0  0  0  0  0  0  0
    5.6664    0.7407   22.0807 H   0  0  0  0  0  0  0  0  0  0  0  0
   10.2695   -2.6718   22.3873 H   0  0  0  0  0  0  0  0  0  0  0  0
    7.8712   -0.0014   24.7587 H   0  0  0  0  0  0  0  0  0  0  0  0
    4.3794    2.0106   17.4221 H   0  0  0  0  0  0  0  0  0  0  0  0
    9.5431   -4.5618   23.7801 H   0  0  0  0  0  0  0  0  0  0  0  0
    7.1923   -1.8823   26.1912 H   0  0  0  0  0  0  0  0  0  0  0  0
   11.6967    1.0541   25.8970 H   0  0  0  0  0  0  0  0  0  0  0  0
    8.4172   -0.8135   18.0384 H   0  0  0  0  0  0  0  0  0  0  0  0
   13.3474   -0.7325   26.8960 H   0  0  0  0  0  0  0  0  0  0  0  0
   12.1448   -1.8296   22.6565 H   0  0  0  0  0  0  0  0  0  0  0  0
    9.0771   -6.0029   28.2395 H   0  0  0  0  0  0  0  0  0  0  0  0
    7.9509   -7.0795   29.0870 H   0  0  0  0  0  0  0  0  0  0  0  0
    8.0360   -5.3616   29.5193 H   0  0  0  0  0  0  0  0  0  0  0  0
   10.3958    1.5383   23.7557 H   0  0  0  0  0  0  0  0  0  0  0  0
   11.2964    1.0584   22.3376 H   0  0  0  0  0  0  0  0  0  0  0  0
    6.0159   -5.8426   28.1309 H   0  0  0  0  0  0  0  0  0  0  0  0
    7.0487   -6.5094   26.8518 H   0  0  0  0  0  0  0  0  0  0  0  0
   10.5413   -0.9955   22.0233 H   0  0  0  0  0  0  0  0  0  0  0  0
    6.6715    0.4865   16.8044 H   0  0  0  0  0  0  0  0  0  0  0  0
    8.3622   -5.3253   25.6745 H   0  0  0  0  0  0  0  0  0  0  0  0
    8.0730   -1.6176   21.0751 H   0  0  0  0  0  0  0  0  0  0  0  0
  1  2  1  0  0  0  0
  1  3  2  0  0  0  0
  2  6  2  0  0  0  0
  3 13  1  0  0  0  0
  4  7  2  0  0  0  0
  4 14  1  0  0  0  0
  5  8  1  0  0  0  0
  5 14  2  0  0  0  0
  6 16  1  0  0  0  0
  7 17  1  0  0  0  0
  8 17  2  0  0  0  0
  9 11  2  0  0  0  0
  9 15  1  0  0  0  0
 10 18  2  0  0  0  0
 10 25  1  0  0  0  0
 11 30  1  0  0  0  0
 12 15  2  0  0  0  0
 12 30  1  0  0  0  0
 13 16  2  0  0  0  0
 13 18  1  0  0  0  0
 14 24  1  0  0  0  0
 15 22  1  0  0  0  0
 16 25  1  0  0  0  0
 17 26  1  0  0  0  0
 18 27  1  0  0  0  0
 19 23  1  0  0  0  0
 19 26  1  0  0  0  0
 19 28  2  0  0  0  0
 20 24  1  0  0  0  0
 20 27  1  0  0  0  0
 20 29  2  0  0  0  0
 21 23  1  0  0  0  0
 22 24  1  6  0  0  0
  1 31  1  0  0  0  0
  2 32  1  0  0  0  0
  3 33  1  0  0  0  0
  4 34  1  0  0  0  0
  5 35  1  0  0  0  0
  6 36  1  0  0  0  0
  7 37  1  0  0  0  0
  8 38  1  0  0  0  0
  9 39  1  0  0  0  0
 10 40  1  0  0  0  0
 11 41  1  0  0  0  0
 12 42  1  0  0  0  0
 21 43  1  0  0  0  0
 21 44  1  0  0  0  0
 21 45  1  0  0  0  0
 22 46  1  0  0  0  0
 22 47  1  0  0  0  0
 23 48  1  0  0  0  0
 23 49  1  0  0  0  0
 24 50  1  0  0  0  0
 25 51  1  0  0  0  0
 26 52  1  0  0  0  0
 27 53  1  0  0  0  0
M  END
> <clash_score>
0

> <docking_score>
-4.7254815101623535

> <overlap_score>
0.8939766883850098

$$$$
BENZO_289_1
  -OEChem-08222022463D

 61 65  0     1  0  0  0  0  0999 V2000
   14.0446   -1.7964   24.3813 C   0  0  0  0  0  0  0  0  0  0  0  0
    4.2460    1.7520   20.8250 C   0  0  0  0  0  0  0  0  0  0  0  0
   13.0634   -1.4503   25.3102 C   0  0  0  0  0  0  0  0  0  0  0  0
   13.9484   -1.3461   23.0646 C   0  0  0  0  0  0  0  0  0  0  0  0
    3.8860    2.1050   19.5250 C   0  0  0  0  0  0  0  0  0  0  0  0
    5.3890    1.0010   21.0690 C   0  0  0  0  0  0  0  0  0  0  0  0
   11.9858   -0.6540   24.9225 C   0  0  0  0  0  0  0  0  0  0  0  0
   12.8708   -0.5498   22.6769 C   0  0  0  0  0  0  0  0  0  0  0  0
    9.5890   -2.4950   23.2210 C   0  0  0  0  0  0  0  0  0  0  0  0
    8.2550   -1.0010   24.5520 C   0  0  0  0  0  0  0  0  0  0  0  0
    4.6610    1.7170   18.4380 C   0  0  0  0  0  0  0  0  0  0  0  0
    9.1890   -3.5540   24.0140 C   0  0  0  0  0  0  0  0  0  0  0  0
    7.8700   -2.0610   25.3550 C   0  0  0  0  0  0  0  0  0  0  0  0
    7.5840   -0.2700   18.5160 C   0  0  0  0  0  0  0  0  0  0  0  0
    6.1460    0.6070   19.9750 C   0  0  0  0  0  0  0  0  0  0  0  0
   11.8895   -0.2037   23.6058 C   0  0  0  0  0  0  0  0  0  0  0  0
    9.1280   -1.2090   23.4870 C   0  0  0  0  0  0  0  0  0  0  0  0
    5.7970    0.9500   18.6730 C   0  0  0  0  0  0  0  0  0  0  0  0
    8.3450   -3.3440   25.0980 C   0  0  0  0  0  0  0  0  0  0  0  0
    7.2710   -0.1460   19.8310 C   0  0  0  0  0  0  0  0  0  0  0  0
    9.0430    0.2380   21.4940 C   0  0  0  0  0  0  0  0  0  0  0  0
    7.9496   -4.9537   28.7345 C   0  0  0  0  0  0  0  0  0  0  0  0
    6.8919   -4.0607   28.0818 C   0  0  0  0  0  0  0  0  0  0  0  0
    9.2470   -4.9693   27.9230 C   0  0  0  0  0  0  0  0  0  0  0  0
    6.6889   -4.4385   26.6147 C   0  0  0  0  0  0  0  0  0  0  0  0
    8.9871   -5.3207   26.4549 C   0  0  0  0  0  0  0  0  0  0  0  0
   10.7220    0.6590   23.1850 C   0  0  0  0  0  0  0  0  0  0  0  0
    9.5820   -0.1080   22.7000 C   0  0  1  0  0  0  0  0  0  0  0  0
    6.7100    0.3850   17.8100 N   0  0  0  0  0  0  0  0  0  0  0  0
    7.9769   -4.4027   25.9163 N   0  0  0  0  0  0  0  0  0  0  0  0
    8.0950   -0.7700   20.8440 N   0  0  0  0  0  0  0  0  0  0  0  0
    9.2950    1.3000   20.9480 O   0  0  0  0  0  0  0  0  0  0  0  0
   14.8843   -2.4154   24.6836 H   0  0  0  0  0  0  0  0  0  0  0  0
    3.6208    2.0704   21.6579 H   0  0  0  0  0  0  0  0  0  0  0  0
   13.1388   -1.8000   26.3358 H   0  0  0  0  0  0  0  0  0  0  0  0
   14.7127   -1.6145   22.3413 H   0  0  0  0  0  0  0  0  0  0  0  0
    2.9857    2.6926   19.3615 H   0  0  0  0  0  0  0  0  0  0  0  0
    5.6664    0.7407   22.0807 H   0  0  0  0  0  0  0  0  0  0  0  0
   11.2259   -0.3895   25.6531 H   0  0  0  0  0  0  0  0  0  0  0  0
   12.8039   -0.2037   21.6488 H   0  0  0  0  0  0  0  0  0  0  0  0
   10.2684   -2.6719   22.3867 H   0  0  0  0  0  0  0  0  0  0  0  0
    7.8717   -0.0016   24.7596 H   0  0  0  0  0  0  0  0  0  0  0  0
    4.3794    2.0106   17.4221 H   0  0  0  0  0  0  0  0  0  0  0  0
    9.5443   -4.5616   23.7817 H   0  0  0  0  0  0  0  0  0  0  0  0
    7.1921   -1.8821   26.1908 H   0  0  0  0  0  0  0  0  0  0  0  0
    8.4172   -0.8135   18.0384 H   0  0  0  0  0  0  0  0  0  0  0  0
    8.1558   -4.5961   29.7550 H   0  0  0  0  0  0  0  0  0  0  0  0
    7.5611   -5.9778   28.8324 H   0  0  0  0  0  0  0  0  0  0  0  0
    5.9459   -4.1594   28.6209 H   0  0  0  0  0  0  0  0  0  0  0  0
    7.2011   -3.0160   28.1536 H   0  0  0  0  0  0  0  0  0  0  0  0
    9.7290   -3.9880   27.9846 H   0  0  0  0  0  0  0  0  0  0  0  0
    9.9437   -5.6964   28.3562 H   0  0  0  0  0  0  0  0  0  0  0  0
    6.2543   -5.4402   26.5659 H   0  0  0  0  0  0  0  0  0  0  0  0
    5.9909   -3.7397   26.1451 H   0  0  0  0  0  0  0  0  0  0  0  0
    9.9128   -5.2367   25.8843 H   0  0  0  0  0  0  0  0  0  0  0  0
    8.6365   -6.3517   26.3987 H   0  0  0  0  0  0  0  0  0  0  0  0
   10.4315    1.3089   24.0208 H   0  0  0  0  0  0  0  0  0  0  0  0
   11.0719    1.3385   22.3955 H   0  0  0  0  0  0  0  0  0  0  0  0
   10.5438   -0.9939   22.0202 H   0  0  0  0  0  0  0  0  0  0  0  0
    6.6715    0.4865   16.8044 H   0  0  0  0  0  0  0  0  0  0  0  0
    8.0917   -1.6083   21.0911 H   0  0  0  0  0  0  0  0  0  0  0  0
  1  3  1  0  0  0  0
  1  4  2  0  0  0  0
  2  5  1  0  0  0  0
  2  6  2  0  0  0  0
  3  7  2  0  0  0  0
  4  8  1  0  0  0  0
  5 11  2  0  0  0  0
  6 15  1  0  0  0  0
  7 16  1  0  0  0  0
  8 16  2  0  0  0  0
  9 12  2  0  0  0  0
  9 17  1  0  0  0  0
 10 13  1  0  0  0  0
 10 17  2  0  0  0  0
 11 18  1  0  0  0  0
 12 19  1  0  0  0  0
 13 19  2  0  0  0  0
 14 20  2  0  0  0  0
 14 29  1  0  0  0  0
 15 18  2  0  0  0  0
 15 20  1  0  0  0  0
 16 27  1  0  0  0  0
 17 28  1  0  0  0  0
 18 29  1  0  0  0  0
 19 30  1  0  0  0  0
 20 31  1  0  0  0  0
 21 28  1  1  0  0  0
 21 31  1  0  0  0  0
 21 32  2  0  0  0  0
 22 23  1  0  0  0  0
 22 24  1  0  0  0  0
 23 25  1  0  0  0  0
 24 26  1  0  0  0  0
 25 30  1  0  0  0  0
 26 30  1  0  0  0  0
 27 28  1  0  0  0  0
  1 33  1  0  0  0  0
  2 34  1  0  0  0  0
  3 35  1  0  0  0  0
  4 36  1  0  0  0  0
  5 37  1  0  0  0  0
  6 38  1  0  0  0  0
  7 39  1  0  0  0  0
  8 40  1  0  0  0  0
  9 41  1  0  0  0  0
 10 42  1  0  0  0  0
 11 43  1  0  0  0  0
 12 44  1  0  0  0  0
 13 45  1  0  0  0  0
 14 46  1  0  0  0  0
 22 47  1  0  0  0  0
 22 48  1  0  0  0  0
 23 49  1  0  0  0  0
 23 50  1  0  0  0  0
 24 51  1  0  0  0  0
 24 52  1  0  0  0  0
 25 53  1  0  0  0  0
 25 54  1  0  0  0  0
 26 55  1  0  0  0  0
 26 56  1  0  0  0  0
 27 57  1  0  0  0  0
 27 58  1  0  0  0  0
 28 59  1  0  0  0  0
 29 60  1  0  0  0  0
 31 61  1  0  0  0  0
M  END
> <clash_score>
0

> <docking_score>
-7.995992660522461

> <overlap_score>
0.9715715050697327

$$$$
BENZO_289_2
  -OEChem-08222022463D

 61 65  0     1  0  0  0  0  0999 V2000
   14.5084   -0.8935   21.8609 C   0  0  0  0  0  0  0  0  0  0  0  0
    4.2460    1.7520   20.8250 C   0  0  0  0  0  0  0  0  0  0  0  0
   14.4162   -0.2303   23.0845 C   0  0  0  0  0  0  0  0  0  0  0  0
   13.3727   -1.0531   21.0668 C   0  0  0  0  0  0  0  0  0  0  0  0
    3.8860    2.1050   19.5250 C   0  0  0  0  0  0  0  0  0  0  0  0
    5.3890    1.0010   21.0690 C   0  0  0  0  0  0  0  0  0  0  0  0
   13.1884    0.2733   23.5141 C   0  0  0  0  0  0  0  0  0  0  0  0
   12.1449   -0.5495   21.4964 C   0  0  0  0  0  0  0  0  0  0  0  0
    9.5890   -2.4950   23.2210 C   0  0  0  0  0  0  0  0  0  0  0  0
    8.2550   -1.0010   24.5520 C   0  0  0  0  0  0  0  0  0  0  0  0
    4.6610    1.7170   18.4380 C   0  0  0  0  0  0  0  0  0  0  0  0
    9.1890   -3.5540   24.0140 C   0  0  0  0  0  0  0  0  0  0  0  0
    7.8700   -2.0610   25.3550 C   0  0  0  0  0  0  0  0  0  0  0  0
    7.5840   -0.2700   18.5160 C   0  0  0  0  0  0  0  0  0  0  0  0
    6.1460    0.6070   19.9750 C   0  0  0  0  0  0  0  0  0  0  0  0
   12.0528    0.1138   22.7200 C   0  0  0  0  0  0  0  0  0  0  0  0
    9.1280   -1.2090   23.4870 C   0  0  0  0  0  0  0  0  0  0  0  0
    5.7970    0.9500   18.6730 C   0  0  0  0  0  0  0  0  0  0  0  0
    8.3450   -3.3440   25.0980 C   0  0  0  0  0  0  0  0  0  0  0  0
    7.2710   -0.1460   19.8310 C   0  0  0  0  0  0  0  0  0  0  0  0
    9.0430    0.2380   21.4940 C   0  0  0  0  0  0  0  0  0  0  0  0
    7.9496   -4.9537   28.7345 C   0  0  0  0  0  0  0  0  0  0  0  0
    6.8919   -4.0607   28.0818 C   0  0  0  0  0  0  0  0  0  0  0  0
    9.2470   -4.9693   27.9230 C   0  0  0  0  0  0  0  0  0  0  0  0
    6.6889   -4.4385   26.6147 C   0  0  0  0  0  0  0  0  0  0  0  0
    8.9871   -5.3207   26.4549 C   0  0  0  0  0  0  0  0  0  0  0  0
   10.7220    0.6590   23.1850 C   0  0  0  0  0  0  0  0  0  0  0  0
    9.5820   -0.1080   22.7000 C   0  0  2  0  0  0  0  0  0  0  0  0
    6.7100    0.3850   17.8100 N   0  0  0  0  0  0  0  0  0  0  0  0
    7.9769   -4.4027   25.9163 N   0  0  0  0  0  0  0  0  0  0  0  0
    8.0950   -0.7700   20.8440 N   0  0  0  0  0  0  0  0  0  0  0  0
    9.2950    1.3000   20.9480 O   0  0  0  0  0  0  0  0  0  0  0  0
   15.4647   -1.2844   21.5259 H   0  0  0  0  0  0  0  0  0  0  0  0
    3.6208    2.0704   21.6579 H   0  0  0  0  0  0  0  0  0  0  0  0
   15.3006   -0.1050   23.7024 H   0  0  0  0  0  0  0  0  0  0  0  0
   13.4443   -1.5684   20.1136 H   0  0  0  0  0  0  0  0  0  0  0  0
    2.9857    2.6926   19.3615 H   0  0  0  0  0  0  0  0  0  0  0  0
    5.6664    0.7407   22.0807 H   0  0  0  0  0  0  0  0  0  0  0  0
   13.1260    0.7885   24.4690 H   0  0  0  0  0  0  0  0  0  0  0  0
   11.2654   -0.6786   20.8711 H   0  0  0  0  0  0  0  0  0  0  0  0
   10.2684   -2.6719   22.3867 H   0  0  0  0  0  0  0  0  0  0  0  0
    7.8717   -0.0016   24.7596 H   0  0  0  0  0  0  0  0  0  0  0  0
    4.3794    2.0106   17.4221 H   0  0  0  0  0  0  0  0  0  0  0  0
    9.5443   -4.5616   23.7817 H   0  0  0  0  0  0  0  0  0  0  0  0
    7.1921   -1.8821   26.1908 H   0  0  0  0  0  0  0  0  0  0  0  0
    8.4172   -0.8135   18.0384 H   0  0  0  0  0  0  0  0  0  0  0  0
    8.1558   -4.5961   29.7550 H   0  0  0  0  0  0  0  0  0  0  0  0
    7.5611   -5.9778   28.8324 H   0  0  0  0  0  0  0  0  0  0  0  0
    5.9459   -4.1594   28.6209 H   0  0  0  0  0  0  0  0  0  0  0  0
    7.2011   -3.0160   28.1536 H   0  0  0  0  0  0  0  0  0  0  0  0
    9.7290   -3.9880   27.9846 H   0  0  0  0  0  0  0  0  0  0  0  0
    9.9437   -5.6964   28.3562 H   0  0  0  0  0  0  0  0  0  0  0  0
    6.2543   -5.4402   26.5659 H   0  0  0  0  0  0  0  0  0  0  0  0
    5.9909   -3.7397   26.1451 H   0  0  0  0  0  0  0  0  0  0  0  0
    9.9128   -5.2367   25.8843 H   0  0  0  0  0  0  0  0  0  0  0  0
    8.6365   -6.3517   26.3987 H   0  0  0  0  0  0  0  0  0  0  0  0
   10.7177    0.7189   24.2812 H   0  0  0  0  0  0  0  0  0  0  0  0
   10.6426    1.6980   22.8361 H   0  0  0  0  0  0  0  0  0  0  0  0
    8.7036    0.8022   23.4008 H   0  0  0  0  0  0  0  0  0  0  0  0
    6.6715    0.4865   16.8044 H   0  0  0  0  0  0  0  0  0  0  0  0
    8.0917   -1.6083   21.0911 H   0  0  0  0  0  0  0  0  0  0  0  0
  1  3  1  0  0  0  0
  1  4  2  0  0  0  0
  2  5  1  0  0  0  0
  2  6  2  0  0  0  0
  3  7  2  0  0  0  0
  4  8  1  0  0  0  0
  5 11  2  0  0  0  0
  6 15  1  0  0  0  0
  7 16  1  0  0  0  0
  8 16  2  0  0  0  0
  9 12  2  0  0  0  0
  9 17  1  0  0  0  0
 10 13  1  0  0  0  0
 10 17  2  0  0  0  0
 11 18  1  0  0  0  0
 12 19  1  0  0  0  0
 13 19  2  0  0  0  0
 14 20  2  0  0  0  0
 14 29  1  0  0  0  0
 15 18  2  0  0  0  0
 15 20  1  0  0  0  0
 16 27  1  0  0  0  0
 17 28  1  0  0  0  0
 18 29  1  0  0  0  0
 19 30  1  0  0  0  0
 20 31  1  0  0  0  0
 21 28  1  6  0  0  0
 21 31  1  0  0  0  0
 21 32  2  0  0  0  0
 22 23  1  0  0  0  0
 22 24  1  0  0  0  0
 23 25  1  0  0  0  0
 24 26  1  0  0  0  0
 25 30  1  0  0  0  0
 26 30  1  0  0  0  0
 27 28  1  0  0  0  0
  1 33  1  0  0  0  0
  2 34  1  0  0  0  0
  3 35  1  0  0  0  0
  4 36  1  0  0  0  0
  5 37  1  0  0  0  0
  6 38  1  0  0  0  0
  7 39  1  0  0  0  0
  8 40  1  0  0  0  0
  9 41  1  0  0  0  0
 10 42  1  0  0  0  0
 11 43  1  0  0  0  0
 12 44  1  0  0  0  0
 13 45  1  0  0  0  0
 14 46  1  0  0  0  0
 22 47  1  0  0  0  0
 22 48  1  0  0  0  0
 23 49  1  0  0  0  0
 23 50  1  0  0  0  0
 24 51  1  0  0  0  0
 24 52  1  0  0  0  0
 25 53  1  0  0  0  0
 25 54  1  0  0  0  0
 26 55  1  0  0  0  0
 26 56  1  0  0  0  0
 27 57  1  0  0  0  0
 27 58  1  0  0  0  0
 28 59  1  0  0  0  0
 29 60  1  0  0  0  0
 31 61  1  0  0  0  0
M  END
> <clash_score>
0

> <docking_score>
-7.3727922439575195

> <overlap_score>
0.9501305818557739

$$$$
BENZO_288_2
  -OEChem-08222022463D

 58 62  0     1  0  0  0  0  0999 V2000
    4.2460    1.7520   20.8250 C   0  0  0  0  0  0  0  0  0  0  0  0
    3.8860    2.1050   19.5250 C   0  0  0  0  0  0  0  0  0  0  0  0
    5.3890    1.0010   21.0690 C   0  0  0  0  0  0  0  0  0  0  0  0
    9.5890   -2.4950   23.2210 C   0  0  0  0  0  0  0  0  0  0  0  0
    8.2550   -1.0010   24.5520 C   0  0  0  0  0  0  0  0  0  0  0  0
    4.6610    1.7170   18.4380 C   0  0  0  0  0  0  0  0  0  0  0  0
    9.1890   -3.5540   24.0140 C   0  0  0  0  0  0  0  0  0  0  0  0
    7.8700   -2.0610   25.3550 C   0  0  0  0  0  0  0  0  0  0  0  0
   13.1119   -0.2538   23.5994 C   0  0  0  0  0  0  0  0  0  0  0  0
    7.5840   -0.2700   18.5160 C   0  0  0  0  0  0  0  0  0  0  0  0
   14.2134   -0.7202   22.9163 C   0  0  0  0  0  0  0  0  0  0  0  0
   12.3853   -0.0855   21.3980 C   0  0  0  0  0  0  0  0  0  0  0  0
    6.1460    0.6070   19.9750 C   0  0  0  0  0  0  0  0  0  0  0  0
    9.1280   -1.2090   23.4870 C   0  0  0  0  0  0  0  0  0  0  0  0
   12.0528    0.1138   22.7200 C   0  0  0  0  0  0  0  0  0  0  0  0
    5.7970    0.9500   18.6730 C   0  0  0  0  0  0  0  0  0  0  0  0
    8.3450   -3.3440   25.0980 C   0  0  0  0  0  0  0  0  0  0  0  0
    7.2710   -0.1460   19.8310 C   0  0  0  0  0  0  0  0  0  0  0  0
    9.0430    0.2380   21.4940 C   0  0  0  0  0  0  0  0  0  0  0  0
    7.9496   -4.9537   28.7345 C   0  0  0  0  0  0  0  0  0  0  0  0
    6.8919   -4.0607   28.0818 C   0  0  0  0  0  0  0  0  0  0  0  0
    9.2470   -4.9693   27.9230 C   0  0  0  0  0  0  0  0  0  0  0  0
    6.6889   -4.4385   26.6147 C   0  0  0  0  0  0  0  0  0  0  0  0
    8.9871   -5.3207   26.4549 C   0  0  0  0  0  0  0  0  0  0  0  0
   10.7220    0.6590   23.1850 C   0  0  0  0  0  0  0  0  0  0  0  0
    9.5820   -0.1080   22.7000 C   0  0  2  0  0  0  0  0  0  0  0  0
    6.7100    0.3850   17.8100 N   0  0  0  0  0  0  0  0  0  0  0  0
    7.9769   -4.4027   25.9163 N   0  0  0  0  0  0  0  0  0  0  0  0
    8.0950   -0.7700   20.8440 N   0  0  0  0  0  0  0  0  0  0  0  0
    9.2950    1.3000   20.9480 O   0  0  0  0  0  0  0  0  0  0  0  0
   13.9685   -0.7136   21.2215 S   0  0  0  0  0  0  0  0  0  0  0  0
    3.6208    2.0704   21.6579 H   0  0  0  0  0  0  0  0  0  0  0  0
    2.9857    2.6926   19.3615 H   0  0  0  0  0  0  0  0  0  0  0  0
    5.6664    0.7407   22.0807 H   0  0  0  0  0  0  0  0  0  0  0  0
   10.2684   -2.6719   22.3867 H   0  0  0  0  0  0  0  0  0  0  0  0
    7.8717   -0.0016   24.7596 H   0  0  0  0  0  0  0  0  0  0  0  0
    4.3794    2.0106   17.4221 H   0  0  0  0  0  0  0  0  0  0  0  0
    9.5443   -4.5616   23.7817 H   0  0  0  0  0  0  0  0  0  0  0  0
    7.1921   -1.8821   26.1908 H   0  0  0  0  0  0  0  0  0  0  0  0
   13.0722   -0.1810   24.6790 H   0  0  0  0  0  0  0  0  0  0  0  0
    8.4172   -0.8135   18.0384 H   0  0  0  0  0  0  0  0  0  0  0  0
   15.1504   -1.0638   23.3312 H   0  0  0  0  0  0  0  0  0  0  0  0
   11.7779    0.1074   20.5246 H   0  0  0  0  0  0  0  0  0  0  0  0
    8.1558   -4.5961   29.7550 H   0  0  0  0  0  0  0  0  0  0  0  0
    7.5611   -5.9778   28.8324 H   0  0  0  0  0  0  0  0  0  0  0  0
    5.9459   -4.1594   28.6209 H   0  0  0  0  0  0  0  0  0  0  0  0
    7.2011   -3.0160   28.1536 H   0  0  0  0  0  0  0  0  0  0  0  0
    9.7290   -3.9880   27.9846 H   0  0  0  0  0  0  0  0  0  0  0  0
    9.9437   -5.6964   28.3562 H   0  0  0  0  0  0  0  0  0  0  0  0
    6.2543   -5.4402   26.5659 H   0  0  0  0  0  0  0  0  0  0  0  0
    5.9909   -3.7397   26.1451 H   0  0  0  0  0  0  0  0  0  0  0  0
    9.9128   -5.2367   25.8843 H   0  0  0  0  0  0  0  0  0  0  0  0
    8.6365   -6.3517   26.3987 H   0  0  0  0  0  0  0  0  0  0  0  0
   10.7177    0.7189   24.2812 H   0  0  0  0  0  0  0  0  0  0  0  0
   10.6426    1.6980   22.8361 H   0  0  0  0  0  0  0  0  0  0  0  0
    8.7036    0.8022   23.4008 H   0  0  0  0  0  0  0  0  0  0  0  0
    6.6715    0.4865   16.8044 H   0  0  0  0  0  0  0  0  0  0  0  0
    8.0917   -1.6083   21.0911 H   0  0  0  0  0  0  0  0  0  0  0  0
  1  2  1  0  0  0  0
  1  3  2  0  0  0  0
  2  6  2  0  0  0  0
  3 13  1  0  0  0  0
  4  7  2  0  0  0  0
  4 14  1  0  0  0  0
  5  8  1  0  0  0  0
  5 14  2  0  0  0  0
  6 16  1  0  0  0  0
  7 17  1  0  0  0  0
  8 17  2  0  0  0  0
  9 11  2  0  0  0  0
  9 15  1  0  0  0  0
 10 18  2  0  0  0  0
 10 27  1  0  0  0  0
 11 31  1  0  0  0  0
 12 15  2  0  0  0  0
 12 31  1  0  0  0  0
 13 16  2  0  0  0  0
 13 18  1  0  0  0  0
 14 26  1  0  0  0  0
 15 25  1  0  0  0  0
 16 27  1  0  0  0  0
 17 28  1  0  0  0  0
 18 29  1  0  0  0  0
 19 26  1  6  0  0  0
 19 29  1  0  0  0  0
 19 30  2  0  0  0  0
 20 21  1  0  0  0  0
 20 22  1  0  0  0  0
 21 23  1  0  0  0  0
 22 24  1  0  0  0  0
 23 28  1  0  0  0  0
 24 28  1  0  0  0  0
 25 26  1  0  0  0  0
  1 32  1  0  0  0  0
  2 33  1  0  0  0  0
  3 34  1  0  0  0  0
  4 35  1  0  0  0  0
  5 36  1  0  0  0  0
  6 37  1  0  0  0  0
  7 38  1  0  0  0  0
  8 39  1  0  0  0  0
  9 40  1  0  0  0  0
 10 41  1  0  0  0  0
 11 42  1  0  0  0  0
 12 43  1  0  0  0  0
 20 44  1  0  0  0  0
 20 45  1  0  0  0  0
 21 46  1  0  0  0  0
 21 47  1  0  0  0  0
 22 48  1  0  0  0  0
 22 49  1  0  0  0  0
 23 50  1  0  0  0  0
 23 51  1  0  0  0  0
 24 52  1  0  0  0  0
 24 53  1  0  0  0  0
 25 54  1  0  0  0  0
 25 55  1  0  0  0  0
 26 56  1  0  0  0  0
 27 57  1  0  0  0  0
 29 58  1  0  0  0  0
M  END
> <clash_score>
0

> <docking_score>
-7.15315055847168

> <overlap_score>
0.946659505367279

$$$$
BENZO_288_1
  -OEChem-08222022463D

 58 62  0     1  0  0  0  0  0999 V2000
    4.2460    1.7520   20.8250 C   0  0  0  0  0  0  0  0  0  0  0  0
    3.8860    2.1050   19.5250 C   0  0  0  0  0  0  0  0  0  0  0  0
    5.3890    1.0010   21.0690 C   0  0  0  0  0  0  0  0  0  0  0  0
    9.5890   -2.4950   23.2210 C   0  0  0  0  0  0  0  0  0  0  0  0
    8.2550   -1.0010   24.5520 C   0  0  0  0  0  0  0  0  0  0  0  0
    4.6610    1.7170   18.4380 C   0  0  0  0  0  0  0  0  0  0  0  0
    9.1890   -3.5540   24.0140 C   0  0  0  0  0  0  0  0  0  0  0  0
    7.8700   -2.0610   25.3550 C   0  0  0  0  0  0  0  0  0  0  0  0
   12.0564    0.2022   25.3592 C   0  0  0  0  0  0  0  0  0  0  0  0
    7.5840   -0.2700   18.5160 C   0  0  0  0  0  0  0  0  0  0  0  0
   12.9336   -0.7085   25.9059 C   0  0  0  0  0  0  0  0  0  0  0  0
   12.2727   -1.3216   23.6174 C   0  0  0  0  0  0  0  0  0  0  0  0
    6.1460    0.6070   19.9750 C   0  0  0  0  0  0  0  0  0  0  0  0
    9.1280   -1.2090   23.4870 C   0  0  0  0  0  0  0  0  0  0  0  0
   11.6734   -0.1530   24.0335 C   0  0  0  0  0  0  0  0  0  0  0  0
    5.7970    0.9500   18.6730 C   0  0  0  0  0  0  0  0  0  0  0  0
    8.3450   -3.3440   25.0980 C   0  0  0  0  0  0  0  0  0  0  0  0
    7.2710   -0.1460   19.8310 C   0  0  0  0  0  0  0  0  0  0  0  0
    9.0430    0.2380   21.4940 C   0  0  0  0  0  0  0  0  0  0  0  0
    7.9496   -4.9537   28.7345 C   0  0  0  0  0  0  0  0  0  0  0  0
    6.8919   -4.0607   28.0818 C   0  0  0  0  0  0  0  0  0  0  0  0
    9.2470   -4.9693   27.9230 C   0  0  0  0  0  0  0  0  0  0  0  0
    6.6889   -4.4385   26.6147 C   0  0  0  0  0  0  0  0  0  0  0  0
    8.9871   -5.3207   26.4549 C   0  0  0  0  0  0  0  0  0  0  0  0
   10.7220    0.6590   23.1850 C   0  0  0  0  0  0  0  0  0  0  0  0
    9.5820   -0.1080   22.7000 C   0  0  1  0  0  0  0  0  0  0  0  0
    6.7100    0.3850   17.8100 N   0  0  0  0  0  0  0  0  0  0  0  0
    7.9769   -4.4027   25.9163 N   0  0  0  0  0  0  0  0  0  0  0  0
    8.0950   -0.7700   20.8440 N   0  0  0  0  0  0  0  0  0  0  0  0
    9.2950    1.3000   20.9480 O   0  0  0  0  0  0  0  0  0  0  0  0
   13.2921   -1.9853   24.8226 S   0  0  0  0  0  0  0  0  0  0  0  0
    3.6208    2.0704   21.6579 H   0  0  0  0  0  0  0  0  0  0  0  0
    2.9857    2.6926   19.3615 H   0  0  0  0  0  0  0  0  0  0  0  0
    5.6664    0.7407   22.0807 H   0  0  0  0  0  0  0  0  0  0  0  0
   10.2684   -2.6719   22.3867 H   0  0  0  0  0  0  0  0  0  0  0  0
    7.8717   -0.0016   24.7596 H   0  0  0  0  0  0  0  0  0  0  0  0
    4.3794    2.0106   17.4221 H   0  0  0  0  0  0  0  0  0  0  0  0
    9.5443   -4.5616   23.7817 H   0  0  0  0  0  0  0  0  0  0  0  0
    7.1921   -1.8821   26.1908 H   0  0  0  0  0  0  0  0  0  0  0  0
   11.7089    1.0804   25.8886 H   0  0  0  0  0  0  0  0  0  0  0  0
    8.4172   -0.8135   18.0384 H   0  0  0  0  0  0  0  0  0  0  0  0
   13.3816   -0.6847   26.8892 H   0  0  0  0  0  0  0  0  0  0  0  0
   12.1644   -1.8199   22.6640 H   0  0  0  0  0  0  0  0  0  0  0  0
    8.1558   -4.5961   29.7550 H   0  0  0  0  0  0  0  0  0  0  0  0
    7.5611   -5.9778   28.8324 H   0  0  0  0  0  0  0  0  0  0  0  0
    5.9459   -4.1594   28.6209 H   0  0  0  0  0  0  0  0  0  0  0  0
    7.2011   -3.0160   28.1536 H   0  0  0  0  0  0  0  0  0  0  0  0
    9.7290   -3.9880   27.9846 H   0  0  0  0  0  0  0  0  0  0  0  0
    9.9437   -5.6964   28.3562 H   0  0  0  0  0  0  0  0  0  0  0  0
    6.2543   -5.4402   26.5659 H   0  0  0  0  0  0  0  0  0  0  0  0
    5.9909   -3.7397   26.1451 H   0  0  0  0  0  0  0  0  0  0  0  0
    9.9128   -5.2367   25.8843 H   0  0  0  0  0  0  0  0  0  0  0  0
    8.6365   -6.3517   26.3987 H   0  0  0  0  0  0  0  0  0  0  0  0
   10.3911    1.5389   23.7520 H   0  0  0  0  0  0  0  0  0  0  0  0
   11.2877    1.0581   22.3316 H   0  0  0  0  0  0  0  0  0  0  0  0
   10.5438   -0.9939   22.0202 H   0  0  0  0  0  0  0  0  0  0  0  0
    6.6715    0.4865   16.8044 H   0  0  0  0  0  0  0  0  0  0  0  0
    8.0917   -1.6083   21.0911 H   0  0  0  0  0  0  0  0  0  0  0  0
  1  2  1  0  0  0  0
  1  3  2  0  0  0  0
  2  6  2  0  0  0  0
  3 13  1  0  0  0  0
  4  7  2  0  0  0  0
  4 14  1  0  0  0  0
  5  8  1  0  0  0  0
  5 14  2  0  0  0  0
  6 16  1  0  0  0  0
  7 17  1  0  0  0  0
  8 17  2  0  0  0  0
  9 11  2  0  0  0  0
  9 15  1  0  0  0  0
 10 18  2  0  0  0  0
 10 27  1  0  0  0  0
 11 31  1  0  0  0  0
 12 15  2  0  0  0  0
 12 31  1  0  0  0  0
 13 16  2  0  0  0  0
 13 18  1  0  0  0  0
 14 26  1  0  0  0  0
 15 25  1  0  0  0  0
 16 27  1  0  0  0  0
 17 28  1  0  0  0  0
 18 29  1  0  0  0  0
 19 26  1  1  0  0  0
 19 29  1  0  0  0  0
 19 30  2  0  0  0  0
 20 21  1  0  0  0  0
 20 22  1  0  0  0  0
 21 23  1  0  0  0  0
 22 24  1  0  0  0  0
 23 28  1  0  0  0  0
 24 28  1  0  0  0  0
 25 26  1  0  0  0  0
  1 32  1  0  0  0  0
  2 33  1  0  0  0  0
  3 34  1  0  0  0  0
  4 35  1  0  0  0  0
  5 36  1  0  0  0  0
  6 37  1  0  0  0  0
  7 38  1  0  0  0  0
  8 39  1  0  0  0  0
  9 40  1  0  0  0  0
 10 41  1  0  0  0  0
 11 42  1  0  0  0  0
 12 43  1  0  0  0  0
 20 44  1  0  0  0  0
 20 45  1  0  0  0  0
 21 46  1  0  0  0  0
 21 47  1  0  0  0  0
 22 48  1  0  0  0  0
 22 49  1  0  0  0  0
 23 50  1  0  0  0  0
 23 51  1  0  0  0  0
 24 52  1  0  0  0  0
 24 53  1  0  0  0  0
 25 54  1  0  0  0  0
 25 55  1  0  0  0  0
 26 56  1  0  0  0  0
 27 57  1  0  0  0  0
 29 58  1  0  0  0  0
M  END
> <clash_score>
0

> <docking_score>
-5.804357528686523

> <overlap_score>
0.9137670397758484

$$$$
BENZO_286_1
  -OEChem-08222022463D

 56 59  0     1  0  0  0  0  0999 V2000
    4.2460    1.7520   20.8250 C   0  0  0  0  0  0  0  0  0  0  0  0
    3.8860    2.1050   19.5250 C   0  0  0  0  0  0  0  0  0  0  0  0
   13.8166    0.0398   21.0674 C   0  0  0  0  0  0  0  0  0  0  0  0
    5.3890    1.0010   21.0690 C   0  0  0  0  0  0  0  0  0  0  0  0
   12.5963    0.5519   21.5081 C   0  0  0  0  0  0  0  0  0  0  0  0
    9.5890   -2.4950   23.2210 C   0  0  0  0  0  0  0  0  0  0  0  0
    8.2550   -1.0010   24.5520 C   0  0  0  0  0  0  0  0  0  0  0  0
    4.6610    1.7170   18.4380 C   0  0  0  0  0  0  0  0  0  0  0  0
    9.1890   -3.5540   24.0140 C   0  0  0  0  0  0  0  0  0  0  0  0
    7.8700   -2.0610   25.3550 C   0  0  0  0  0  0  0  0  0  0  0  0
   14.4843   -0.9216   21.8261 C   0  0  0  0  0  0  0  0  0  0  0  0
   12.7115   -0.8586   23.4663 C   0  0  0  0  0  0  0  0  0  0  0  0
    7.5840   -0.2700   18.5160 C   0  0  0  0  0  0  0  0  0  0  0  0
    6.1460    0.6070   19.9750 C   0  0  0  0  0  0  0  0  0  0  0  0
    9.1280   -1.2090   23.4870 C   0  0  0  0  0  0  0  0  0  0  0  0
   12.0437    0.1027   22.7075 C   0  0  0  0  0  0  0  0  0  0  0  0
    5.7970    0.9500   18.6730 C   0  0  0  0  0  0  0  0  0  0  0  0
    8.3450   -3.3440   25.0980 C   0  0  0  0  0  0  0  0  0  0  0  0
    7.2710   -0.1460   19.8310 C   0  0  0  0  0  0  0  0  0  0  0  0
   13.9318   -1.3708   23.0255 C   0  0  0  0  0  0  0  0  0  0  0  0
    8.2026   -4.5566   27.2975 C   0  0  0  0  0  0  0  0  0  0  0  0
    9.0430    0.2380   21.4940 C   0  0  0  0  0  0  0  0  0  0  0  0
    7.8889   -6.0882   29.2879 C   0  0  0  0  0  0  0  0  0  0  0  0
   10.7220    0.6590   23.1850 C   0  0  0  0  0  0  0  0  0  0  0  0
    7.6343   -5.8728   27.8068 C   0  0  0  0  0  0  0  0  0  0  0  0
    9.5820   -0.1080   22.7000 C   0  0  1  0  0  0  0  0  0  0  0  0
    6.7100    0.3850   17.8100 N   0  0  0  0  0  0  0  0  0  0  0  0
    7.9771   -4.4057   25.9197 N   0  0  0  0  0  0  0  0  0  0  0  0
    8.0950   -0.7700   20.8440 N   0  0  0  0  0  0  0  0  0  0  0  0
    8.7749   -3.7648   28.0392 O   0  0  0  0  0  0  0  0  0  0  0  0
    9.2950    1.3000   20.9480 O   0  0  0  0  0  0  0  0  0  0  0  0
   14.7567   -2.5560   23.9617 Cl  0  0  0  0  0  0  0  0  0  0  0  0
    3.6208    2.0704   21.6579 H   0  0  0  0  0  0  0  0  0  0  0  0
    2.9857    2.6926   19.3615 H   0  0  0  0  0  0  0  0  0  0  0  0
   14.2465    0.3899   20.1334 H   0  0  0  0  0  0  0  0  0  0  0  0
    5.6664    0.7407   22.0807 H   0  0  0  0  0  0  0  0  0  0  0  0
   12.0830    1.3008   20.9105 H   0  0  0  0  0  0  0  0  0  0  0  0
   10.2695   -2.6718   22.3873 H   0  0  0  0  0  0  0  0  0  0  0  0
    7.8712   -0.0014   24.7587 H   0  0  0  0  0  0  0  0  0  0  0  0
    4.3794    2.0106   17.4221 H   0  0  0  0  0  0  0  0  0  0  0  0
    9.5431   -4.5618   23.7801 H   0  0  0  0  0  0  0  0  0  0  0  0
    7.1923   -1.8823   26.1912 H   0  0  0  0  0  0  0  0  0  0  0  0
   15.4348   -1.3117   21.4705 H   0  0  0  0  0  0  0  0  0  0  0  0
   12.2763   -1.2059   24.4005 H   0  0  0  0  0  0  0  0  0  0  0  0
    8.4172   -0.8135   18.0384 H   0  0  0  0  0  0  0  0  0  0  0  0
    8.9616   -6.0836   29.5073 H   0  0  0  0  0  0  0  0  0  0  0  0
    7.4783   -7.0503   29.6092 H   0  0  0  0  0  0  0  0  0  0  0  0
    7.4206   -5.2995   29.8860 H   0  0  0  0  0  0  0  0  0  0  0  0
   10.7266    0.7141   24.2815 H   0  0  0  0  0  0  0  0  0  0  0  0
   10.6502    1.7003   22.8412 H   0  0  0  0  0  0  0  0  0  0  0  0
    6.5549   -5.8821   27.6165 H   0  0  0  0  0  0  0  0  0  0  0  0
    8.0869   -6.6912   27.2352 H   0  0  0  0  0  0  0  0  0  0  0  0
    8.7027    0.7972   23.4026 H   0  0  0  0  0  0  0  0  0  0  0  0
    6.6715    0.4865   16.8044 H   0  0  0  0  0  0  0  0  0  0  0  0
    7.4775   -5.1797   25.4665 H   0  0  0  0  0  0  0  0  0  0  0  0
    8.0730   -1.6176   21.0751 H   0  0  0  0  0  0  0  0  0  0  0  0
  1  2  1  0  0  0  0
  1  4  2  0  0  0  0
  2  8  2  0  0  0  0
  3  5  2  0  0  0  0
  3 11  1  0  0  0  0
  4 14  1  0  0  0  0
  5 16  1  0  0  0  0
  6  9  2  0  0  0  0
  6 15  1  0  0  0  0
  7 10  1  0  0  0  0
  7 15  2  0  0  0  0
  8 17  1  0  0  0  0
  9 18  1  0  0  0  0
 10 18  2  0  0  0  0
 11 20  2  0  0  0  0
 12 16  2  0  0  0  0
 12 20  1  0  0  0  0
 13 19  2  0  0  0  0
 13 27  1  0  0  0  0
 14 17  2  0  0  0  0
 14 19  1  0  0  0  0
 15 26  1  0  0  0  0
 16 24  1  0  0  0  0
 17 27  1  0  0  0  0
 18 28  1  0  0  0  0
 19 29  1  0  0  0  0
 20 32  1  0  0  0  0
 21 25  1  0  0  0  0
 21 28  1  0  0  0  0
 21 30  2  0  0  0  0
 22 26  1  0  0  0  0
 22 29  1  0  0  0  0
 22 31  2  0  0  0  0
 23 25  1  0  0  0  0
 24 26  1  1  0  0  0
  1 33  1  0  0  0  0
  2 34  1  0  0  0  0
  3 35  1  0  0  0  0
  4 36  1  0  0  0  0
  5 37  1  0  0  0  0
  6 38  1  0  0  0  0
  7 39  1  0  0  0  0
  8 40  1  0  0  0  0
  9 41  1  0  0  0  0
 10 42  1  0  0  0  0
 11 43  1  0  0  0  0
 12 44  1  0  0  0  0
 13 45  1  0  0  0  0
 23 46  1  0  0  0  0
 23 47  1  0  0  0  0
 23 48  1  0  0  0  0
 24 49  1  0  0  0  0
 24 50  1  0  0  0  0
 25 51  1  0  0  0  0
 25 52  1  0  0  0  0
 26 53  1  0  0  0  0
 27 54  1  0  0  0  0
 28 55  1  0  0  0  0
 29 56  1  0  0  0  0
M  END
> <clash_score>
0

> <docking_score>
-6.324408054351807

> <overlap_score>
0.9780104756355286

$$$$
BENZO_286_2
  -OEChem-08222022463D

 56 59  0     1  0  0  0  0  0999 V2000
    4.2460    1.7520   20.8250 C   0  0  0  0  0  0  0  0  0  0  0  0
    3.8860    2.1050   19.5250 C   0  0  0  0  0  0  0  0  0  0  0  0
   13.0334   -1.4852   25.3072 C   0  0  0  0  0  0  0  0  0  0  0  0
    5.3890    1.0010   21.0690 C   0  0  0  0  0  0  0  0  0  0  0  0
   11.9669   -0.6739   24.9199 C   0  0  0  0  0  0  0  0  0  0  0  0
    9.5890   -2.4950   23.2210 C   0  0  0  0  0  0  0  0  0  0  0  0
    8.2550   -1.0010   24.5520 C   0  0  0  0  0  0  0  0  0  0  0  0
    4.6610    1.7170   18.4380 C   0  0  0  0  0  0  0  0  0  0  0  0
    9.1890   -3.5540   24.0140 C   0  0  0  0  0  0  0  0  0  0  0  0
    7.8700   -2.0610   25.3550 C   0  0  0  0  0  0  0  0  0  0  0  0
   14.0118   -1.8413   24.3790 C   0  0  0  0  0  0  0  0  0  0  0  0
   12.8570   -0.5751   22.6760 C   0  0  0  0  0  0  0  0  0  0  0  0
    7.5840   -0.2700   18.5160 C   0  0  0  0  0  0  0  0  0  0  0  0
    6.1460    0.6070   19.9750 C   0  0  0  0  0  0  0  0  0  0  0  0
    9.1280   -1.2090   23.4870 C   0  0  0  0  0  0  0  0  0  0  0  0
   11.8786   -0.2190   23.6043 C   0  0  0  0  0  0  0  0  0  0  0  0
    5.7970    0.9500   18.6730 C   0  0  0  0  0  0  0  0  0  0  0  0
    8.3450   -3.3440   25.0980 C   0  0  0  0  0  0  0  0  0  0  0  0
    7.2710   -0.1460   19.8310 C   0  0  0  0  0  0  0  0  0  0  0  0
   13.9235   -1.3863   23.0634 C   0  0  0  0  0  0  0  0  0  0  0  0
    7.6607   -4.3765   27.2876 C   0  0  0  0  0  0  0  0  0  0  0  0
    9.0430    0.2380   21.4940 C   0  0  0  0  0  0  0  0  0  0  0  0
    8.4364   -6.7651   27.6016 C   0  0  0  0  0  0  0  0  0  0  0  0
   10.7220    0.6590   23.1850 C   0  0  0  0  0  0  0  0  0  0  0  0
    7.3113   -5.7655   27.8009 C   0  0  0  0  0  0  0  0  0  0  0  0
    9.5820   -0.1080   22.7000 C   0  0  2  0  0  0  0  0  0  0  0  0
    6.7100    0.3850   17.8100 N   0  0  0  0  0  0  0  0  0  0  0  0
    7.9771   -4.4057   25.9197 N   0  0  0  0  0  0  0  0  0  0  0  0
    8.0950   -0.7700   20.8440 N   0  0  0  0  0  0  0  0  0  0  0  0
    7.6510   -3.3915   28.0184 O   0  0  0  0  0  0  0  0  0  0  0  0
    9.2950    1.3000   20.9480 O   0  0  0  0  0  0  0  0  0  0  0  0
   15.1303   -1.8270   21.9183 Cl  0  0  0  0  0  0  0  0  0  0  0  0
    3.6208    2.0704   21.6579 H   0  0  0  0  0  0  0  0  0  0  0  0
    2.9857    2.6926   19.3615 H   0  0  0  0  0  0  0  0  0  0  0  0
   13.1017   -1.8394   26.3318 H   0  0  0  0  0  0  0  0  0  0  0  0
    5.6664    0.7407   22.0807 H   0  0  0  0  0  0  0  0  0  0  0  0
   11.2091   -0.4015   25.6498 H   0  0  0  0  0  0  0  0  0  0  0  0
   10.2695   -2.6718   22.3873 H   0  0  0  0  0  0  0  0  0  0  0  0
    7.8712   -0.0014   24.7587 H   0  0  0  0  0  0  0  0  0  0  0  0
    4.3794    2.0106   17.4221 H   0  0  0  0  0  0  0  0  0  0  0  0
    9.5431   -4.5618   23.7801 H   0  0  0  0  0  0  0  0  0  0  0  0
    7.1923   -1.8823   26.1912 H   0  0  0  0  0  0  0  0  0  0  0  0
   14.8373   -2.4744   24.6949 H   0  0  0  0  0  0  0  0  0  0  0  0
   12.7839   -0.2174   21.6515 H   0  0  0  0  0  0  0  0  0  0  0  0
    8.4172   -0.8135   18.0384 H   0  0  0  0  0  0  0  0  0  0  0  0
    8.6959   -6.8591   26.5420 H   0  0  0  0  0  0  0  0  0  0  0  0
    8.1391   -7.7519   27.9697 H   0  0  0  0  0  0  0  0  0  0  0  0
    9.3373   -6.4558   28.1416 H   0  0  0  0  0  0  0  0  0  0  0  0
   10.4369    1.3080   24.0233 H   0  0  0  0  0  0  0  0  0  0  0  0
   11.0815    1.3384   22.3997 H   0  0  0  0  0  0  0  0  0  0  0  0
    7.0728   -5.6917   28.8682 H   0  0  0  0  0  0  0  0  0  0  0  0
    6.4147   -6.1147   27.2759 H   0  0  0  0  0  0  0  0  0  0  0  0
   10.5413   -0.9955   22.0233 H   0  0  0  0  0  0  0  0  0  0  0  0
    6.6715    0.4865   16.8044 H   0  0  0  0  0  0  0  0  0  0  0  0
    7.9296   -5.3298   25.4749 H   0  0  0  0  0  0  0  0  0  0  0  0
    8.0730   -1.6176   21.0751 H   0  0  0  0  0  0  0  0  0  0  0  0
  1  2  1  0  0  0  0
  1  4  2  0  0  0  0
  2  8  2  0  0  0  0
  3  5  2  0  0  0  0
  3 11  1  0  0  0  0
  4 14  1  0  0  0  0
  5 16  1  0  0  0  0
  6  9  2  0  0  0  0
  6 15  1  0  0  0  0
  7 10  1  0  0  0  0
  7 15  2  0  0  0  0
  8 17  1  0  0  0  0
  9 18  1  0  0  0  0
 10 18  2  0  0  0  0
 11 20  2  0  0  0  0
 12 16  2  0  0  0  0
 12 20  1  0  0  0  0
 13 19  2  0  0  0  0
 13 27  1  0  0  0  0
 14 17  2  0  0  0  0
 14 19  1  0  0  0  0
 15 26  1  0  0  0  0
 16 24  1  0  0  0  0
 17 27  1  0  0  0  0
 18 28  1  0  0  0  0
 19 29  1  0  0  0  0
 20 32  1  0  0  0  0
 21 25  1  0  0  0  0
 21 28  1  0  0  0  0
 21 30  2  0  0  0  0
 22 26  1  0  0  0  0
 22 29  1  0  0  0  0
 22 31  2  0  0  0  0
 23 25  1  0  0  0  0
 24 26  1  6  0  0  0
  1 33  1  0  0  0  0
  2 34  1  0  0  0  0
  3 35  1  0  0  0  0
  4 36  1  0  0  0  0
  5 37  1  0  0  0  0
  6 38  1  0  0  0  0
  7 39  1  0  0  0  0
  8 40  1  0  0  0  0
  9 41  1  0  0  0  0
 10 42  1  0  0  0  0
 11 43  1  0  0  0  0
 12 44  1  0  0  0  0
 13 45  1  0  0  0  0
 23 46  1  0  0  0  0
 23 47  1  0  0  0  0
 23 48  1  0  0  0  0
 24 49  1  0  0  0  0
 24 50  1  0  0  0  0
 25 51  1  0  0  0  0
 25 52  1  0  0  0  0
 26 53  1  0  0  0  0
 27 54  1  0  0  0  0
 28 55  1  0  0  0  0
 29 56  1  0  0  0  0
M  END
> <clash_score>
0

> <docking_score>
-6.338321685791016

> <overlap_score>
0.9731457829475403

$$$$
BENZO_287_2
  -OEChem-08222022463D

 56 59  0     1  0  0  0  0  0999 V2000
    4.2460    1.7520   20.8250 C   0  0  0  0  0  0  0  0  0  0  0  0
    3.8860    2.1050   19.5250 C   0  0  0  0  0  0  0  0  0  0  0  0
    5.3890    1.0010   21.0690 C   0  0  0  0  0  0  0  0  0  0  0  0
    9.5890   -2.4950   23.2210 C   0  0  0  0  0  0  0  0  0  0  0  0
    8.2550   -1.0010   24.5520 C   0  0  0  0  0  0  0  0  0  0  0  0
    4.6610    1.7170   18.4380 C   0  0  0  0  0  0  0  0  0  0  0  0
    9.1890   -3.5540   24.0140 C   0  0  0  0  0  0  0  0  0  0  0  0
    7.8700   -2.0610   25.3550 C   0  0  0  0  0  0  0  0  0  0  0  0
   12.1294   -0.7684   24.8759 C   0  0  0  0  0  0  0  0  0  0  0  0
   12.9208   -0.6622   22.8272 C   0  0  0  0  0  0  0  0  0  0  0  0
    7.5840   -0.2700   18.5160 C   0  0  0  0  0  0  0  0  0  0  0  0
    6.1460    0.6070   19.9750 C   0  0  0  0  0  0  0  0  0  0  0  0
    9.1280   -1.2090   23.4870 C   0  0  0  0  0  0  0  0  0  0  0  0
   11.8786   -0.2190   23.6043 C   0  0  0  0  0  0  0  0  0  0  0  0
    5.7970    0.9500   18.6730 C   0  0  0  0  0  0  0  0  0  0  0  0
    8.3450   -3.3440   25.0980 C   0  0  0  0  0  0  0  0  0  0  0  0
    7.2710   -0.1460   19.8310 C   0  0  0  0  0  0  0  0  0  0  0  0
    7.6607   -4.3765   27.2876 C   0  0  0  0  0  0  0  0  0  0  0  0
    9.0430    0.2380   21.4940 C   0  0  0  0  0  0  0  0  0  0  0  0
    8.4364   -6.7651   27.6016 C   0  0  0  0  0  0  0  0  0  0  0  0
   14.9196   -2.1033   23.2819 C   0  0  0  0  0  0  0  0  0  0  0  0
   10.7220    0.6590   23.1850 C   0  0  0  0  0  0  0  0  0  0  0  0
    7.3113   -5.7655   27.8009 C   0  0  0  0  0  0  0  0  0  0  0  0
    9.5820   -0.1080   22.7000 C   0  0  2  0  0  0  0  0  0  0  0  0
   13.2434   -1.5045   24.9090 N   0  0  0  0  0  0  0  0  0  0  0  0
    6.7100    0.3850   17.8100 N   0  0  0  0  0  0  0  0  0  0  0  0
   13.7018   -1.4209   23.6485 N   0  0  0  0  0  0  0  0  0  0  0  0
    7.9771   -4.4057   25.9197 N   0  0  0  0  0  0  0  0  0  0  0  0
    8.0950   -0.7700   20.8440 N   0  0  0  0  0  0  0  0  0  0  0  0
    7.6510   -3.3915   28.0184 O   0  0  0  0  0  0  0  0  0  0  0  0
    9.2950    1.3000   20.9480 O   0  0  0  0  0  0  0  0  0  0  0  0
    3.6208    2.0704   21.6579 H   0  0  0  0  0  0  0  0  0  0  0  0
    2.9857    2.6926   19.3615 H   0  0  0  0  0  0  0  0  0  0  0  0
    5.6664    0.7407   22.0807 H   0  0  0  0  0  0  0  0  0  0  0  0
   10.2695   -2.6718   22.3873 H   0  0  0  0  0  0  0  0  0  0  0  0
    7.8712   -0.0014   24.7587 H   0  0  0  0  0  0  0  0  0  0  0  0
    4.3794    2.0106   17.4221 H   0  0  0  0  0  0  0  0  0  0  0  0
    9.5431   -4.5618   23.7801 H   0  0  0  0  0  0  0  0  0  0  0  0
    7.1923   -1.8823   26.1912 H   0  0  0  0  0  0  0  0  0  0  0  0
   11.5479   -0.6652   25.7811 H   0  0  0  0  0  0  0  0  0  0  0  0
   13.1664   -0.5073   21.7853 H   0  0  0  0  0  0  0  0  0  0  0  0
    8.4172   -0.8135   18.0384 H   0  0  0  0  0  0  0  0  0  0  0  0
    8.6959   -6.8591   26.5420 H   0  0  0  0  0  0  0  0  0  0  0  0
    8.1391   -7.7519   27.9697 H   0  0  0  0  0  0  0  0  0  0  0  0
    9.3373   -6.4558   28.1416 H   0  0  0  0  0  0  0  0  0  0  0  0
   15.7545   -1.4186   23.4527 H   0  0  0  0  0  0  0  0  0  0  0  0
   15.0313   -3.0027   23.8939 H   0  0  0  0  0  0  0  0  0  0  0  0
   14.8692   -2.3913   22.2281 H   0  0  0  0  0  0  0  0  0  0  0  0
   10.4369    1.3080   24.0233 H   0  0  0  0  0  0  0  0  0  0  0  0
   11.0815    1.3384   22.3997 H   0  0  0  0  0  0  0  0  0  0  0  0
    7.0728   -5.6917   28.8682 H   0  0  0  0  0  0  0  0  0  0  0  0
    6.4147   -6.1147   27.2759 H   0  0  0  0  0  0  0  0  0  0  0  0
   10.5413   -0.9955   22.0233 H   0  0  0  0  0  0  0  0  0  0  0  0
    6.6715    0.4865   16.8044 H   0  0  0  0  0  0  0  0  0  0  0  0
    7.9296   -5.3298   25.4749 H   0  0  0  0  0  0  0  0  0  0  0  0
    8.0730   -1.6176   21.0751 H   0  0  0  0  0  0  0  0  0  0  0  0
  1  2  1  0  0  0  0
  1  3  2  0  0  0  0
  2  6  2  0  0  0  0
  3 12  1  0  0  0  0
  4  7  2  0  0  0  0
  4 13  1  0  0  0  0
  5  8  1  0  0  0  0
  5 13  2  0  0  0  0
  6 15  1  0  0  0  0
  7 16  1  0  0  0  0
  8 16  2  0  0  0  0
  9 14  1  0  0  0  0
  9 25  2  0  0  0  0
 10 14  2  0  0  0  0
 10 27  1  0  0  0  0
 11 17  2  0  0  0  0
 11 26  1  0  0  0  0
 12 15  2  0  0  0  0
 12 17  1  0  0  0  0
 13 24  1  0  0  0  0
 14 22  1  0  0  0  0
 15 26  1  0  0  0  0
 16 28  1  0  0  0  0
 17 29  1  0  0  0  0
 18 23  1  0  0  0  0
 18 28  1  0  0  0  0
 18 30  2  0  0  0  0
 19 24  1  0  0  0  0
 19 29  1  0  0  0  0
 19 31  2  0  0  0  0
 20 23  1  0  0  0  0
 21 27  1  0  0  0  0
 22 24  1  6  0  0  0
 25 27  1  0  0  0  0
  1 32  1  0  0  0  0
  2 33  1  0  0  0  0
  3 34  1  0  0  0  0
  4 35  1  0  0  0  0
  5 36  1  0  0  0  0
  6 37  1  0  0  0  0
  7 38  1  0  0  0  0
  8 39  1  0  0  0  0
  9 40  1  0  0  0  0
 10 41  1  0  0  0  0
 11 42  1  0  0  0  0
 20 43  1  0  0  0  0
 20 44  1  0  0  0  0
 20 45  1  0  0  0  0
 21 46  1  0  0  0  0
 21 47  1  0  0  0  0
 21 48  1  0  0  0  0
 22 49  1  0  0  0  0
 22 50  1  0  0  0  0
 23 51  1  0  0  0  0
 23 52  1  0  0  0  0
 24 53  1  0  0  0  0
 26 54  1  0  0  0  0
 28 55  1  0  0  0  0
 29 56  1  0  0  0  0
M  END
> <clash_score>
0

> <docking_score>
-6.287607192993164

> <overlap_score>
0.9687711596488953

$$$$
BENZO_287_1
  -OEChem-08222022463D

 56 59  0     1  0  0  0  0  0999 V2000
    4.2460    1.7520   20.8250 C   0  0  0  0  0  0  0  0  0  0  0  0
    3.8860    2.1050   19.5250 C   0  0  0  0  0  0  0  0  0  0  0  0
    5.3890    1.0010   21.0690 C   0  0  0  0  0  0  0  0  0  0  0  0
    9.5890   -2.4950   23.2210 C   0  0  0  0  0  0  0  0  0  0  0  0
    8.2550   -1.0010   24.5520 C   0  0  0  0  0  0  0  0  0  0  0  0
    4.6610    1.7170   18.4380 C   0  0  0  0  0  0  0  0  0  0  0  0
    9.1890   -3.5540   24.0140 C   0  0  0  0  0  0  0  0  0  0  0  0
    7.8700   -2.0610   25.3550 C   0  0  0  0  0  0  0  0  0  0  0  0
   13.3358    0.5881   22.9844 C   0  0  0  0  0  0  0  0  0  0  0  0
   12.2530   -0.9934   21.9068 C   0  0  0  0  0  0  0  0  0  0  0  0
    7.5840   -0.2700   18.5160 C   0  0  0  0  0  0  0  0  0  0  0  0
    6.1460    0.6070   19.9750 C   0  0  0  0  0  0  0  0  0  0  0  0
    9.1280   -1.2090   23.4870 C   0  0  0  0  0  0  0  0  0  0  0  0
   12.0437    0.1027   22.7075 C   0  0  0  0  0  0  0  0  0  0  0  0
    5.7970    0.9500   18.6730 C   0  0  0  0  0  0  0  0  0  0  0  0
    8.3450   -3.3440   25.0980 C   0  0  0  0  0  0  0  0  0  0  0  0
    7.2710   -0.1460   19.8310 C   0  0  0  0  0  0  0  0  0  0  0  0
    7.6607   -4.3765   27.2876 C   0  0  0  0  0  0  0  0  0  0  0  0
    9.0430    0.2380   21.4940 C   0  0  0  0  0  0  0  0  0  0  0  0
    6.9961   -5.7804   29.2859 C   0  0  0  0  0  0  0  0  0  0  0  0
   14.3107   -2.0972   20.9977 C   0  0  0  0  0  0  0  0  0  0  0  0
   10.7220    0.6590   23.1850 C   0  0  0  0  0  0  0  0  0  0  0  0
    7.3113   -5.7655   27.8009 C   0  0  0  0  0  0  0  0  0  0  0  0
    9.5820   -0.1080   22.7000 C   0  0  1  0  0  0  0  0  0  0  0  0
   14.2950   -0.1401   22.4067 N   0  0  0  0  0  0  0  0  0  0  0  0
    6.7100    0.3850   17.8100 N   0  0  0  0  0  0  0  0  0  0  0  0
   13.6051   -1.0943   21.7588 N   0  0  0  0  0  0  0  0  0  0  0  0
    7.9771   -4.4057   25.9197 N   0  0  0  0  0  0  0  0  0  0  0  0
    8.0950   -0.7700   20.8440 N   0  0  0  0  0  0  0  0  0  0  0  0
    7.6510   -3.3915   28.0184 O   0  0  0  0  0  0  0  0  0  0  0  0
    9.2950    1.3000   20.9480 O   0  0  0  0  0  0  0  0  0  0  0  0
    3.6208    2.0704   21.6579 H   0  0  0  0  0  0  0  0  0  0  0  0
    2.9857    2.6926   19.3615 H   0  0  0  0  0  0  0  0  0  0  0  0
    5.6664    0.7407   22.0807 H   0  0  0  0  0  0  0  0  0  0  0  0
   10.2695   -2.6718   22.3873 H   0  0  0  0  0  0  0  0  0  0  0  0
    7.8712   -0.0014   24.7587 H   0  0  0  0  0  0  0  0  0  0  0  0
    4.3794    2.0106   17.4221 H   0  0  0  0  0  0  0  0  0  0  0  0
    9.5431   -4.5618   23.7801 H   0  0  0  0  0  0  0  0  0  0  0  0
    7.1923   -1.8823   26.1912 H   0  0  0  0  0  0  0  0  0  0  0  0
   13.6211    1.4413   23.5835 H   0  0  0  0  0  0  0  0  0  0  0  0
   11.5720   -1.6936   21.4423 H   0  0  0  0  0  0  0  0  0  0  0  0
    8.4172   -0.8135   18.0384 H   0  0  0  0  0  0  0  0  0  0  0  0
    7.8457   -5.4147   29.8719 H   0  0  0  0  0  0  0  0  0  0  0  0
    6.7654   -6.7978   29.6163 H   0  0  0  0  0  0  0  0  0  0  0  0
    6.1341   -5.1438   29.5112 H   0  0  0  0  0  0  0  0  0  0  0  0
   14.4286   -1.7247   19.9767 H   0  0  0  0  0  0  0  0  0  0  0  0
   15.2879   -2.2795   21.4534 H   0  0  0  0  0  0  0  0  0  0  0  0
   13.7343   -3.0265   21.0026 H   0  0  0  0  0  0  0  0  0  0  0  0
   10.7266    0.7141   24.2815 H   0  0  0  0  0  0  0  0  0  0  0  0
   10.6502    1.7003   22.8412 H   0  0  0  0  0  0  0  0  0  0  0  0
    6.4454   -6.1356   27.2399 H   0  0  0  0  0  0  0  0  0  0  0  0
    8.1569   -6.4333   27.5999 H   0  0  0  0  0  0  0  0  0  0  0  0
    8.7027    0.7972   23.4026 H   0  0  0  0  0  0  0  0  0  0  0  0
    6.6715    0.4865   16.8044 H   0  0  0  0  0  0  0  0  0  0  0  0
    7.9296   -5.3298   25.4749 H   0  0  0  0  0  0  0  0  0  0  0  0
    8.0730   -1.6176   21.0751 H   0  0  0  0  0  0  0  0  0  0  0  0
  1  2  1  0  0  0  0
  1  3  2  0  0  0  0
  2  6  2  0  0  0  0
  3 12  1  0  0  0  0
  4  7  2  0  0  0  0
  4 13  1  0  0  0  0
  5  8  1  0  0  0  0
  5 13  2  0  0  0  0
  6 15  1  0  0  0  0
  7 16  1  0  0  0  0
  8 16  2  0  0  0  0
  9 14  1  0  0  0  0
  9 25  2  0  0  0  0
 10 14  2  0  0  0  0
 10 27  1  0  0  0  0
 11 17  2  0  0  0  0
 11 26  1  0  0  0  0
 12 15  2  0  0  0  0
 12 17  1  0  0  0  0
 13 24  1  0  0  0  0
 14 22  1  0  0  0  0
 15 26  1  0  0  0  0
 16 28  1  0  0  0  0
 17 29  1  0  0  0  0
 18 23  1  0  0  0  0
 18 28  1  0  0  0  0
 18 30  2  0  0  0  0
 19 24  1  0  0  0  0
 19 29  1  0  0  0  0
 19 31  2  0  0  0  0
 20 23  1  0  0  0  0
 21 27  1  0  0  0  0
 22 24  1  1  0  0  0
 25 27  1  0  0  0  0
  1 32  1  0  0  0  0
  2 33  1  0  0  0  0
  3 34  1  0  0  0  0
  4 35  1  0  0  0  0
  5 36  1  0  0  0  0
  6 37  1  0  0  0  0
  7 38  1  0  0  0  0
  8 39  1  0  0  0  0
  9 40  1  0  0  0  0
 10 41  1  0  0  0  0
 11 42  1  0  0  0  0
 20 43  1  0  0  0  0
 20 44  1  0  0  0  0
 20 45  1  0  0  0  0
 21 46  1  0  0  0  0
 21 47  1  0  0  0  0
 21 48  1  0  0  0  0
 22 49  1  0  0  0  0
 22 50  1  0  0  0  0
 23 51  1  0  0  0  0
 23 52  1  0  0  0  0
 24 53  1  0  0  0  0
 26 54  1  0  0  0  0
 28 55  1  0  0  0  0
 29 56  1  0  0  0  0
M  END
> <clash_score>
0

> <docking_score>
-9.004440307617188

> <overlap_score>
0.9468785524368286

$$$$
BENZO_293_1
  -OEChem-08222022463D

 49 52  0     1  0  0  0  0  0999 V2000
   14.4830   -0.9237   21.8249 C   0  0  0  0  0  0  0  0  0  0  0  0
    4.2460    1.7520   20.8250 C   0  0  0  0  0  0  0  0  0  0  0  0
   13.9310   -1.3719   23.0248 C   0  0  0  0  0  0  0  0  0  0  0  0
   13.8154    0.0379   21.0662 C   0  0  0  0  0  0  0  0  0  0  0  0
    3.8860    2.1050   19.5250 C   0  0  0  0  0  0  0  0  0  0  0  0
    5.3890    1.0010   21.0690 C   0  0  0  0  0  0  0  0  0  0  0  0
   12.7114   -0.8588   23.4661 C   0  0  0  0  0  0  0  0  0  0  0  0
   12.5958    0.5510   21.5075 C   0  0  0  0  0  0  0  0  0  0  0  0
    9.1890   -3.5540   24.0140 C   0  0  0  0  0  0  0  0  0  0  0  0
    7.8700   -2.0610   25.3550 C   0  0  0  0  0  0  0  0  0  0  0  0
    9.5890   -2.4950   23.2210 C   0  0  0  0  0  0  0  0  0  0  0  0
    8.2550   -1.0010   24.5520 C   0  0  0  0  0  0  0  0  0  0  0  0
    4.6610    1.7170   18.4380 C   0  0  0  0  0  0  0  0  0  0  0  0
    7.5840   -0.2700   18.5160 C   0  0  0  0  0  0  0  0  0  0  0  0
    6.1460    0.6070   19.9750 C   0  0  0  0  0  0  0  0  0  0  0  0
    8.3450   -3.3440   25.0980 C   0  0  0  0  0  0  0  0  0  0  0  0
   12.0437    0.1027   22.7075 C   0  0  0  0  0  0  0  0  0  0  0  0
    9.1280   -1.2090   23.4870 C   0  0  0  0  0  0  0  0  0  0  0  0
    5.7970    0.9500   18.6730 C   0  0  0  0  0  0  0  0  0  0  0  0
    7.2710   -0.1460   19.8310 C   0  0  0  0  0  0  0  0  0  0  0  0
    9.0430    0.2380   21.4940 C   0  0  0  0  0  0  0  0  0  0  0  0
    7.9517   -4.4787   25.9770 C   0  0  0  0  0  0  0  0  0  0  0  0
   10.7220    0.6590   23.1850 C   0  0  0  0  0  0  0  0  0  0  0  0
    9.5820   -0.1080   22.7000 C   0  0  1  0  0  0  0  0  0  0  0  0
    6.7100    0.3850   17.8100 N   0  0  0  0  0  0  0  0  0  0  0  0
    8.0950   -0.7700   20.8440 N   0  0  0  0  0  0  0  0  0  0  0  0
    9.2950    1.3000   20.9480 O   0  0  0  0  0  0  0  0  0  0  0  0
   15.4334   -1.3223   21.4820 H   0  0  0  0  0  0  0  0  0  0  0  0
    3.6208    2.0704   21.6579 H   0  0  0  0  0  0  0  0  0  0  0  0
   14.4512   -2.1198   23.6162 H   0  0  0  0  0  0  0  0  0  0  0  0
   14.2455    0.3879   20.1325 H   0  0  0  0  0  0  0  0  0  0  0  0
    2.9857    2.6926   19.3615 H   0  0  0  0  0  0  0  0  0  0  0  0
    5.6664    0.7407   22.0807 H   0  0  0  0  0  0  0  0  0  0  0  0
   12.2887   -1.2141   24.4023 H   0  0  0  0  0  0  0  0  0  0  0  0
   12.0827    1.2998   20.9098 H   0  0  0  0  0  0  0  0  0  0  0  0
    9.5416   -4.5625   23.7818 H   0  0  0  0  0  0  0  0  0  0  0  0
    7.1926   -1.8847   26.1916 H   0  0  0  0  0  0  0  0  0  0  0  0
   10.2688   -2.6720   22.3870 H   0  0  0  0  0  0  0  0  0  0  0  0
    7.8705   -0.0015   24.7579 H   0  0  0  0  0  0  0  0  0  0  0  0
    4.3794    2.0106   17.4221 H   0  0  0  0  0  0  0  0  0  0  0  0
    8.4172   -0.8135   18.0384 H   0  0  0  0  0  0  0  0  0  0  0  0
    8.6661   -4.5883   26.8021 H   0  0  0  0  0  0  0  0  0  0  0  0
    6.9508   -4.3263   26.4014 H   0  0  0  0  0  0  0  0  0  0  0  0
    7.9188   -5.4228   25.4175 H   0  0  0  0  0  0  0  0  0  0  0  0
   10.7266    0.7141   24.2815 H   0  0  0  0  0  0  0  0  0  0  0  0
   10.6502    1.7003   22.8412 H   0  0  0  0  0  0  0  0  0  0  0  0
    8.7027    0.7972   23.4026 H   0  0  0  0  0  0  0  0  0  0  0  0
    6.6715    0.4865   16.8044 H   0  0  0  0  0  0  0  0  0  0  0  0
    8.0730   -1.6176   21.0751 H   0  0  0  0  0  0  0  0  0  0  0  0
  1  3  1  0  0  0  0
  1  4  2  0  0  0  0
  2  5  1  0  0  0  0
  2  6  2  0  0  0  0
  3  7  2  0  0  0  0
  4  8  1  0  0  0  0
  5 13  2  0  0  0  0
  6 15  1  0  0  0  0
  7 17  1  0  0  0  0
  8 17  2  0  0  0  0
  9 11  2  0  0  0  0
  9 16  1  0  0  0  0
 10 12  1  0  0  0  0
 10 16  2  0  0  0  0
 11 18  1  0  0  0  0
 12 18  2  0  0  0  0
 13 19  1  0  0  0  0
 14 20  2  0  0  0  0
 14 25  1  0  0  0  0
 15 19  2  0  0  0  0
 15 20  1  0  0  0  0
 16 22  1  0  0  0  0
 17 23  1  0  0  0  0
 18 24  1  0  0  0  0
 19 25  1  0  0  0  0
 20 26  1  0  0  0  0
 21 24  1  0  0  0  0
 21 26  1  0  0  0  0
 21 27  2  0  0  0  0
 23 24  1  1  0  0  0
  1 28  1  0  0  0  0
  2 29  1  0  0  0  0
  3 30  1  0  0  0  0
  4 31  1  0  0  0  0
  5 32  1  0  0  0  0
  6 33  1  0  0  0  0
  7 34  1  0  0  0  0
  8 35  1  0  0  0  0
  9 36  1  0  0  0  0
 10 37  1  0  0  0  0
 11 38  1  0  0  0  0
 12 39  1  0  0  0  0
 13 40  1  0  0  0  0
 14 41  1  0  0  0  0
 22 42  1  0  0  0  0
 22 43  1  0  0  0  0
 22 44  1  0  0  0  0
 23 45  1  0  0  0  0
 23 46  1  0  0  0  0
 24 47  1  0  0  0  0
 25 48  1  0  0  0  0
 26 49  1  0  0  0  0
M  END
> <clash_score>
0

> <docking_score>
-6.339051246643066

> <overlap_score>
0.8690909743309021

$$$$
BENZO_293_2
  -OEChem-08222022463D

 49 52  0     1  0  0  0  0  0999 V2000
   14.0137   -1.8398   24.3768 C   0  0  0  0  0  0  0  0  0  0  0  0
    4.2460    1.7520   20.8250 C   0  0  0  0  0  0  0  0  0  0  0  0
   13.0361   -1.4844   25.3061 C   0  0  0  0  0  0  0  0  0  0  0  0
   13.9239   -1.3848   23.0613 C   0  0  0  0  0  0  0  0  0  0  0  0
    3.8860    2.1050   19.5250 C   0  0  0  0  0  0  0  0  0  0  0  0
    5.3890    1.0010   21.0690 C   0  0  0  0  0  0  0  0  0  0  0  0
   11.9686   -0.6740   24.9198 C   0  0  0  0  0  0  0  0  0  0  0  0
   12.8563   -0.5744   22.6750 C   0  0  0  0  0  0  0  0  0  0  0  0
    9.1890   -3.5540   24.0140 C   0  0  0  0  0  0  0  0  0  0  0  0
    7.8700   -2.0610   25.3550 C   0  0  0  0  0  0  0  0  0  0  0  0
    9.5890   -2.4950   23.2210 C   0  0  0  0  0  0  0  0  0  0  0  0
    8.2550   -1.0010   24.5520 C   0  0  0  0  0  0  0  0  0  0  0  0
    4.6610    1.7170   18.4380 C   0  0  0  0  0  0  0  0  0  0  0  0
    7.5840   -0.2700   18.5160 C   0  0  0  0  0  0  0  0  0  0  0  0
    6.1460    0.6070   19.9750 C   0  0  0  0  0  0  0  0  0  0  0  0
    8.3450   -3.3440   25.0980 C   0  0  0  0  0  0  0  0  0  0  0  0
   11.8786   -0.2190   23.6043 C   0  0  0  0  0  0  0  0  0  0  0  0
    9.1280   -1.2090   23.4870 C   0  0  0  0  0  0  0  0  0  0  0  0
    5.7970    0.9500   18.6730 C   0  0  0  0  0  0  0  0  0  0  0  0
    7.2710   -0.1460   19.8310 C   0  0  0  0  0  0  0  0  0  0  0  0
    9.0430    0.2380   21.4940 C   0  0  0  0  0  0  0  0  0  0  0  0
    7.9517   -4.4787   25.9770 C   0  0  0  0  0  0  0  0  0  0  0  0
   10.7220    0.6590   23.1850 C   0  0  0  0  0  0  0  0  0  0  0  0
    9.5820   -0.1080   22.7000 C   0  0  2  0  0  0  0  0  0  0  0  0
    6.7100    0.3850   17.8100 N   0  0  0  0  0  0  0  0  0  0  0  0
    8.0950   -0.7700   20.8440 N   0  0  0  0  0  0  0  0  0  0  0  0
    9.2950    1.3000   20.9480 O   0  0  0  0  0  0  0  0  0  0  0  0
   14.8456   -2.4698   24.6781 H   0  0  0  0  0  0  0  0  0  0  0  0
    3.6208    2.0704   21.6579 H   0  0  0  0  0  0  0  0  0  0  0  0
   13.1065   -1.8377   26.3307 H   0  0  0  0  0  0  0  0  0  0  0  0
   14.6854   -1.6605   22.3378 H   0  0  0  0  0  0  0  0  0  0  0  0
    2.9857    2.6926   19.3615 H   0  0  0  0  0  0  0  0  0  0  0  0
    5.6664    0.7407   22.0807 H   0  0  0  0  0  0  0  0  0  0  0  0
   11.2114   -0.4022   25.6506 H   0  0  0  0  0  0  0  0  0  0  0  0
   12.7944   -0.2247   21.6479 H   0  0  0  0  0  0  0  0  0  0  0  0
    9.5416   -4.5625   23.7818 H   0  0  0  0  0  0  0  0  0  0  0  0
    7.1926   -1.8847   26.1916 H   0  0  0  0  0  0  0  0  0  0  0  0
   10.2688   -2.6720   22.3870 H   0  0  0  0  0  0  0  0  0  0  0  0
    7.8705   -0.0015   24.7579 H   0  0  0  0  0  0  0  0  0  0  0  0
    4.3794    2.0106   17.4221 H   0  0  0  0  0  0  0  0  0  0  0  0
    8.4172   -0.8135   18.0384 H   0  0  0  0  0  0  0  0  0  0  0  0
    8.6661   -4.5883   26.8021 H   0  0  0  0  0  0  0  0  0  0  0  0
    6.9508   -4.3263   26.4014 H   0  0  0  0  0  0  0  0  0  0  0  0
    7.9188   -5.4228   25.4175 H   0  0  0  0  0  0  0  0  0  0  0  0
   10.4369    1.3080   24.0233 H   0  0  0  0  0  0  0  0  0  0  0  0
   11.0815    1.3384   22.3997 H   0  0  0  0  0  0  0  0  0  0  0  0
   10.5413   -0.9955   22.0233 H   0  0  0  0  0  0  0  0  0  0  0  0
    6.6715    0.4865   16.8044 H   0  0  0  0  0  0  0  0  0  0  0  0
    8.0730   -1.6176   21.0751 H   0  0  0  0  0  0  0  0  0  0  0  0
  1  3  1  0  0  0  0
  1  4  2  0  0  0  0
  2  5  1  0  0  0  0
  2  6  2  0  0  0  0
  3  7  2  0  0  0  0
  4  8  1  0  0  0  0
  5 13  2  0  0  0  0
  6 15  1  0  0  0  0
  7 17  1  0  0  0  0
  8 17  2  0  0  0  0
  9 11  2  0  0  0  0
  9 16  1  0  0  0  0
 10 12  1  0  0  0  0
 10 16  2  0  0  0  0
 11 18  1  0  0  0  0
 12 18  2  0  0  0  0
 13 19  1  0  0  0  0
 14 20  2  0  0  0  0
 14 25  1  0  0  0  0
 15 19  2  0  0  0  0
 15 20  1  0  0  0  0
 16 22  1  0  0  0  0
 17 23  1  0  0  0  0
 18 24  1  0  0  0  0
 19 25  1  0  0  0  0
 20 26  1  0  0  0  0
 21 24  1  0  0  0  0
 21 26  1  0  0  0  0
 21 27  2  0  0  0  0
 23 24  1  6  0  0  0
  1 28  1  0  0  0  0
  2 29  1  0  0  0  0
  3 30  1  0  0  0  0
  4 31  1  0  0  0  0
  5 32  1  0  0  0  0
  6 33  1  0  0  0  0
  7 34  1  0  0  0  0
  8 35  1  0  0  0  0
  9 36  1  0  0  0  0
 10 37  1  0  0  0  0
 11 38  1  0  0  0  0
 12 39  1  0  0  0  0
 13 40  1  0  0  0  0
 14 41  1  0  0  0  0
 22 42  1  0  0  0  0
 22 43  1  0  0  0  0
 22 44  1  0  0  0  0
 23 45  1  0  0  0  0
 23 46  1  0  0  0  0
 24 47  1  0  0  0  0
 25 48  1  0  0  0  0
 26 49  1  0  0  0  0
M  END
> <clash_score>
0

> <docking_score>
-7.185647964477539

> <overlap_score>
0.8833889961242676

$$$$
BENZO_292_1
  -OEChem-08222022463D

 46 49  0     1  0  0  0  0  0999 V2000
    4.2460    1.7520   20.8250 C   0  0  0  0  0  0  0  0  0  0  0  0
    3.8860    2.1050   19.5250 C   0  0  0  0  0  0  0  0  0  0  0  0
    5.3890    1.0010   21.0690 C   0  0  0  0  0  0  0  0  0  0  0  0
    9.1890   -3.5540   24.0140 C   0  0  0  0  0  0  0  0  0  0  0  0
    7.8700   -2.0610   25.3550 C   0  0  0  0  0  0  0  0  0  0  0  0
    9.5890   -2.4950   23.2210 C   0  0  0  0  0  0  0  0  0  0  0  0
    8.2550   -1.0010   24.5520 C   0  0  0  0  0  0  0  0  0  0  0  0
    4.6610    1.7170   18.4380 C   0  0  0  0  0  0  0  0  0  0  0  0
   13.1058   -0.2791   23.5772 C   0  0  0  0  0  0  0  0  0  0  0  0
    7.5840   -0.2700   18.5160 C   0  0  0  0  0  0  0  0  0  0  0  0
   14.1974   -0.7534   22.8836 C   0  0  0  0  0  0  0  0  0  0  0  0
   12.3642   -0.0940   21.3822 C   0  0  0  0  0  0  0  0  0  0  0  0
    6.1460    0.6070   19.9750 C   0  0  0  0  0  0  0  0  0  0  0  0
    8.3450   -3.3440   25.0980 C   0  0  0  0  0  0  0  0  0  0  0  0
    9.1280   -1.2090   23.4870 C   0  0  0  0  0  0  0  0  0  0  0  0
   12.0437    0.1027   22.7075 C   0  0  0  0  0  0  0  0  0  0  0  0
    5.7970    0.9500   18.6730 C   0  0  0  0  0  0  0  0  0  0  0  0
    7.2710   -0.1460   19.8310 C   0  0  0  0  0  0  0  0  0  0  0  0
    9.0430    0.2380   21.4940 C   0  0  0  0  0  0  0  0  0  0  0  0
    7.9517   -4.4787   25.9770 C   0  0  0  0  0  0  0  0  0  0  0  0
   10.7220    0.6590   23.1850 C   0  0  0  0  0  0  0  0  0  0  0  0
    9.5820   -0.1080   22.7000 C   0  0  1  0  0  0  0  0  0  0  0  0
    6.7100    0.3850   17.8100 N   0  0  0  0  0  0  0  0  0  0  0  0
    8.0950   -0.7700   20.8440 N   0  0  0  0  0  0  0  0  0  0  0  0
    9.2950    1.3000   20.9480 O   0  0  0  0  0  0  0  0  0  0  0  0
   13.9398   -0.7369   21.1908 S   0  0  0  0  0  0  0  0  0  0  0  0
    3.6208    2.0704   21.6579 H   0  0  0  0  0  0  0  0  0  0  0  0
    2.9857    2.6926   19.3615 H   0  0  0  0  0  0  0  0  0  0  0  0
    5.6664    0.7407   22.0807 H   0  0  0  0  0  0  0  0  0  0  0  0
    9.5416   -4.5625   23.7818 H   0  0  0  0  0  0  0  0  0  0  0  0
    7.1926   -1.8847   26.1916 H   0  0  0  0  0  0  0  0  0  0  0  0
   10.2688   -2.6720   22.3870 H   0  0  0  0  0  0  0  0  0  0  0  0
    7.8705   -0.0015   24.7579 H   0  0  0  0  0  0  0  0  0  0  0  0
    4.3794    2.0106   17.4221 H   0  0  0  0  0  0  0  0  0  0  0  0
   13.0750   -0.2107   24.6573 H   0  0  0  0  0  0  0  0  0  0  0  0
    8.4172   -0.8135   18.0384 H   0  0  0  0  0  0  0  0  0  0  0  0
   15.1341   -1.1080   23.2899 H   0  0  0  0  0  0  0  0  0  0  0  0
   11.7521    0.1087   20.5143 H   0  0  0  0  0  0  0  0  0  0  0  0
    8.6661   -4.5883   26.8021 H   0  0  0  0  0  0  0  0  0  0  0  0
    6.9508   -4.3263   26.4014 H   0  0  0  0  0  0  0  0  0  0  0  0
    7.9188   -5.4228   25.4175 H   0  0  0  0  0  0  0  0  0  0  0  0
   10.7266    0.7141   24.2815 H   0  0  0  0  0  0  0  0  0  0  0  0
   10.6502    1.7003   22.8412 H   0  0  0  0  0  0  0  0  0  0  0  0
    8.7027    0.7972   23.4026 H   0  0  0  0  0  0  0  0  0  0  0  0
    6.6715    0.4865   16.8044 H   0  0  0  0  0  0  0  0  0  0  0  0
    8.0730   -1.6176   21.0751 H   0  0  0  0  0  0  0  0  0  0  0  0
  1  2  1  0  0  0  0
  1  3  2  0  0  0  0
  2  8  2  0  0  0  0
  3 13  1  0  0  0  0
  4  6  2  0  0  0  0
  4 14  1  0  0  0  0
  5  7  1  0  0  0  0
  5 14  2  0  0  0  0
  6 15  1  0  0  0  0
  7 15  2  0  0  0  0
  8 17  1  0  0  0  0
  9 11  2  0  0  0  0
  9 16  1  0  0  0  0
 10 18  2  0  0  0  0
 10 23  1  0  0  0  0
 11 26  1  0  0  0  0
 12 16  2  0  0  0  0
 12 26  1  0  0  0  0
 13 17  2  0  0  0  0
 13 18  1  0  0  0  0
 14 20  1  0  0  0  0
 15 22  1  0  0  0  0
 16 21  1  0  0  0  0
 17 23  1  0  0  0  0
 18 24  1  0  0  0  0
 19 22  1  0  0  0  0
 19 24  1  0  0  0  0
 19 25  2  0  0  0  0
 21 22  1  1  0  0  0
  1 27  1  0  0  0  0
  2 28  1  0  0  0  0
  3 29  1  0  0  0  0
  4 30  1  0  0  0  0
  5 31  1  0  0  0  0
  6 32  1  0  0  0  0
  7 33  1  0  0  0  0
  8 34  1  0  0  0  0
  9 35  1  0  0  0  0
 10 36  1  0  0  0  0
 11 37  1  0  0  0  0
 12 38  1  0  0  0  0
 20 39  1  0  0  0  0
 20 40  1  0  0  0  0
 20 41  1  0  0  0  0
 21 42  1  0  0  0  0
 21 43  1  0  0  0  0
 22 44  1  0  0  0  0
 23 45  1  0  0  0  0
 24 46  1  0  0  0  0
M  END
> <clash_score>
0

> <docking_score>
-6.398201942443848

> <overlap_score>
0.8589656949043274

$$$$
BENZO_292_2
  -OEChem-08222022463D

 46 49  0     1  0  0  0  0  0999 V2000
    4.2460    1.7520   20.8250 C   0  0  0  0  0  0  0  0  0  0  0  0
    3.8860    2.1050   19.5250 C   0  0  0  0  0  0  0  0  0  0  0  0
    5.3890    1.0010   21.0690 C   0  0  0  0  0  0  0  0  0  0  0  0
    9.1890   -3.5540   24.0140 C   0  0  0  0  0  0  0  0  0  0  0  0
    7.8700   -2.0610   25.3550 C   0  0  0  0  0  0  0  0  0  0  0  0
    9.5890   -2.4950   23.2210 C   0  0  0  0  0  0  0  0  0  0  0  0
    8.2550   -1.0010   24.5520 C   0  0  0  0  0  0  0  0  0  0  0  0
    4.6610    1.7170   18.4380 C   0  0  0  0  0  0  0  0  0  0  0  0
   12.2697   -1.3786   23.5962 C   0  0  0  0  0  0  0  0  0  0  0  0
    7.5840   -0.2700   18.5160 C   0  0  0  0  0  0  0  0  0  0  0  0
   13.0792   -1.9302   24.5647 C   0  0  0  0  0  0  0  0  0  0  0  0
   12.0282    0.1612   25.3205 C   0  0  0  0  0  0  0  0  0  0  0  0
    6.1460    0.6070   19.9750 C   0  0  0  0  0  0  0  0  0  0  0  0
    8.3450   -3.3440   25.0980 C   0  0  0  0  0  0  0  0  0  0  0  0
    9.1280   -1.2090   23.4870 C   0  0  0  0  0  0  0  0  0  0  0  0
   11.6609   -0.1670   24.0339 C   0  0  0  0  0  0  0  0  0  0  0  0
    5.7970    0.9500   18.6730 C   0  0  0  0  0  0  0  0  0  0  0  0
    7.2710   -0.1460   19.8310 C   0  0  0  0  0  0  0  0  0  0  0  0
    9.0430    0.2380   21.4940 C   0  0  0  0  0  0  0  0  0  0  0  0
    7.9517   -4.4787   25.9770 C   0  0  0  0  0  0  0  0  0  0  0  0
   10.7220    0.6590   23.1850 C   0  0  0  0  0  0  0  0  0  0  0  0
    9.5820   -0.1080   22.7000 C   0  0  2  0  0  0  0  0  0  0  0  0
    6.7100    0.3850   17.8100 N   0  0  0  0  0  0  0  0  0  0  0  0
    8.0950   -0.7700   20.8440 N   0  0  0  0  0  0  0  0  0  0  0  0
    9.2950    1.3000   20.9480 O   0  0  0  0  0  0  0  0  0  0  0  0
   13.1030   -0.9887   25.9949 S   0  0  0  0  0  0  0  0  0  0  0  0
    3.6208    2.0704   21.6579 H   0  0  0  0  0  0  0  0  0  0  0  0
    2.9857    2.6926   19.3615 H   0  0  0  0  0  0  0  0  0  0  0  0
    5.6664    0.7407   22.0807 H   0  0  0  0  0  0  0  0  0  0  0  0
    9.5416   -4.5625   23.7818 H   0  0  0  0  0  0  0  0  0  0  0  0
    7.1926   -1.8847   26.1916 H   0  0  0  0  0  0  0  0  0  0  0  0
   10.2688   -2.6720   22.3870 H   0  0  0  0  0  0  0  0  0  0  0  0
    7.8705   -0.0015   24.7579 H   0  0  0  0  0  0  0  0  0  0  0  0
    4.3794    2.0106   17.4221 H   0  0  0  0  0  0  0  0  0  0  0  0
   12.1237   -1.8267   22.6214 H   0  0  0  0  0  0  0  0  0  0  0  0
    8.4172   -0.8135   18.0384 H   0  0  0  0  0  0  0  0  0  0  0  0
   13.6572   -2.8413   24.5012 H   0  0  0  0  0  0  0  0  0  0  0  0
   11.7183    1.0194   25.9006 H   0  0  0  0  0  0  0  0  0  0  0  0
    8.6661   -4.5883   26.8021 H   0  0  0  0  0  0  0  0  0  0  0  0
    6.9508   -4.3263   26.4014 H   0  0  0  0  0  0  0  0  0  0  0  0
    7.9188   -5.4228   25.4175 H   0  0  0  0  0  0  0  0  0  0  0  0
   10.3958    1.5383   23.7557 H   0  0  0  0  0  0  0  0  0  0  0  0
   11.2964    1.0584   22.3376 H   0  0  0  0  0  0  0  0  0  0  0  0
   10.5413   -0.9955   22.0233 H   0  0  0  0  0  0  0  0  0  0  0  0
    6.6715    0.4865   16.8044 H   0  0  0  0  0  0  0  0  0  0  0  0
    8.0730   -1.6176   21.0751 H   0  0  0  0  0  0  0  0  0  0  0  0
  1  2  1  0  0  0  0
  1  3  2  0  0  0  0
  2  8  2  0  0  0  0
  3 13  1  0  0  0  0
  4  6  2  0  0  0  0
  4 14  1  0  0  0  0
  5  7  1  0  0  0  0
  5 14  2  0  0  0  0
  6 15  1  0  0  0  0
  7 15  2  0  0  0  0
  8 17  1  0  0  0  0
  9 11  2  0  0  0  0
  9 16  1  0  0  0  0
 10 18  2  0  0  0  0
 10 23  1  0  0  0  0
 11 26  1  0  0  0  0
 12 16  2  0  0  0  0
 12 26  1  0  0  0  0
 13 17  2  0  0  0  0
 13 18  1  0  0  0  0
 14 20  1  0  0  0  0
 15 22  1  0  0  0  0
 16 21  1  0  0  0  0
 17 23  1  0  0  0  0
 18 24  1  0  0  0  0
 19 22  1  0  0  0  0
 19 24  1  0  0  0  0
 19 25  2  0  0  0  0
 21 22  1  6  0  0  0
  1 27  1  0  0  0  0
  2 28  1  0  0  0  0
  3 29  1  0  0  0  0
  4 30  1  0  0  0  0
  5 31  1  0  0  0  0
  6 32  1  0  0  0  0
  7 33  1  0  0  0  0
  8 34  1  0  0  0  0
  9 35  1  0  0  0  0
 10 36  1  0  0  0  0
 11 37  1  0  0  0  0
 12 38  1  0  0  0  0
 20 39  1  0  0  0  0
 20 40  1  0  0  0  0
 20 41  1  0  0  0  0
 21 42  1  0  0  0  0
 21 43  1  0  0  0  0
 22 44  1  0  0  0  0
 23 45  1  0  0  0  0
 24 46  1  0  0  0  0
M  END
> <clash_score>
0

> <docking_score>
-5.019128799438477

> <overlap_score>
0.8264032602310181

$$$$
BENZO_291_1
  -OEChem-08222022463D

 61 65  0     1  0  0  0  0  0999 V2000
    4.2460    1.7520   20.8250 C   0  0  0  0  0  0  0  0  0  0  0  0
    3.8860    2.1050   19.5250 C   0  0  0  0  0  0  0  0  0  0  0  0
    5.3890    1.0010   21.0690 C   0  0  0  0  0  0  0  0  0  0  0  0
    9.5890   -2.4950   23.2210 C   0  0  0  0  0  0  0  0  0  0  0  0
    8.2550   -1.0010   24.5520 C   0  0  0  0  0  0  0  0  0  0  0  0
    4.6610    1.7170   18.4380 C   0  0  0  0  0  0  0  0  0  0  0  0
    9.1890   -3.5540   24.0140 C   0  0  0  0  0  0  0  0  0  0  0  0
    7.8700   -2.0610   25.3550 C   0  0  0  0  0  0  0  0  0  0  0  0
   13.2924    0.1786   23.3840 C   0  0  0  0  0  0  0  0  0  0  0  0
   12.3227   -0.5596   21.5537 C   0  0  0  0  0  0  0  0  0  0  0  0
    7.5840   -0.2700   18.5160 C   0  0  0  0  0  0  0  0  0  0  0  0
    6.1460    0.6070   19.9750 C   0  0  0  0  0  0  0  0  0  0  0  0
    9.1280   -1.2090   23.4870 C   0  0  0  0  0  0  0  0  0  0  0  0
   12.0528    0.1138   22.7200 C   0  0  0  0  0  0  0  0  0  0  0  0
    5.7970    0.9500   18.6730 C   0  0  0  0  0  0  0  0  0  0  0  0
    8.3450   -3.3440   25.0980 C   0  0  0  0  0  0  0  0  0  0  0  0
    7.2710   -0.1460   19.8310 C   0  0  0  0  0  0  0  0  0  0  0  0
    9.0430    0.2380   21.4940 C   0  0  0  0  0  0  0  0  0  0  0  0
    7.9496   -4.9537   28.7345 C   0  0  0  0  0  0  0  0  0  0  0  0
    6.8919   -4.0607   28.0818 C   0  0  0  0  0  0  0  0  0  0  0  0
    9.2470   -4.9693   27.9230 C   0  0  0  0  0  0  0  0  0  0  0  0
    6.6889   -4.4385   26.6147 C   0  0  0  0  0  0  0  0  0  0  0  0
    8.9871   -5.3207   26.4549 C   0  0  0  0  0  0  0  0  0  0  0  0
   14.4073   -1.5491   20.5768 C   0  0  0  0  0  0  0  0  0  0  0  0
   10.7220    0.6590   23.1850 C   0  0  0  0  0  0  0  0  0  0  0  0
    9.5820   -0.1080   22.7000 C   0  0  1  0  0  0  0  0  0  0  0  0
   14.2767   -0.4070   22.6967 N   0  0  0  0  0  0  0  0  0  0  0  0
    6.7100    0.3850   17.8100 N   0  0  0  0  0  0  0  0  0  0  0  0
   13.6557   -0.8463   21.5888 N   0  0  0  0  0  0  0  0  0  0  0  0
    7.9769   -4.4027   25.9163 N   0  0  0  0  0  0  0  0  0  0  0  0
    8.0950   -0.7700   20.8440 N   0  0  0  0  0  0  0  0  0  0  0  0
    9.2950    1.3000   20.9480 O   0  0  0  0  0  0  0  0  0  0  0  0
    3.6208    2.0704   21.6579 H   0  0  0  0  0  0  0  0  0  0  0  0
    2.9857    2.6926   19.3615 H   0  0  0  0  0  0  0  0  0  0  0  0
    5.6664    0.7407   22.0807 H   0  0  0  0  0  0  0  0  0  0  0  0
   10.2684   -2.6719   22.3867 H   0  0  0  0  0  0  0  0  0  0  0  0
    7.8717   -0.0016   24.7596 H   0  0  0  0  0  0  0  0  0  0  0  0
    4.3794    2.0106   17.4221 H   0  0  0  0  0  0  0  0  0  0  0  0
    9.5443   -4.5616   23.7817 H   0  0  0  0  0  0  0  0  0  0  0  0
    7.1921   -1.8821   26.1908 H   0  0  0  0  0  0  0  0  0  0  0  0
   13.5219    0.6268   24.3404 H   0  0  0  0  0  0  0  0  0  0  0  0
   11.6952   -0.8530   20.7231 H   0  0  0  0  0  0  0  0  0  0  0  0
    8.4172   -0.8135   18.0384 H   0  0  0  0  0  0  0  0  0  0  0  0
    8.1558   -4.5961   29.7550 H   0  0  0  0  0  0  0  0  0  0  0  0
    7.5611   -5.9778   28.8324 H   0  0  0  0  0  0  0  0  0  0  0  0
    5.9459   -4.1594   28.6209 H   0  0  0  0  0  0  0  0  0  0  0  0
    7.2011   -3.0160   28.1536 H   0  0  0  0  0  0  0  0  0  0  0  0
    9.7290   -3.9880   27.9846 H   0  0  0  0  0  0  0  0  0  0  0  0
    9.9437   -5.6964   28.3562 H   0  0  0  0  0  0  0  0  0  0  0  0
    6.2543   -5.4402   26.5659 H   0  0  0  0  0  0  0  0  0  0  0  0
    5.9909   -3.7397   26.1451 H   0  0  0  0  0  0  0  0  0  0  0  0
    9.9128   -5.2367   25.8843 H   0  0  0  0  0  0  0  0  0  0  0  0
    8.6365   -6.3517   26.3987 H   0  0  0  0  0  0  0  0  0  0  0  0
   14.7895   -0.8108   19.8669 H   0  0  0  0  0  0  0  0  0  0  0  0
   15.2329   -2.0907   21.0468 H   0  0  0  0  0  0  0  0  0  0  0  0
   13.7520   -2.2637   20.0711 H   0  0  0  0  0  0  0  0  0  0  0  0
   10.7177    0.7189   24.2812 H   0  0  0  0  0  0  0  0  0  0  0  0
   10.6426    1.6980   22.8361 H   0  0  0  0  0  0  0  0  0  0  0  0
    8.7036    0.8022   23.4008 H   0  0  0  0  0  0  0  0  0  0  0  0
    6.6715    0.4865   16.8044 H   0  0  0  0  0  0  0  0  0  0  0  0
    8.0917   -1.6083   21.0911 H   0  0  0  0  0  0  0  0  0  0  0  0
  1  2  1  0  0  0  0
  1  3  2  0  0  0  0
  2  6  2  0  0  0  0
  3 12  1  0  0  0  0
  4  7  2  0  0  0  0
  4 13  1  0  0  0  0
  5  8  1  0  0  0  0
  5 13  2  0  0  0  0
  6 15  1  0  0  0  0
  7 16  1  0  0  0  0
  8 16  2  0  0  0  0
  9 14  1  0  0  0  0
  9 27  2  0  0  0  0
 10 14  2  0  0  0  0
 10 29  1  0  0  0  0
 11 17  2  0  0  0  0
 11 28  1  0  0  0  0
 12 15  2  0  0  0  0
 12 17  1  0  0  0  0
 13 26  1  0  0  0  0
 14 25  1  0  0  0  0
 15 28  1  0  0  0  0
 16 30  1  0  0  0  0
 17 31  1  0  0  0  0
 18 26  1  0  0  0  0
 18 31  1  0  0  0  0
 18 32  2  0  0  0  0
 19 20  1  0  0  0  0
 19 21  1  0  0  0  0
 20 22  1  0  0  0  0
 21 23  1  0  0  0  0
 22 30  1  0  0  0  0
 23 30  1  0  0  0  0
 24 29  1  0  0  0  0
 25 26  1  1  0  0  0
 27 29  1  0  0  0  0
  1 33  1  0  0  0  0
  2 34  1  0  0  0  0
  3 35  1  0  0  0  0
  4 36  1  0  0  0  0
  5 37  1  0  0  0  0
  6 38  1  0  0  0  0
  7 39  1  0  0  0  0
  8 40  1  0  0  0  0
  9 41  1  0  0  0  0
 10 42  1  0  0  0  0
 11 43  1  0  0  0  0
 19 44  1  0  0  0  0
 19 45  1  0  0  0  0
 20 46  1  0  0  0  0
 20 47  1  0  0  0  0
 21 48  1  0  0  0  0
 21 49  1  0  0  0  0
 22 50  1  0  0  0  0
 22 51  1  0  0  0  0
 23 52  1  0  0  0  0
 23 53  1  0  0  0  0
 24 54  1  0  0  0  0
 24 55  1  0  0  0  0
 24 56  1  0  0  0  0
 25 57  1  0  0  0  0
 25 58  1  0  0  0  0
 26 59  1  0  0  0  0
 28 60  1  0  0  0  0
 31 61  1  0  0  0  0
M  END
> <clash_score>
0

> <docking_score>
-8.52541732788086

> <overlap_score>
0.9499579668045044

$$$$
BENZO_291_2
  -OEChem-08222022463D

 61 65  0     1  0  0  0  0  0999 V2000
    4.2460    1.7520   20.8250 C   0  0  0  0  0  0  0  0  0  0  0  0
    3.8860    2.1050   19.5250 C   0  0  0  0  0  0  0  0  0  0  0  0
    5.3890    1.0010   21.0690 C   0  0  0  0  0  0  0  0  0  0  0  0
    9.5890   -2.4950   23.2210 C   0  0  0  0  0  0  0  0  0  0  0  0
    8.2550   -1.0010   24.5520 C   0  0  0  0  0  0  0  0  0  0  0  0
    4.6610    1.7170   18.4380 C   0  0  0  0  0  0  0  0  0  0  0  0
    9.1890   -3.5540   24.0140 C   0  0  0  0  0  0  0  0  0  0  0  0
    7.8700   -2.0610   25.3550 C   0  0  0  0  0  0  0  0  0  0  0  0
   12.1478   -0.7466   24.8788 C   0  0  0  0  0  0  0  0  0  0  0  0
   12.9365   -0.6363   22.8292 C   0  0  0  0  0  0  0  0  0  0  0  0
    7.5840   -0.2700   18.5160 C   0  0  0  0  0  0  0  0  0  0  0  0
    6.1460    0.6070   19.9750 C   0  0  0  0  0  0  0  0  0  0  0  0
    9.1280   -1.2090   23.4870 C   0  0  0  0  0  0  0  0  0  0  0  0
   11.8895   -0.2037   23.6058 C   0  0  0  0  0  0  0  0  0  0  0  0
    5.7970    0.9500   18.6730 C   0  0  0  0  0  0  0  0  0  0  0  0
    8.3450   -3.3440   25.0980 C   0  0  0  0  0  0  0  0  0  0  0  0
    7.2710   -0.1460   19.8310 C   0  0  0  0  0  0  0  0  0  0  0  0
    9.0430    0.2380   21.4940 C   0  0  0  0  0  0  0  0  0  0  0  0
    7.9496   -4.9537   28.7345 C   0  0  0  0  0  0  0  0  0  0  0  0
    6.8919   -4.0607   28.0818 C   0  0  0  0  0  0  0  0  0  0  0  0
    9.2470   -4.9693   27.9230 C   0  0  0  0  0  0  0  0  0  0  0  0
    6.6889   -4.4385   26.6147 C   0  0  0  0  0  0  0  0  0  0  0  0
    8.9871   -5.3207   26.4549 C   0  0  0  0  0  0  0  0  0  0  0  0
   14.9529   -2.0519   23.2864 C   0  0  0  0  0  0  0  0  0  0  0  0
   10.7220    0.6590   23.1850 C   0  0  0  0  0  0  0  0  0  0  0  0
    9.5820   -0.1080   22.7000 C   0  0  2  0  0  0  0  0  0  0  0  0
   13.2706   -1.4691   24.9131 N   0  0  0  0  0  0  0  0  0  0  0  0
    6.7100    0.3850   17.8100 N   0  0  0  0  0  0  0  0  0  0  0  0
   13.7272   -1.3833   23.6520 N   0  0  0  0  0  0  0  0  0  0  0  0
    7.9769   -4.4027   25.9163 N   0  0  0  0  0  0  0  0  0  0  0  0
    8.0950   -0.7700   20.8440 N   0  0  0  0  0  0  0  0  0  0  0  0
    9.2950    1.3000   20.9480 O   0  0  0  0  0  0  0  0  0  0  0  0
    3.6208    2.0704   21.6579 H   0  0  0  0  0  0  0  0  0  0  0  0
    2.9857    2.6926   19.3615 H   0  0  0  0  0  0  0  0  0  0  0  0
    5.6664    0.7407   22.0807 H   0  0  0  0  0  0  0  0  0  0  0  0
   10.2684   -2.6719   22.3867 H   0  0  0  0  0  0  0  0  0  0  0  0
    7.8717   -0.0016   24.7596 H   0  0  0  0  0  0  0  0  0  0  0  0
    4.3794    2.0106   17.4221 H   0  0  0  0  0  0  0  0  0  0  0  0
    9.5443   -4.5616   23.7817 H   0  0  0  0  0  0  0  0  0  0  0  0
    7.1921   -1.8821   26.1908 H   0  0  0  0  0  0  0  0  0  0  0  0
   11.5656   -0.6480   25.7841 H   0  0  0  0  0  0  0  0  0  0  0  0
   13.1794   -0.4813   21.7867 H   0  0  0  0  0  0  0  0  0  0  0  0
    8.4172   -0.8135   18.0384 H   0  0  0  0  0  0  0  0  0  0  0  0
    8.1558   -4.5961   29.7550 H   0  0  0  0  0  0  0  0  0  0  0  0
    7.5611   -5.9778   28.8324 H   0  0  0  0  0  0  0  0  0  0  0  0
    5.9459   -4.1594   28.6209 H   0  0  0  0  0  0  0  0  0  0  0  0
    7.2011   -3.0160   28.1536 H   0  0  0  0  0  0  0  0  0  0  0  0
    9.7290   -3.9880   27.9846 H   0  0  0  0  0  0  0  0  0  0  0  0
    9.9437   -5.6964   28.3562 H   0  0  0  0  0  0  0  0  0  0  0  0
    6.2543   -5.4402   26.5659 H   0  0  0  0  0  0  0  0  0  0  0  0
    5.9909   -3.7397   26.1451 H   0  0  0  0  0  0  0  0  0  0  0  0
    9.9128   -5.2367   25.8843 H   0  0  0  0  0  0  0  0  0  0  0  0
    8.6365   -6.3517   26.3987 H   0  0  0  0  0  0  0  0  0  0  0  0
   15.7795   -1.3567   23.4548 H   0  0  0  0  0  0  0  0  0  0  0  0
   15.0760   -2.9481   23.9008 H   0  0  0  0  0  0  0  0  0  0  0  0
   14.9053   -2.3433   22.2334 H   0  0  0  0  0  0  0  0  0  0  0  0
   10.4315    1.3089   24.0208 H   0  0  0  0  0  0  0  0  0  0  0  0
   11.0719    1.3385   22.3955 H   0  0  0  0  0  0  0  0  0  0  0  0
   10.5438   -0.9939   22.0202 H   0  0  0  0  0  0  0  0  0  0  0  0
    6.6715    0.4865   16.8044 H   0  0  0  0  0  0  0  0  0  0  0  0
    8.0917   -1.6083   21.0911 H   0  0  0  0  0  0  0  0  0  0  0  0
  1  2  1  0  0  0  0
  1  3  2  0  0  0  0
  2  6  2  0  0  0  0
  3 12  1  0  0  0  0
  4  7  2  0  0  0  0
  4 13  1  0  0  0  0
  5  8  1  0  0  0  0
  5 13  2  0  0  0  0
  6 15  1  0  0  0  0
  7 16  1  0  0  0  0
  8 16  2  0  0  0  0
  9 14  1  0  0  0  0
  9 27  2  0  0  0  0
 10 14  2  0  0  0  0
 10 29  1  0  0  0  0
 11 17  2  0  0  0  0
 11 28  1  0  0  0  0
 12 15  2  0  0  0  0
 12 17  1  0  0  0  0
 13 26  1  0  0  0  0
 14 25  1  0  0  0  0
 15 28  1  0  0  0  0
 16 30  1  0  0  0  0
 17 31  1  0  0  0  0
 18 26  1  0  0  0  0
 18 31  1  0  0  0  0
 18 32  2  0  0  0  0
 19 20  1  0  0  0  0
 19 21  1  0  0  0  0
 20 22  1  0  0  0  0
 21 23  1  0  0  0  0
 22 30  1  0  0  0  0
 23 30  1  0  0  0  0
 24 29  1  0  0  0  0
 25 26  1  6  0  0  0
 27 29  1  0  0  0  0
  1 33  1  0  0  0  0
  2 34  1  0  0  0  0
  3 35  1  0  0  0  0
  4 36  1  0  0  0  0
  5 37  1  0  0  0  0
  6 38  1  0  0  0  0
  7 39  1  0  0  0  0
  8 40  1  0  0  0  0
  9 41  1  0  0  0  0
 10 42  1  0  0  0  0
 11 43  1  0  0  0  0
 19 44  1  0  0  0  0
 19 45  1  0  0  0  0
 20 46  1  0  0  0  0
 20 47  1  0  0  0  0
 21 48  1  0  0  0  0
 21 49  1  0  0  0  0
 22 50  1  0  0  0  0
 22 51  1  0  0  0  0
 23 52  1  0  0  0  0
 23 53  1  0  0  0  0
 24 54  1  0  0  0  0
 24 55  1  0  0  0  0
 24 56  1  0  0  0  0
 25 57  1  0  0  0  0
 25 58  1  0  0  0  0
 26 59  1  0  0  0  0
 28 60  1  0  0  0  0
 31 61  1  0  0  0  0
M  END
> <clash_score>
0

> <docking_score>
-7.055118560791016

> <overlap_score>
0.9732677340507507

$$$$
BENZO_290_2
  -OEChem-08222022463D

 61 65  0     1  0  0  0  0  0999 V2000
    4.2460    1.7520   20.8250 C   0  0  0  0  0  0  0  0  0  0  0  0
    3.8860    2.1050   19.5250 C   0  0  0  0  0  0  0  0  0  0  0  0
   13.3731   -1.0509   21.0656 C   0  0  0  0  0  0  0  0  0  0  0  0
    5.3890    1.0010   21.0690 C   0  0  0  0  0  0  0  0  0  0  0  0
   12.1451   -0.5485   21.4959 C   0  0  0  0  0  0  0  0  0  0  0  0
    9.5890   -2.4950   23.2210 C   0  0  0  0  0  0  0  0  0  0  0  0
    8.2550   -1.0010   24.5520 C   0  0  0  0  0  0  0  0  0  0  0  0
    4.6610    1.7170   18.4380 C   0  0  0  0  0  0  0  0  0  0  0  0
    9.1890   -3.5540   24.0140 C   0  0  0  0  0  0  0  0  0  0  0  0
    7.8700   -2.0610   25.3550 C   0  0  0  0  0  0  0  0  0  0  0  0
   14.5088   -0.8912   21.8596 C   0  0  0  0  0  0  0  0  0  0  0  0
   13.1885    0.2735   23.5140 C   0  0  0  0  0  0  0  0  0  0  0  0
    7.5840   -0.2700   18.5160 C   0  0  0  0  0  0  0  0  0  0  0  0
    6.1460    0.6070   19.9750 C   0  0  0  0  0  0  0  0  0  0  0  0
    9.1280   -1.2090   23.4870 C   0  0  0  0  0  0  0  0  0  0  0  0
   12.0528    0.1138   22.7200 C   0  0  0  0  0  0  0  0  0  0  0  0
    5.7970    0.9500   18.6730 C   0  0  0  0  0  0  0  0  0  0  0  0
    8.3450   -3.3440   25.0980 C   0  0  0  0  0  0  0  0  0  0  0  0
    7.2710   -0.1460   19.8310 C   0  0  0  0  0  0  0  0  0  0  0  0
   14.4165   -0.2290   23.0837 C   0  0  0  0  0  0  0  0  0  0  0  0
    9.0430    0.2380   21.4940 C   0  0  0  0  0  0  0  0  0  0  0  0
    7.9496   -4.9537   28.7345 C   0  0  0  0  0  0  0  0  0  0  0  0
    6.8919   -4.0607   28.0818 C   0  0  0  0  0  0  0  0  0  0  0  0
    9.2470   -4.9693   27.9230 C   0  0  0  0  0  0  0  0  0  0  0  0
    6.6889   -4.4385   26.6147 C   0  0  0  0  0  0  0  0  0  0  0  0
    8.9871   -5.3207   26.4549 C   0  0  0  0  0  0  0  0  0  0  0  0
   10.7220    0.6590   23.1850 C   0  0  0  0  0  0  0  0  0  0  0  0
    9.5820   -0.1080   22.7000 C   0  0  2  0  0  0  0  0  0  0  0  0
    6.7100    0.3850   17.8100 N   0  0  0  0  0  0  0  0  0  0  0  0
    7.9769   -4.4027   25.9163 N   0  0  0  0  0  0  0  0  0  0  0  0
    8.0950   -0.7700   20.8440 N   0  0  0  0  0  0  0  0  0  0  0  0
    9.2950    1.3000   20.9480 O   0  0  0  0  0  0  0  0  0  0  0  0
   15.8183   -0.0312   24.0623 Cl  0  0  0  0  0  0  0  0  0  0  0  0
    3.6208    2.0704   21.6579 H   0  0  0  0  0  0  0  0  0  0  0  0
    2.9857    2.6926   19.3615 H   0  0  0  0  0  0  0  0  0  0  0  0
   13.4446   -1.5664   20.1122 H   0  0  0  0  0  0  0  0  0  0  0  0
    5.6664    0.7407   22.0807 H   0  0  0  0  0  0  0  0  0  0  0  0
   11.2654   -0.6774   20.8707 H   0  0  0  0  0  0  0  0  0  0  0  0
   10.2684   -2.6719   22.3867 H   0  0  0  0  0  0  0  0  0  0  0  0
    7.8717   -0.0016   24.7596 H   0  0  0  0  0  0  0  0  0  0  0  0
    4.3794    2.0106   17.4221 H   0  0  0  0  0  0  0  0  0  0  0  0
    9.5443   -4.5616   23.7817 H   0  0  0  0  0  0  0  0  0  0  0  0
    7.1921   -1.8821   26.1908 H   0  0  0  0  0  0  0  0  0  0  0  0
   15.4594   -1.2877   21.5114 H   0  0  0  0  0  0  0  0  0  0  0  0
   13.1112    0.7902   24.4679 H   0  0  0  0  0  0  0  0  0  0  0  0
    8.4172   -0.8135   18.0384 H   0  0  0  0  0  0  0  0  0  0  0  0
    8.1558   -4.5961   29.7550 H   0  0  0  0  0  0  0  0  0  0  0  0
    7.5611   -5.9778   28.8324 H   0  0  0  0  0  0  0  0  0  0  0  0
    5.9459   -4.1594   28.6209 H   0  0  0  0  0  0  0  0  0  0  0  0
    7.2011   -3.0160   28.1536 H   0  0  0  0  0  0  0  0  0  0  0  0
    9.7290   -3.9880   27.9846 H   0  0  0  0  0  0  0  0  0  0  0  0
    9.9437   -5.6964   28.3562 H   0  0  0  0  0  0  0  0  0  0  0  0
    6.2543   -5.4402   26.5659 H   0  0  0  0  0  0  0  0  0  0  0  0
    5.9909   -3.7397   26.1451 H   0  0  0  0  0  0  0  0  0  0  0  0
    9.9128   -5.2367   25.8843 H   0  0  0  0  0  0  0  0  0  0  0  0
    8.6365   -6.3517   26.3987 H   0  0  0  0  0  0  0  0  0  0  0  0
   10.7177    0.7189   24.2812 H   0  0  0  0  0  0  0  0  0  0  0  0
   10.6426    1.6980   22.8361 H   0  0  0  0  0  0  0  0  0  0  0  0
    8.7036    0.8022   23.4008 H   0  0  0  0  0  0  0  0  0  0  0  0
    6.6715    0.4865   16.8044 H   0  0  0  0  0  0  0  0  0  0  0  0
    8.0917   -1.6083   21.0911 H   0  0  0  0  0  0  0  0  0  0  0  0
  1  2  1  0  0  0  0
  1  4  2  0  0  0  0
  2  8  2  0  0  0  0
  3  5  2  0  0  0  0
  3 11  1  0  0  0  0
  4 14  1  0  0  0  0
  5 16  1  0  0  0  0
  6  9  2  0  0  0  0
  6 15  1  0  0  0  0
  7 10  1  0  0  0  0
  7 15  2  0  0  0  0
  8 17  1  0  0  0  0
  9 18  1  0  0  0  0
 10 18  2  0  0  0  0
 11 20  2  0  0  0  0
 12 16  2  0  0  0  0
 12 20  1  0  0  0  0
 13 19  2  0  0  0  0
 13 29  1  0  0  0  0
 14 17  2  0  0  0  0
 14 19  1  0  0  0  0
 15 28  1  0  0  0  0
 16 27  1  0  0  0  0
 17 29  1  0  0  0  0
 18 30  1  0  0  0  0
 19 31  1  0  0  0  0
 20 33  1  0  0  0  0
 21 28  1  6  0  0  0
 21 31  1  0  0  0  0
 21 32  2  0  0  0  0
 22 23  1  0  0  0  0
 22 24  1  0  0  0  0
 23 25  1  0  0  0  0
 24 26  1  0  0  0  0
 25 30  1  0  0  0  0
 26 30  1  0  0  0  0
 27 28  1  0  0  0  0
  1 34  1  0  0  0  0
  2 35  1  0  0  0  0
  3 36  1  0  0  0  0
  4 37  1  0  0  0  0
  5 38  1  0  0  0  0
  6 39  1  0  0  0  0
  7 40  1  0  0  0  0
  8 41  1  0  0  0  0
  9 42  1  0  0  0  0
 10 43  1  0  0  0  0
 11 44  1  0  0  0  0
 12 45  1  0  0  0  0
 13 46  1  0  0  0  0
 22 47  1  0  0  0  0
 22 48  1  0  0  0  0
 23 49  1  0  0  0  0
 23 50  1  0  0  0  0
 24 51  1  0  0  0  0
 24 52  1  0  0  0  0
 25 53  1  0  0  0  0
 25 54  1  0  0  0  0
 26 55  1  0  0  0  0
 26 56  1  0  0  0  0
 27 57  1  0  0  0  0
 27 58  1  0  0  0  0
 28 59  1  0  0  0  0
 29 60  1  0  0  0  0
 31 61  1  0  0  0  0
M  END
> <clash_score>
1.4705834064312366

> <docking_score>
-6.5310258865356445

> <overlap_score>
0.9515371322631836

$$$$
BENZO_290_1
  -OEChem-08222022463D

 61 65  0     1  0  0  0  0  0999 V2000
    4.2460    1.7520   20.8250 C   0  0  0  0  0  0  0  0  0  0  0  0
    3.8860    2.1050   19.5250 C   0  0  0  0  0  0  0  0  0  0  0  0
   13.0607   -1.4512   25.3114 C   0  0  0  0  0  0  0  0  0  0  0  0
    5.3890    1.0010   21.0690 C   0  0  0  0  0  0  0  0  0  0  0  0
   11.9842   -0.6540   24.9226 C   0  0  0  0  0  0  0  0  0  0  0  0
    9.5890   -2.4950   23.2210 C   0  0  0  0  0  0  0  0  0  0  0  0
    8.2550   -1.0010   24.5520 C   0  0  0  0  0  0  0  0  0  0  0  0
    4.6610    1.7170   18.4380 C   0  0  0  0  0  0  0  0  0  0  0  0
    9.1890   -3.5540   24.0140 C   0  0  0  0  0  0  0  0  0  0  0  0
    7.8700   -2.0610   25.3550 C   0  0  0  0  0  0  0  0  0  0  0  0
   14.0427   -1.7979   24.3834 C   0  0  0  0  0  0  0  0  0  0  0  0
   12.8715   -0.5505   22.6778 C   0  0  0  0  0  0  0  0  0  0  0  0
    7.5840   -0.2700   18.5160 C   0  0  0  0  0  0  0  0  0  0  0  0
    6.1460    0.6070   19.9750 C   0  0  0  0  0  0  0  0  0  0  0  0
    9.1280   -1.2090   23.4870 C   0  0  0  0  0  0  0  0  0  0  0  0
   11.8895   -0.2037   23.6058 C   0  0  0  0  0  0  0  0  0  0  0  0
    5.7970    0.9500   18.6730 C   0  0  0  0  0  0  0  0  0  0  0  0
    8.3450   -3.3440   25.0980 C   0  0  0  0  0  0  0  0  0  0  0  0
    7.2710   -0.1460   19.8310 C   0  0  0  0  0  0  0  0  0  0  0  0
   13.9481   -1.3476   23.0666 C   0  0  0  0  0  0  0  0  0  0  0  0
    9.0430    0.2380   21.4940 C   0  0  0  0  0  0  0  0  0  0  0  0
    7.9496   -4.9537   28.7345 C   0  0  0  0  0  0  0  0  0  0  0  0
    6.8919   -4.0607   28.0818 C   0  0  0  0  0  0  0  0  0  0  0  0
    9.2470   -4.9693   27.9230 C   0  0  0  0  0  0  0  0  0  0  0  0
    6.6889   -4.4385   26.6147 C   0  0  0  0  0  0  0  0  0  0  0  0
    8.9871   -5.3207   26.4549 C   0  0  0  0  0  0  0  0  0  0  0  0
   10.7220    0.6590   23.1850 C   0  0  0  0  0  0  0  0  0  0  0  0
    9.5820   -0.1080   22.7000 C   0  0  1  0  0  0  0  0  0  0  0  0
    6.7100    0.3850   17.8100 N   0  0  0  0  0  0  0  0  0  0  0  0
    7.9769   -4.4027   25.9163 N   0  0  0  0  0  0  0  0  0  0  0  0
    8.0950   -0.7700   20.8440 N   0  0  0  0  0  0  0  0  0  0  0  0
    9.2950    1.3000   20.9480 O   0  0  0  0  0  0  0  0  0  0  0  0
   15.1593   -1.7768   21.9219 Cl  0  0  0  0  0  0  0  0  0  0  0  0
    3.6208    2.0704   21.6579 H   0  0  0  0  0  0  0  0  0  0  0  0
    2.9857    2.6926   19.3615 H   0  0  0  0  0  0  0  0  0  0  0  0
   13.1340   -1.8017   26.3368 H   0  0  0  0  0  0  0  0  0  0  0  0
    5.6664    0.7407   22.0807 H   0  0  0  0  0  0  0  0  0  0  0  0
   11.2236   -0.3888   25.6524 H   0  0  0  0  0  0  0  0  0  0  0  0
   10.2684   -2.6719   22.3867 H   0  0  0  0  0  0  0  0  0  0  0  0
    7.8717   -0.0016   24.7596 H   0  0  0  0  0  0  0  0  0  0  0  0
    4.3794    2.0106   17.4221 H   0  0  0  0  0  0  0  0  0  0  0  0
    9.5443   -4.5616   23.7817 H   0  0  0  0  0  0  0  0  0  0  0  0
    7.1921   -1.8821   26.1908 H   0  0  0  0  0  0  0  0  0  0  0  0
   14.8761   -2.4201   24.7005 H   0  0  0  0  0  0  0  0  0  0  0  0
   12.7934   -0.1965   21.6525 H   0  0  0  0  0  0  0  0  0  0  0  0
    8.4172   -0.8135   18.0384 H   0  0  0  0  0  0  0  0  0  0  0  0
    8.1558   -4.5961   29.7550 H   0  0  0  0  0  0  0  0  0  0  0  0
    7.5611   -5.9778   28.8324 H   0  0  0  0  0  0  0  0  0  0  0  0
    5.9459   -4.1594   28.6209 H   0  0  0  0  0  0  0  0  0  0  0  0
    7.2011   -3.0160   28.1536 H   0  0  0  0  0  0  0  0  0  0  0  0
    9.7290   -3.9880   27.9846 H   0  0  0  0  0  0  0  0  0  0  0  0
    9.9437   -5.6964   28.3562 H   0  0  0  0  0  0  0  0  0  0  0  0
    6.2543   -5.4402   26.5659 H   0  0  0  0  0  0  0  0  0  0  0  0
    5.9909   -3.7397   26.1451 H   0  0  0  0  0  0  0  0  0  0  0  0
    9.9128   -5.2367   25.8843 H   0  0  0  0  0  0  0  0  0  0  0  0
    8.6365   -6.3517   26.3987 H   0  0  0  0  0  0  0  0  0  0  0  0
   10.4315    1.3089   24.0208 H   0  0  0  0  0  0  0  0  0  0  0  0
   11.0719    1.3385   22.3955 H   0  0  0  0  0  0  0  0  0  0  0  0
   10.5438   -0.9939   22.0202 H   0  0  0  0  0  0  0  0  0  0  0  0
    6.6715    0.4865   16.8044 H   0  0  0  0  0  0  0  0  0  0  0  0
    8.0917   -1.6083   21.0911 H   0  0  0  0  0  0  0  0  0  0  0  0
  1  2  1  0  0  0  0
  1  4  2  0  0  0  0
  2  8  2  0  0  0  0
  3  5  2  0  0  0  0
  3 11  1  0  0  0  0
  4 14  1  0  0  0  0
  5 16  1  0  0  0  0
  6  9  2  0  0  0  0
  6 15  1  0  0  0  0
  7 10  1  0  0  0  0
  7 15  2  0  0  0  0
  8 17  1  0  0  0  0
  9 18  1  0  0  0  0
 10 18  2  0  0  0  0
 11 20  2  0  0  0  0
 12 16  2  0  0  0  0
 12 20  1  0  0  0  0
 13 19  2  0  0  0  0
 13 29  1  0  0  0  0
 14 17  2  0  0  0  0
 14 19  1  0  0  0  0
 15 28  1  0  0  0  0
 16 27  1  0  0  0  0
 17 29  1  0  0  0  0
 18 30  1  0  0  0  0
 19 31  1  0  0  0  0
 20 33  1  0  0  0  0
 21 28  1  1  0  0  0
 21 31  1  0  0  0  0
 21 32  2  0  0  0  0
 22 23  1  0  0  0  0
 22 24  1  0  0  0  0
 23 25  1  0  0  0  0
 24 26  1  0  0  0  0
 25 30  1  0  0  0  0
 26 30  1  0  0  0  0
 27 28  1  0  0  0  0
  1 34  1  0  0  0  0
  2 35  1  0  0  0  0
  3 36  1  0  0  0  0
  4 37  1  0  0  0  0
  5 38  1  0  0  0  0
  6 39  1  0  0  0  0
  7 40  1  0  0  0  0
  8 41  1  0  0  0  0
  9 42  1  0  0  0  0
 10 43  1  0  0  0  0
 11 44  1  0  0  0  0
 12 45  1  0  0  0  0
 13 46  1  0  0  0  0
 22 47  1  0  0  0  0
 22 48  1  0  0  0  0
 23 49  1  0  0  0  0
 23 50  1  0  0  0  0
 24 51  1  0  0  0  0
 24 52  1  0  0  0  0
 25 53  1  0  0  0  0
 25 54  1  0  0  0  0
 26 55  1  0  0  0  0
 26 56  1  0  0  0  0
 27 57  1  0  0  0  0
 27 58  1  0  0  0  0
 28 59  1  0  0  0  0
 29 60  1  0  0  0  0
 31 61  1  0  0  0  0
M  END
> <clash_score>
0

> <docking_score>
-7.125170707702637

> <overlap_score>
0.9773684144020081

$$$$
BENZO_294_1
  -OEChem-08222022463D

 49 52  0     1  0  0  0  0  0999 V2000
    4.2460    1.7520   20.8250 C   0  0  0  0  0  0  0  0  0  0  0  0
    3.8860    2.1050   19.5250 C   0  0  0  0  0  0  0  0  0  0  0  0
   13.8166    0.0398   21.0674 C   0  0  0  0  0  0  0  0  0  0  0  0
    5.3890    1.0010   21.0690 C   0  0  0  0  0  0  0  0  0  0  0  0
   12.5963    0.5519   21.5081 C   0  0  0  0  0  0  0  0  0  0  0  0
    9.1890   -3.5540   24.0140 C   0  0  0  0  0  0  0  0  0  0  0  0
    7.8700   -2.0610   25.3550 C   0  0  0  0  0  0  0  0  0  0  0  0
    9.5890   -2.4950   23.2210 C   0  0  0  0  0  0  0  0  0  0  0  0
    8.2550   -1.0010   24.5520 C   0  0  0  0  0  0  0  0  0  0  0  0
    4.6610    1.7170   18.4380 C   0  0  0  0  0  0  0  0  0  0  0  0
   14.4843   -0.9216   21.8261 C   0  0  0  0  0  0  0  0  0  0  0  0
   12.7115   -0.8586   23.4663 C   0  0  0  0  0  0  0  0  0  0  0  0
    7.5840   -0.2700   18.5160 C   0  0  0  0  0  0  0  0  0  0  0  0
    6.1460    0.6070   19.9750 C   0  0  0  0  0  0  0  0  0  0  0  0
    8.3450   -3.3440   25.0980 C   0  0  0  0  0  0  0  0  0  0  0  0
    9.1280   -1.2090   23.4870 C   0  0  0  0  0  0  0  0  0  0  0  0
   12.0437    0.1027   22.7075 C   0  0  0  0  0  0  0  0  0  0  0  0
    5.7970    0.9500   18.6730 C   0  0  0  0  0  0  0  0  0  0  0  0
    7.2710   -0.1460   19.8310 C   0  0  0  0  0  0  0  0  0  0  0  0
   13.9318   -1.3708   23.0255 C   0  0  0  0  0  0  0  0  0  0  0  0
    9.0430    0.2380   21.4940 C   0  0  0  0  0  0  0  0  0  0  0  0
    7.9517   -4.4787   25.9770 C   0  0  0  0  0  0  0  0  0  0  0  0
   10.7220    0.6590   23.1850 C   0  0  0  0  0  0  0  0  0  0  0  0
    9.5820   -0.1080   22.7000 C   0  0  1  0  0  0  0  0  0  0  0  0
    6.7100    0.3850   17.8100 N   0  0  0  0  0  0  0  0  0  0  0  0
    8.0950   -0.7700   20.8440 N   0  0  0  0  0  0  0  0  0  0  0  0
    9.2950    1.3000   20.9480 O   0  0  0  0  0  0  0  0  0  0  0  0
   14.7567   -2.5560   23.9617 Cl  0  0  0  0  0  0  0  0  0  0  0  0
    3.6208    2.0704   21.6579 H   0  0  0  0  0  0  0  0  0  0  0  0
    2.9857    2.6926   19.3615 H   0  0  0  0  0  0  0  0  0  0  0  0
   14.2465    0.3899   20.1334 H   0  0  0  0  0  0  0  0  0  0  0  0
    5.6664    0.7407   22.0807 H   0  0  0  0  0  0  0  0  0  0  0  0
   12.0830    1.3008   20.9105 H   0  0  0  0  0  0  0  0  0  0  0  0
    9.5416   -4.5625   23.7818 H   0  0  0  0  0  0  0  0  0  0  0  0
    7.1926   -1.8847   26.1916 H   0  0  0  0  0  0  0  0  0  0  0  0
   10.2688   -2.6720   22.3870 H   0  0  0  0  0  0  0  0  0  0  0  0
    7.8705   -0.0015   24.7579 H   0  0  0  0  0  0  0  0  0  0  0  0
    4.3794    2.0106   17.4221 H   0  0  0  0  0  0  0  0  0  0  0  0
   15.4348   -1.3117   21.4705 H   0  0  0  0  0  0  0  0  0  0  0  0
   12.2763   -1.2059   24.4005 H   0  0  0  0  0  0  0  0  0  0  0  0
    8.4172   -0.8135   18.0384 H   0  0  0  0  0  0  0  0  0  0  0  0
    8.6661   -4.5883   26.8021 H   0  0  0  0  0  0  0  0  0  0  0  0
    6.9508   -4.3263   26.4014 H   0  0  0  0  0  0  0  0  0  0  0  0
    7.9188   -5.4228   25.4175 H   0  0  0  0  0  0  0  0  0  0  0  0
   10.7266    0.7141   24.2815 H   0  0  0  0  0  0  0  0  0  0  0  0
   10.6502    1.7003   22.8412 H   0  0  0  0  0  0  0  0  0  0  0  0
    8.7027    0.7972   23.4026 H   0  0  0  0  0  0  0  0  0  0  0  0
    6.6715    0.4865   16.8044 H   0  0  0  0  0  0  0  0  0  0  0  0
    8.0730   -1.6176   21.0751 H   0  0  0  0  0  0  0  0  0  0  0  0
  1  2  1  0  0  0  0
  1  4  2  0  0  0  0
  2 10  2  0  0  0  0
  3  5  2  0  0  0  0
  3 11  1  0  0  0  0
  4 14  1  0  0  0  0
  5 17  1  0  0  0  0
  6  8  2  0  0  0  0
  6 15  1  0  0  0  0
  7  9  1  0  0  0  0
  7 15  2  0  0  0  0
  8 16  1  0  0  0  0
  9 16  2  0  0  0  0
 10 18  1  0  0  0  0
 11 20  2  0  0  0  0
 12 17  2  0  0  0  0
 12 20  1  0  0  0  0
 13 19  2  0  0  0  0
 13 25  1  0  0  0  0
 14 18  2  0  0  0  0
 14 19  1  0  0  0  0
 15 22  1  0  0  0  0
 16 24  1  0  0  0  0
 17 23  1  0  0  0  0
 18 25  1  0  0  0  0
 19 26  1  0  0  0  0
 20 28  1  0  0  0  0
 21 24  1  0  0  0  0
 21 26  1  0  0  0  0
 21 27  2  0  0  0  0
 23 24  1  1  0  0  0
  1 29  1  0  0  0  0
  2 30  1  0  0  0  0
  3 31  1  0  0  0  0
  4 32  1  0  0  0  0
  5 33  1  0  0  0  0
  6 34  1  0  0  0  0
  7 35  1  0  0  0  0
  8 36  1  0  0  0  0
  9 37  1  0  0  0  0
 10 38  1  0  0  0  0
 11 39  1  0  0  0  0
 12 40  1  0  0  0  0
 13 41  1  0  0  0  0
 22 42  1  0  0  0  0
 22 43  1  0  0  0  0
 22 44  1  0  0  0  0
 23 45  1  0  0  0  0
 23 46  1  0  0  0  0
 24 47  1  0  0  0  0
 25 48  1  0  0  0  0
 26 49  1  0  0  0  0
M  END
> <clash_score>
0

> <docking_score>
-5.786260604858398

> <overlap_score>
0.8771754503250122

$$$$
BENZO_294_2
  -OEChem-08222022463D

 49 52  0     1  0  0  0  0  0999 V2000
    4.2460    1.7520   20.8250 C   0  0  0  0  0  0  0  0  0  0  0  0
    3.8860    2.1050   19.5250 C   0  0  0  0  0  0  0  0  0  0  0  0
   13.0334   -1.4852   25.3072 C   0  0  0  0  0  0  0  0  0  0  0  0
    5.3890    1.0010   21.0690 C   0  0  0  0  0  0  0  0  0  0  0  0
   11.9669   -0.6739   24.9199 C   0  0  0  0  0  0  0  0  0  0  0  0
    9.1890   -3.5540   24.0140 C   0  0  0  0  0  0  0  0  0  0  0  0
    7.8700   -2.0610   25.3550 C   0  0  0  0  0  0  0  0  0  0  0  0
    9.5890   -2.4950   23.2210 C   0  0  0  0  0  0  0  0  0  0  0  0
    8.2550   -1.0010   24.5520 C   0  0  0  0  0  0  0  0  0  0  0  0
    4.6610    1.7170   18.4380 C   0  0  0  0  0  0  0  0  0  0  0  0
   14.0118   -1.8413   24.3790 C   0  0  0  0  0  0  0  0  0  0  0  0
   12.8570   -0.5751   22.6760 C   0  0  0  0  0  0  0  0  0  0  0  0
    7.5840   -0.2700   18.5160 C   0  0  0  0  0  0  0  0  0  0  0  0
    6.1460    0.6070   19.9750 C   0  0  0  0  0  0  0  0  0  0  0  0
    8.3450   -3.3440   25.0980 C   0  0  0  0  0  0  0  0  0  0  0  0
    9.1280   -1.2090   23.4870 C   0  0  0  0  0  0  0  0  0  0  0  0
   11.8786   -0.2190   23.6043 C   0  0  0  0  0  0  0  0  0  0  0  0
    5.7970    0.9500   18.6730 C   0  0  0  0  0  0  0  0  0  0  0  0
    7.2710   -0.1460   19.8310 C   0  0  0  0  0  0  0  0  0  0  0  0
   13.9235   -1.3863   23.0634 C   0  0  0  0  0  0  0  0  0  0  0  0
    9.0430    0.2380   21.4940 C   0  0  0  0  0  0  0  0  0  0  0  0
    7.9517   -4.4787   25.9770 C   0  0  0  0  0  0  0  0  0  0  0  0
   10.7220    0.6590   23.1850 C   0  0  0  0  0  0  0  0  0  0  0  0
    9.5820   -0.1080   22.7000 C   0  0  2  0  0  0  0  0  0  0  0  0
    6.7100    0.3850   17.8100 N   0  0  0  0  0  0  0  0  0  0  0  0
    8.0950   -0.7700   20.8440 N   0  0  0  0  0  0  0  0  0  0  0  0
    9.2950    1.3000   20.9480 O   0  0  0  0  0  0  0  0  0  0  0  0
   15.1303   -1.8270   21.9183 Cl  0  0  0  0  0  0  0  0  0  0  0  0
    3.6208    2.0704   21.6579 H   0  0  0  0  0  0  0  0  0  0  0  0
    2.9857    2.6926   19.3615 H   0  0  0  0  0  0  0  0  0  0  0  0
   13.1017   -1.8394   26.3318 H   0  0  0  0  0  0  0  0  0  0  0  0
    5.6664    0.7407   22.0807 H   0  0  0  0  0  0  0  0  0  0  0  0
   11.2091   -0.4015   25.6498 H   0  0  0  0  0  0  0  0  0  0  0  0
    9.5416   -4.5625   23.7818 H   0  0  0  0  0  0  0  0  0  0  0  0
    7.1926   -1.8847   26.1916 H   0  0  0  0  0  0  0  0  0  0  0  0
   10.2688   -2.6720   22.3870 H   0  0  0  0  0  0  0  0  0  0  0  0
    7.8705   -0.0015   24.7579 H   0  0  0  0  0  0  0  0  0  0  0  0
    4.3794    2.0106   17.4221 H   0  0  0  0  0  0  0  0  0  0  0  0
   14.8373   -2.4744   24.6949 H   0  0  0  0  0  0  0  0  0  0  0  0
   12.7839   -0.2174   21.6515 H   0  0  0  0  0  0  0  0  0  0  0  0
    8.4172   -0.8135   18.0384 H   0  0  0  0  0  0  0  0  0  0  0  0
    8.6661   -4.5883   26.8021 H   0  0  0  0  0  0  0  0  0  0  0  0
    6.9508   -4.3263   26.4014 H   0  0  0  0  0  0  0  0  0  0  0  0
    7.9188   -5.4228   25.4175 H   0  0  0  0  0  0  0  0  0  0  0  0
   10.4369    1.3080   24.0233 H   0  0  0  0  0  0  0  0  0  0  0  0
   11.0815    1.3384   22.3997 H   0  0  0  0  0  0  0  0  0  0  0  0
   10.5413   -0.9955   22.0233 H   0  0  0  0  0  0  0  0  0  0  0  0
    6.6715    0.4865   16.8044 H   0  0  0  0  0  0  0  0  0  0  0  0
    8.0730   -1.6176   21.0751 H   0  0  0  0  0  0  0  0  0  0  0  0
  1  2  1  0  0  0  0
  1  4  2  0  0  0  0
  2 10  2  0  0  0  0
  3  5  2  0  0  0  0
  3 11  1  0  0  0  0
  4 14  1  0  0  0  0
  5 17  1  0  0  0  0
  6  8  2  0  0  0  0
  6 15  1  0  0  0  0
  7  9  1  0  0  0  0
  7 15  2  0  0  0  0
  8 16  1  0  0  0  0
  9 16  2  0  0  0  0
 10 18  1  0  0  0  0
 11 20  2  0  0  0  0
 12 17  2  0  0  0  0
 12 20  1  0  0  0  0
 13 19  2  0  0  0  0
 13 25  1  0  0  0  0
 14 18  2  0  0  0  0
 14 19  1  0  0  0  0
 15 22  1  0  0  0  0
 16 24  1  0  0  0  0
 17 23  1  0  0  0  0
 18 25  1  0  0  0  0
 19 26  1  0  0  0  0
 20 28  1  0  0  0  0
 21 24  1  0  0  0  0
 21 26  1  0  0  0  0
 21 27  2  0  0  0  0
 23 24  1  6  0  0  0
  1 29  1  0  0  0  0
  2 30  1  0  0  0  0
  3 31  1  0  0  0  0
  4 32  1  0  0  0  0
  5 33  1  0  0  0  0
  6 34  1  0  0  0  0
  7 35  1  0  0  0  0
  8 36  1  0  0  0  0
  9 37  1  0  0  0  0
 10 38  1  0  0  0  0
 11 39  1  0  0  0  0
 12 40  1  0  0  0  0
 13 41  1  0  0  0  0
 22 42  1  0  0  0  0
 22 43  1  0  0  0  0
 22 44  1  0  0  0  0
 23 45  1  0  0  0  0
 23 46  1  0  0  0  0
 24 47  1  0  0  0  0
 25 48  1  0  0  0  0
 26 49  1  0  0  0  0
M  END
> <clash_score>
0

> <docking_score>
-6.306552886962891

> <overlap_score>
0.8895042538642883

$$$$
BENZO_295_1
  -OEChem-08222022463D

 49 52  0     1  0  0  0  0  0999 V2000
    4.2460    1.7520   20.8250 C   0  0  0  0  0  0  0  0  0  0  0  0
    3.8860    2.1050   19.5250 C   0  0  0  0  0  0  0  0  0  0  0  0
    5.3890    1.0010   21.0690 C   0  0  0  0  0  0  0  0  0  0  0  0
    9.1890   -3.5540   24.0140 C   0  0  0  0  0  0  0  0  0  0  0  0
    7.8700   -2.0610   25.3550 C   0  0  0  0  0  0  0  0  0  0  0  0
    9.5890   -2.4950   23.2210 C   0  0  0  0  0  0  0  0  0  0  0  0
    8.2550   -1.0010   24.5520 C   0  0  0  0  0  0  0  0  0  0  0  0
    4.6610    1.7170   18.4380 C   0  0  0  0  0  0  0  0  0  0  0  0
   12.7477    0.4352   21.5346 C   0  0  0  0  0  0  0  0  0  0  0  0
   12.8294   -0.8403   23.3239 C   0  0  0  0  0  0  0  0  0  0  0  0
    7.5840   -0.2700   18.5160 C   0  0  0  0  0  0  0  0  0  0  0  0
    6.1460    0.6070   19.9750 C   0  0  0  0  0  0  0  0  0  0  0  0
    8.3450   -3.3440   25.0980 C   0  0  0  0  0  0  0  0  0  0  0  0
    9.1280   -1.2090   23.4870 C   0  0  0  0  0  0  0  0  0  0  0  0
   12.0437    0.1027   22.7075 C   0  0  0  0  0  0  0  0  0  0  0  0
    5.7970    0.9500   18.6730 C   0  0  0  0  0  0  0  0  0  0  0  0
    7.2710   -0.1460   19.8310 C   0  0  0  0  0  0  0  0  0  0  0  0
    9.0430    0.2380   21.4940 C   0  0  0  0  0  0  0  0  0  0  0  0
    7.9517   -4.4787   25.9770 C   0  0  0  0  0  0  0  0  0  0  0  0
   15.0234   -1.9028   22.7442 C   0  0  0  0  0  0  0  0  0  0  0  0
   10.7220    0.6590   23.1850 C   0  0  0  0  0  0  0  0  0  0  0  0
    9.5820   -0.1080   22.7000 C   0  0  1  0  0  0  0  0  0  0  0  0
   13.8926   -0.2416   21.4111 N   0  0  0  0  0  0  0  0  0  0  0  0
    6.7100    0.3850   17.8100 N   0  0  0  0  0  0  0  0  0  0  0  0
   13.9141   -1.0086   22.5144 N   0  0  0  0  0  0  0  0  0  0  0  0
    8.0950   -0.7700   20.8440 N   0  0  0  0  0  0  0  0  0  0  0  0
    9.2950    1.3000   20.9480 O   0  0  0  0  0  0  0  0  0  0  0  0
    3.6208    2.0704   21.6579 H   0  0  0  0  0  0  0  0  0  0  0  0
    2.9857    2.6926   19.3615 H   0  0  0  0  0  0  0  0  0  0  0  0
    5.6664    0.7407   22.0807 H   0  0  0  0  0  0  0  0  0  0  0  0
    9.5416   -4.5625   23.7818 H   0  0  0  0  0  0  0  0  0  0  0  0
    7.1926   -1.8847   26.1916 H   0  0  0  0  0  0  0  0  0  0  0  0
   10.2688   -2.6720   22.3870 H   0  0  0  0  0  0  0  0  0  0  0  0
    7.8705   -0.0015   24.7579 H   0  0  0  0  0  0  0  0  0  0  0  0
    4.3794    2.0106   17.4221 H   0  0  0  0  0  0  0  0  0  0  0  0
   12.4767    1.1426   20.7637 H   0  0  0  0  0  0  0  0  0  0  0  0
   12.7125   -1.3913   24.2472 H   0  0  0  0  0  0  0  0  0  0  0  0
    8.4172   -0.8135   18.0384 H   0  0  0  0  0  0  0  0  0  0  0  0
    8.6661   -4.5883   26.8021 H   0  0  0  0  0  0  0  0  0  0  0  0
    6.9508   -4.3263   26.4014 H   0  0  0  0  0  0  0  0  0  0  0  0
    7.9188   -5.4228   25.4175 H   0  0  0  0  0  0  0  0  0  0  0  0
   14.7824   -2.8646   22.2839 H   0  0  0  0  0  0  0  0  0  0  0  0
   15.9289   -1.4818   22.2983 H   0  0  0  0  0  0  0  0  0  0  0  0
   15.1758   -2.0203   23.8207 H   0  0  0  0  0  0  0  0  0  0  0  0
   10.7266    0.7141   24.2815 H   0  0  0  0  0  0  0  0  0  0  0  0
   10.6502    1.7003   22.8412 H   0  0  0  0  0  0  0  0  0  0  0  0
    8.7027    0.7972   23.4026 H   0  0  0  0  0  0  0  0  0  0  0  0
    6.6715    0.4865   16.8044 H   0  0  0  0  0  0  0  0  0  0  0  0
    8.0730   -1.6176   21.0751 H   0  0  0  0  0  0  0  0  0  0  0  0
  1  2  1  0  0  0  0
  1  3  2  0  0  0  0
  2  8  2  0  0  0  0
  3 12  1  0  0  0  0
  4  6  2  0  0  0  0
  4 13  1  0  0  0  0
  5  7  1  0  0  0  0
  5 13  2  0  0  0  0
  6 14  1  0  0  0  0
  7 14  2  0  0  0  0
  8 16  1  0  0  0  0
  9 15  1  0  0  0  0
  9 23  2  0  0  0  0
 10 15  2  0  0  0  0
 10 25  1  0  0  0  0
 11 17  2  0  0  0  0
 11 24  1  0  0  0  0
 12 16  2  0  0  0  0
 12 17  1  0  0  0  0
 13 19  1  0  0  0  0
 14 22  1  0  0  0  0
 15 21  1  0  0  0  0
 16 24  1  0  0  0  0
 17 26  1  0  0  0  0
 18 22  1  0  0  0  0
 18 26  1  0  0  0  0
 18 27  2  0  0  0  0
 20 25  1  0  0  0  0
 21 22  1  1  0  0  0
 23 25  1  0  0  0  0
  1 28  1  0  0  0  0
  2 29  1  0  0  0  0
  3 30  1  0  0  0  0
  4 31  1  0  0  0  0
  5 32  1  0  0  0  0
  6 33  1  0  0  0  0
  7 34  1  0  0  0  0
  8 35  1  0  0  0  0
  9 36  1  0  0  0  0
 10 37  1  0  0  0  0
 11 38  1  0  0  0  0
 19 39  1  0  0  0  0
 19 40  1  0  0  0  0
 19 41  1  0  0  0  0
 20 42  1  0  0  0  0
 20 43  1  0  0  0  0
 20 44  1  0  0  0  0
 21 45  1  0  0  0  0
 21 46  1  0  0  0  0
 22 47  1  0  0  0  0
 24 48  1  0  0  0  0
 26 49  1  0  0  0  0
M  END
> <clash_score>
0

> <docking_score>
-5.148218631744385

> <overlap_score>
0.8710414171218872

$$$$
BENZO_295_2
  -OEChem-08222022463D

 49 52  0     1  0  0  0  0  0999 V2000
    4.2460    1.7520   20.8250 C   0  0  0  0  0  0  0  0  0  0  0  0
    3.8860    2.1050   19.5250 C   0  0  0  0  0  0  0  0  0  0  0  0
    5.3890    1.0010   21.0690 C   0  0  0  0  0  0  0  0  0  0  0  0
    9.1890   -3.5540   24.0140 C   0  0  0  0  0  0  0  0  0  0  0  0
    7.8700   -2.0610   25.3550 C   0  0  0  0  0  0  0  0  0  0  0  0
    9.5890   -2.4950   23.2210 C   0  0  0  0  0  0  0  0  0  0  0  0
    8.2550   -1.0010   24.5520 C   0  0  0  0  0  0  0  0  0  0  0  0
    4.6610    1.7170   18.4380 C   0  0  0  0  0  0  0  0  0  0  0  0
   12.1294   -0.7684   24.8759 C   0  0  0  0  0  0  0  0  0  0  0  0
   12.9208   -0.6622   22.8272 C   0  0  0  0  0  0  0  0  0  0  0  0
    7.5840   -0.2700   18.5160 C   0  0  0  0  0  0  0  0  0  0  0  0
    6.1460    0.6070   19.9750 C   0  0  0  0  0  0  0  0  0  0  0  0
    8.3450   -3.3440   25.0980 C   0  0  0  0  0  0  0  0  0  0  0  0
    9.1280   -1.2090   23.4870 C   0  0  0  0  0  0  0  0  0  0  0  0
   11.8786   -0.2190   23.6043 C   0  0  0  0  0  0  0  0  0  0  0  0
    5.7970    0.9500   18.6730 C   0  0  0  0  0  0  0  0  0  0  0  0
    7.2710   -0.1460   19.8310 C   0  0  0  0  0  0  0  0  0  0  0  0
    9.0430    0.2380   21.4940 C   0  0  0  0  0  0  0  0  0  0  0  0
    7.9517   -4.4787   25.9770 C   0  0  0  0  0  0  0  0  0  0  0  0
   14.9196   -2.1033   23.2819 C   0  0  0  0  0  0  0  0  0  0  0  0
   10.7220    0.6590   23.1850 C   0  0  0  0  0  0  0  0  0  0  0  0
    9.5820   -0.1080   22.7000 C   0  0  2  0  0  0  0  0  0  0  0  0
   13.2434   -1.5045   24.9090 N   0  0  0  0  0  0  0  0  0  0  0  0
    6.7100    0.3850   17.8100 N   0  0  0  0  0  0  0  0  0  0  0  0
   13.7018   -1.4209   23.6485 N   0  0  0  0  0  0  0  0  0  0  0  0
    8.0950   -0.7700   20.8440 N   0  0  0  0  0  0  0  0  0  0  0  0
    9.2950    1.3000   20.9480 O   0  0  0  0  0  0  0  0  0  0  0  0
    3.6208    2.0704   21.6579 H   0  0  0  0  0  0  0  0  0  0  0  0
    2.9857    2.6926   19.3615 H   0  0  0  0  0  0  0  0  0  0  0  0
    5.6664    0.7407   22.0807 H   0  0  0  0  0  0  0  0  0  0  0  0
    9.5416   -4.5625   23.7818 H   0  0  0  0  0  0  0  0  0  0  0  0
    7.1926   -1.8847   26.1916 H   0  0  0  0  0  0  0  0  0  0  0  0
   10.2688   -2.6720   22.3870 H   0  0  0  0  0  0  0  0  0  0  0  0
    7.8705   -0.0015   24.7579 H   0  0  0  0  0  0  0  0  0  0  0  0
    4.3794    2.0106   17.4221 H   0  0  0  0  0  0  0  0  0  0  0  0
   11.5479   -0.6652   25.7811 H   0  0  0  0  0  0  0  0  0  0  0  0
   13.1664   -0.5073   21.7853 H   0  0  0  0  0  0  0  0  0  0  0  0
    8.4172   -0.8135   18.0384 H   0  0  0  0  0  0  0  0  0  0  0  0
    8.6661   -4.5883   26.8021 H   0  0  0  0  0  0  0  0  0  0  0  0
    6.9508   -4.3263   26.4014 H   0  0  0  0  0  0  0  0  0  0  0  0
    7.9188   -5.4228   25.4175 H   0  0  0  0  0  0  0  0  0  0  0  0
   15.7545   -1.4186   23.4527 H   0  0  0  0  0  0  0  0  0  0  0  0
   15.0313   -3.0027   23.8939 H   0  0  0  0  0  0  0  0  0  0  0  0
   14.8692   -2.3913   22.2281 H   0  0  0  0  0  0  0  0  0  0  0  0
   10.4369    1.3080   24.0233 H   0  0  0  0  0  0  0  0  0  0  0  0
   11.0815    1.3384   22.3997 H   0  0  0  0  0  0  0  0  0  0  0  0
   10.5413   -0.9955   22.0233 H   0  0  0  0  0  0  0  0  0  0  0  0
    6.6715    0.4865   16.8044 H   0  0  0  0  0  0  0  0  0  0  0  0
    8.0730   -1.6176   21.0751 H   0  0  0  0  0  0  0  0  0  0  0  0
  1  2  1  0  0  0  0
  1  3  2  0  0  0  0
  2  8  2  0  0  0  0
  3 12  1  0  0  0  0
  4  6  2  0  0  0  0
  4 13  1  0  0  0  0
  5  7  1  0  0  0  0
  5 13  2  0  0  0  0
  6 14  1  0  0  0  0
  7 14  2  0  0  0  0
  8 16  1  0  0  0  0
  9 15  1  0  0  0  0
  9 23  2  0  0  0  0
 10 15  2  0  0  0  0
 10 25  1  0  0  0  0
 11 17  2  0  0  0  0
 11 24  1  0  0  0  0
 12 16  2  0  0  0  0
 12 17  1  0  0  0  0
 13 19  1  0  0  0  0
 14 22  1  0  0  0  0
 15 21  1  0  0  0  0
 16 24  1  0  0  0  0
 17 26  1  0  0  0  0
 18 22  1  0  0  0  0
 18 26  1  0  0  0  0
 18 27  2  0  0  0  0
 20 25  1  0  0  0  0
 21 22  1  6  0  0  0
 23 25  1  0  0  0  0
  1 28  1  0  0  0  0
  2 29  1  0  0  0  0
  3 30  1  0  0  0  0
  4 31  1  0  0  0  0
  5 32  1  0  0  0  0
  6 33  1  0  0  0  0
  7 34  1  0  0  0  0
  8 35  1  0  0  0  0
  9 36  1  0  0  0  0
 10 37  1  0  0  0  0
 11 38  1  0  0  0  0
 19 39  1  0  0  0  0
 19 40  1  0  0  0  0
 19 41  1  0  0  0  0
 20 42  1  0  0  0  0
 20 43  1  0  0  0  0
 20 44  1  0  0  0  0
 21 45  1  0  0  0  0
 21 46  1  0  0  0  0
 22 47  1  0  0  0  0
 24 48  1  0  0  0  0
 26 49  1  0  0  0  0
M  END
> <clash_score>
0

> <docking_score>
-6.255838394165039

> <overlap_score>
0.8850175738334656

$$$$
BENZO_297_1
  -OEChem-08222022463D

 50 53  0     1  0  0  0  0  0999 V2000
   14.4830   -0.9237   21.8249 C   0  0  0  0  0  0  0  0  0  0  0  0
    4.2460    1.7520   20.8250 C   0  0  0  0  0  0  0  0  0  0  0  0
   13.9310   -1.3719   23.0248 C   0  0  0  0  0  0  0  0  0  0  0  0
   13.8154    0.0379   21.0662 C   0  0  0  0  0  0  0  0  0  0  0  0
    3.8860    2.1050   19.5250 C   0  0  0  0  0  0  0  0  0  0  0  0
    5.3890    1.0010   21.0690 C   0  0  0  0  0  0  0  0  0  0  0  0
   12.7114   -0.8588   23.4661 C   0  0  0  0  0  0  0  0  0  0  0  0
   12.5958    0.5510   21.5075 C   0  0  0  0  0  0  0  0  0  0  0  0
    9.5890   -2.4950   23.2210 C   0  0  0  0  0  0  0  0  0  0  0  0
    8.2550   -1.0010   24.5520 C   0  0  0  0  0  0  0  0  0  0  0  0
    4.6610    1.7170   18.4380 C   0  0  0  0  0  0  0  0  0  0  0  0
    9.1890   -3.5540   24.0140 C   0  0  0  0  0  0  0  0  0  0  0  0
    7.8700   -2.0610   25.3550 C   0  0  0  0  0  0  0  0  0  0  0  0
    7.5840   -0.2700   18.5160 C   0  0  0  0  0  0  0  0  0  0  0  0
    6.1460    0.6070   19.9750 C   0  0  0  0  0  0  0  0  0  0  0  0
   12.0437    0.1027   22.7075 C   0  0  0  0  0  0  0  0  0  0  0  0
    9.1280   -1.2090   23.4870 C   0  0  0  0  0  0  0  0  0  0  0  0
    5.7970    0.9500   18.6730 C   0  0  0  0  0  0  0  0  0  0  0  0
    7.2710   -0.1460   19.8310 C   0  0  0  0  0  0  0  0  0  0  0  0
    8.3450   -3.3440   25.0980 C   0  0  0  0  0  0  0  0  0  0  0  0
    9.0430    0.2380   21.4940 C   0  0  0  0  0  0  0  0  0  0  0  0
    7.1165   -4.0862   26.9914 C   0  0  0  0  0  0  0  0  0  0  0  0
   10.7220    0.6590   23.1850 C   0  0  0  0  0  0  0  0  0  0  0  0
    9.5820   -0.1080   22.7000 C   0  0  1  0  0  0  0  0  0  0  0  0
    6.7100    0.3850   17.8100 N   0  0  0  0  0  0  0  0  0  0  0  0
    8.0950   -0.7700   20.8440 N   0  0  0  0  0  0  0  0  0  0  0  0
    9.2950    1.3000   20.9480 O   0  0  0  0  0  0  0  0  0  0  0  0
    7.9856   -4.3803   25.8987 O   0  0  0  0  0  0  0  0  0  0  0  0
   15.4334   -1.3223   21.4820 H   0  0  0  0  0  0  0  0  0  0  0  0
    3.6208    2.0704   21.6579 H   0  0  0  0  0  0  0  0  0  0  0  0
   14.4512   -2.1198   23.6162 H   0  0  0  0  0  0  0  0  0  0  0  0
   14.2455    0.3879   20.1325 H   0  0  0  0  0  0  0  0  0  0  0  0
    2.9857    2.6926   19.3615 H   0  0  0  0  0  0  0  0  0  0  0  0
    5.6664    0.7407   22.0807 H   0  0  0  0  0  0  0  0  0  0  0  0
   12.2887   -1.2141   24.4023 H   0  0  0  0  0  0  0  0  0  0  0  0
   12.0827    1.2998   20.9098 H   0  0  0  0  0  0  0  0  0  0  0  0
   10.2677   -2.6721   22.3861 H   0  0  0  0  0  0  0  0  0  0  0  0
    7.8705   -0.0015   24.7586 H   0  0  0  0  0  0  0  0  0  0  0  0
    4.3794    2.0106   17.4221 H   0  0  0  0  0  0  0  0  0  0  0  0
    9.5403   -4.5634   23.7844 H   0  0  0  0  0  0  0  0  0  0  0  0
    7.1918   -1.8874   26.1909 H   0  0  0  0  0  0  0  0  0  0  0  0
    8.4172   -0.8135   18.0384 H   0  0  0  0  0  0  0  0  0  0  0  0
    6.9092   -5.0024   27.5498 H   0  0  0  0  0  0  0  0  0  0  0  0
    6.1847   -3.6591   26.6123 H   0  0  0  0  0  0  0  0  0  0  0  0
    7.6049   -3.3637   27.6496 H   0  0  0  0  0  0  0  0  0  0  0  0
   10.7266    0.7141   24.2815 H   0  0  0  0  0  0  0  0  0  0  0  0
   10.6502    1.7003   22.8412 H   0  0  0  0  0  0  0  0  0  0  0  0
    8.7027    0.7972   23.4026 H   0  0  0  0  0  0  0  0  0  0  0  0
    6.6715    0.4865   16.8044 H   0  0  0  0  0  0  0  0  0  0  0  0
    8.0730   -1.6176   21.0751 H   0  0  0  0  0  0  0  0  0  0  0  0
  1  3  1  0  0  0  0
  1  4  2  0  0  0  0
  2  5  1  0  0  0  0
  2  6  2  0  0  0  0
  3  7  2  0  0  0  0
  4  8  1  0  0  0  0
  5 11  2  0  0  0  0
  6 15  1  0  0  0  0
  7 16  1  0  0  0  0
  8 16  2  0  0  0  0
  9 12  2  0  0  0  0
  9 17  1  0  0  0  0
 10 13  1  0  0  0  0
 10 17  2  0  0  0  0
 11 18  1  0  0  0  0
 12 20  1  0  0  0  0
 13 20  2  0  0  0  0
 14 19  2  0  0  0  0
 14 25  1  0  0  0  0
 15 18  2  0  0  0  0
 15 19  1  0  0  0  0
 16 23  1  0  0  0  0
 17 24  1  0  0  0  0
 18 25  1  0  0  0  0
 19 26  1  0  0  0  0
 20 28  1  0  0  0  0
 21 24  1  0  0  0  0
 21 26  1  0  0  0  0
 21 27  2  0  0  0  0
 22 28  1  0  0  0  0
 23 24  1  1  0  0  0
  1 29  1  0  0  0  0
  2 30  1  0  0  0  0
  3 31  1  0  0  0  0
  4 32  1  0  0  0  0
  5 33  1  0  0  0  0
  6 34  1  0  0  0  0
  7 35  1  0  0  0  0
  8 36  1  0  0  0  0
  9 37  1  0  0  0  0
 10 38  1  0  0  0  0
 11 39  1  0  0  0  0
 12 40  1  0  0  0  0
 13 41  1  0  0  0  0
 14 42  1  0  0  0  0
 22 43  1  0  0  0  0
 22 44  1  0  0  0  0
 22 45  1  0  0  0  0
 23 46  1  0  0  0  0
 23 47  1  0  0  0  0
 24 48  1  0  0  0  0
 25 49  1  0  0  0  0
 26 50  1  0  0  0  0
M  END
> <clash_score>
0

> <docking_score>
-5.8778076171875

> <overlap_score>
0.8887331485748291

$$$$
BENZO_297_2
  -OEChem-08222022463D

 50 53  0     1  0  0  0  0  0999 V2000
   14.0137   -1.8398   24.3768 C   0  0  0  0  0  0  0  0  0  0  0  0
    4.2460    1.7520   20.8250 C   0  0  0  0  0  0  0  0  0  0  0  0
   13.0361   -1.4844   25.3061 C   0  0  0  0  0  0  0  0  0  0  0  0
   13.9239   -1.3848   23.0613 C   0  0  0  0  0  0  0  0  0  0  0  0
    3.8860    2.1050   19.5250 C   0  0  0  0  0  0  0  0  0  0  0  0
    5.3890    1.0010   21.0690 C   0  0  0  0  0  0  0  0  0  0  0  0
   11.9686   -0.6740   24.9198 C   0  0  0  0  0  0  0  0  0  0  0  0
   12.8563   -0.5744   22.6750 C   0  0  0  0  0  0  0  0  0  0  0  0
    9.5890   -2.4950   23.2210 C   0  0  0  0  0  0  0  0  0  0  0  0
    8.2550   -1.0010   24.5520 C   0  0  0  0  0  0  0  0  0  0  0  0
    4.6610    1.7170   18.4380 C   0  0  0  0  0  0  0  0  0  0  0  0
    9.1890   -3.5540   24.0140 C   0  0  0  0  0  0  0  0  0  0  0  0
    7.8700   -2.0610   25.3550 C   0  0  0  0  0  0  0  0  0  0  0  0
    7.5840   -0.2700   18.5160 C   0  0  0  0  0  0  0  0  0  0  0  0
    6.1460    0.6070   19.9750 C   0  0  0  0  0  0  0  0  0  0  0  0
   11.8786   -0.2190   23.6043 C   0  0  0  0  0  0  0  0  0  0  0  0
    9.1280   -1.2090   23.4870 C   0  0  0  0  0  0  0  0  0  0  0  0
    5.7970    0.9500   18.6730 C   0  0  0  0  0  0  0  0  0  0  0  0
    7.2710   -0.1460   19.8310 C   0  0  0  0  0  0  0  0  0  0  0  0
    8.3450   -3.3440   25.0980 C   0  0  0  0  0  0  0  0  0  0  0  0
    9.0430    0.2380   21.4940 C   0  0  0  0  0  0  0  0  0  0  0  0
    8.5106   -5.6662   25.5724 C   0  0  0  0  0  0  0  0  0  0  0  0
   10.7220    0.6590   23.1850 C   0  0  0  0  0  0  0  0  0  0  0  0
    9.5820   -0.1080   22.7000 C   0  0  2  0  0  0  0  0  0  0  0  0
    6.7100    0.3850   17.8100 N   0  0  0  0  0  0  0  0  0  0  0  0
    8.0950   -0.7700   20.8440 N   0  0  0  0  0  0  0  0  0  0  0  0
    9.2950    1.3000   20.9480 O   0  0  0  0  0  0  0  0  0  0  0  0
    7.9856   -4.3803   25.8987 O   0  0  0  0  0  0  0  0  0  0  0  0
   14.8456   -2.4698   24.6781 H   0  0  0  0  0  0  0  0  0  0  0  0
    3.6208    2.0704   21.6579 H   0  0  0  0  0  0  0  0  0  0  0  0
   13.1065   -1.8377   26.3307 H   0  0  0  0  0  0  0  0  0  0  0  0
   14.6854   -1.6605   22.3378 H   0  0  0  0  0  0  0  0  0  0  0  0
    2.9857    2.6926   19.3615 H   0  0  0  0  0  0  0  0  0  0  0  0
    5.6664    0.7407   22.0807 H   0  0  0  0  0  0  0  0  0  0  0  0
   11.2114   -0.4022   25.6506 H   0  0  0  0  0  0  0  0  0  0  0  0
   12.7944   -0.2247   21.6479 H   0  0  0  0  0  0  0  0  0  0  0  0
   10.2677   -2.6721   22.3861 H   0  0  0  0  0  0  0  0  0  0  0  0
    7.8705   -0.0015   24.7586 H   0  0  0  0  0  0  0  0  0  0  0  0
    4.3794    2.0106   17.4221 H   0  0  0  0  0  0  0  0  0  0  0  0
    9.5403   -4.5634   23.7844 H   0  0  0  0  0  0  0  0  0  0  0  0
    7.1918   -1.8874   26.1909 H   0  0  0  0  0  0  0  0  0  0  0  0
    8.4172   -0.8135   18.0384 H   0  0  0  0  0  0  0  0  0  0  0  0
    8.1445   -6.4032   26.2914 H   0  0  0  0  0  0  0  0  0  0  0  0
    9.6027   -5.6312   25.5944 H   0  0  0  0  0  0  0  0  0  0  0  0
    8.1770   -5.9422   24.5693 H   0  0  0  0  0  0  0  0  0  0  0  0
   10.4369    1.3080   24.0233 H   0  0  0  0  0  0  0  0  0  0  0  0
   11.0815    1.3384   22.3997 H   0  0  0  0  0  0  0  0  0  0  0  0
   10.5413   -0.9955   22.0233 H   0  0  0  0  0  0  0  0  0  0  0  0
    6.6715    0.4865   16.8044 H   0  0  0  0  0  0  0  0  0  0  0  0
    8.0730   -1.6176   21.0751 H   0  0  0  0  0  0  0  0  0  0  0  0
  1  3  1  0  0  0  0
  1  4  2  0  0  0  0
  2  5  1  0  0  0  0
  2  6  2  0  0  0  0
  3  7  2  0  0  0  0
  4  8  1  0  0  0  0
  5 11  2  0  0  0  0
  6 15  1  0  0  0  0
  7 16  1  0  0  0  0
  8 16  2  0  0  0  0
  9 12  2  0  0  0  0
  9 17  1  0  0  0  0
 10 13  1  0  0  0  0
 10 17  2  0  0  0  0
 11 18  1  0  0  0  0
 12 20  1  0  0  0  0
 13 20  2  0  0  0  0
 14 19  2  0  0  0  0
 14 25  1  0  0  0  0
 15 18  2  0  0  0  0
 15 19  1  0  0  0  0
 16 23  1  0  0  0  0
 17 24  1  0  0  0  0
 18 25  1  0  0  0  0
 19 26  1  0  0  0  0
 20 28  1  0  0  0  0
 21 24  1  0  0  0  0
 21 26  1  0  0  0  0
 21 27  2  0  0  0  0
 22 28  1  0  0  0  0
 23 24  1  6  0  0  0
  1 29  1  0  0  0  0
  2 30  1  0  0  0  0
  3 31  1  0  0  0  0
  4 32  1  0  0  0  0
  5 33  1  0  0  0  0
  6 34  1  0  0  0  0
  7 35  1  0  0  0  0
  8 36  1  0  0  0  0
  9 37  1  0  0  0  0
 10 38  1  0  0  0  0
 11 39  1  0  0  0  0
 12 40  1  0  0  0  0
 13 41  1  0  0  0  0
 14 42  1  0  0  0  0
 22 43  1  0  0  0  0
 22 44  1  0  0  0  0
 22 45  1  0  0  0  0
 23 46  1  0  0  0  0
 23 47  1  0  0  0  0
 24 48  1  0  0  0  0
 25 49  1  0  0  0  0
 26 50  1  0  0  0  0
M  END
> <clash_score>
0

> <docking_score>
-7.305214881896973

> <overlap_score>
0.896653950214386

$$$$
BENZO_296_1
  -OEChem-08222022463D

 47 50  0     1  0  0  0  0  0999 V2000
    4.2460    1.7520   20.8250 C   0  0  0  0  0  0  0  0  0  0  0  0
    3.8860    2.1050   19.5250 C   0  0  0  0  0  0  0  0  0  0  0  0
    5.3890    1.0010   21.0690 C   0  0  0  0  0  0  0  0  0  0  0  0
    9.5890   -2.4950   23.2210 C   0  0  0  0  0  0  0  0  0  0  0  0
    8.2550   -1.0010   24.5520 C   0  0  0  0  0  0  0  0  0  0  0  0
    4.6610    1.7170   18.4380 C   0  0  0  0  0  0  0  0  0  0  0  0
    9.1890   -3.5540   24.0140 C   0  0  0  0  0  0  0  0  0  0  0  0
    7.8700   -2.0610   25.3550 C   0  0  0  0  0  0  0  0  0  0  0  0
   13.1058   -0.2791   23.5772 C   0  0  0  0  0  0  0  0  0  0  0  0
    7.5840   -0.2700   18.5160 C   0  0  0  0  0  0  0  0  0  0  0  0
   14.1974   -0.7534   22.8836 C   0  0  0  0  0  0  0  0  0  0  0  0
   12.3642   -0.0940   21.3822 C   0  0  0  0  0  0  0  0  0  0  0  0
    6.1460    0.6070   19.9750 C   0  0  0  0  0  0  0  0  0  0  0  0
    9.1280   -1.2090   23.4870 C   0  0  0  0  0  0  0  0  0  0  0  0
   12.0437    0.1027   22.7075 C   0  0  0  0  0  0  0  0  0  0  0  0
    5.7970    0.9500   18.6730 C   0  0  0  0  0  0  0  0  0  0  0  0
    7.2710   -0.1460   19.8310 C   0  0  0  0  0  0  0  0  0  0  0  0
    8.3450   -3.3440   25.0980 C   0  0  0  0  0  0  0  0  0  0  0  0
    9.0430    0.2380   21.4940 C   0  0  0  0  0  0  0  0  0  0  0  0
    7.1165   -4.0862   26.9914 C   0  0  0  0  0  0  0  0  0  0  0  0
   10.7220    0.6590   23.1850 C   0  0  0  0  0  0  0  0  0  0  0  0
    9.5820   -0.1080   22.7000 C   0  0  1  0  0  0  0  0  0  0  0  0
    6.7100    0.3850   17.8100 N   0  0  0  0  0  0  0  0  0  0  0  0
    8.0950   -0.7700   20.8440 N   0  0  0  0  0  0  0  0  0  0  0  0
    9.2950    1.3000   20.9480 O   0  0  0  0  0  0  0  0  0  0  0  0
    7.9856   -4.3803   25.8987 O   0  0  0  0  0  0  0  0  0  0  0  0
   13.9398   -0.7369   21.1908 S   0  0  0  0  0  0  0  0  0  0  0  0
    3.6208    2.0704   21.6579 H   0  0  0  0  0  0  0  0  0  0  0  0
    2.9857    2.6926   19.3615 H   0  0  0  0  0  0  0  0  0  0  0  0
    5.6664    0.7407   22.0807 H   0  0  0  0  0  0  0  0  0  0  0  0
   10.2677   -2.6721   22.3861 H   0  0  0  0  0  0  0  0  0  0  0  0
    7.8705   -0.0015   24.7586 H   0  0  0  0  0  0  0  0  0  0  0  0
    4.3794    2.0106   17.4221 H   0  0  0  0  0  0  0  0  0  0  0  0
    9.5403   -4.5634   23.7844 H   0  0  0  0  0  0  0  0  0  0  0  0
    7.1918   -1.8874   26.1909 H   0  0  0  0  0  0  0  0  0  0  0  0
   13.0750   -0.2107   24.6573 H   0  0  0  0  0  0  0  0  0  0  0  0
    8.4172   -0.8135   18.0384 H   0  0  0  0  0  0  0  0  0  0  0  0
   15.1341   -1.1080   23.2899 H   0  0  0  0  0  0  0  0  0  0  0  0
   11.7521    0.1087   20.5143 H   0  0  0  0  0  0  0  0  0  0  0  0
    6.9092   -5.0024   27.5498 H   0  0  0  0  0  0  0  0  0  0  0  0
    6.1847   -3.6591   26.6123 H   0  0  0  0  0  0  0  0  0  0  0  0
    7.6049   -3.3637   27.6496 H   0  0  0  0  0  0  0  0  0  0  0  0
   10.7266    0.7141   24.2815 H   0  0  0  0  0  0  0  0  0  0  0  0
   10.6502    1.7003   22.8412 H   0  0  0  0  0  0  0  0  0  0  0  0
    8.7027    0.7972   23.4026 H   0  0  0  0  0  0  0  0  0  0  0  0
    6.6715    0.4865   16.8044 H   0  0  0  0  0  0  0  0  0  0  0  0
    8.0730   -1.6176   21.0751 H   0  0  0  0  0  0  0  0  0  0  0  0
  1  2  1  0  0  0  0
  1  3  2  0  0  0  0
  2  6  2  0  0  0  0
  3 13  1  0  0  0  0
  4  7  2  0  0  0  0
  4 14  1  0  0  0  0
  5  8  1  0  0  0  0
  5 14  2  0  0  0  0
  6 16  1  0  0  0  0
  7 18  1  0  0  0  0
  8 18  2  0  0  0  0
  9 11  2  0  0  0  0
  9 15  1  0  0  0  0
 10 17  2  0  0  0  0
 10 23  1  0  0  0  0
 11 27  1  0  0  0  0
 12 15  2  0  0  0  0
 12 27  1  0  0  0  0
 13 16  2  0  0  0  0
 13 17  1  0  0  0  0
 14 22  1  0  0  0  0
 15 21  1  0  0  0  0
 16 23  1  0  0  0  0
 17 24  1  0  0  0  0
 18 26  1  0  0  0  0
 19 22  1  0  0  0  0
 19 24  1  0  0  0  0
 19 25  2  0  0  0  0
 20 26  1  0  0  0  0
 21 22  1  1  0  0  0
  1 28  1  0  0  0  0
  2 29  1  0  0  0  0
  3 30  1  0  0  0  0
  4 31  1  0  0  0  0
  5 32  1  0  0  0  0
  6 33  1  0  0  0  0
  7 34  1  0  0  0  0
  8 35  1  0  0  0  0
  9 36  1  0  0  0  0
 10 37  1  0  0  0  0
 11 38  1  0  0  0  0
 12 39  1  0  0  0  0
 20 40  1  0  0  0  0
 20 41  1  0  0  0  0
 20 42  1  0  0  0  0
 21 43  1  0  0  0  0
 21 44  1  0  0  0  0
 22 45  1  0  0  0  0
 23 46  1  0  0  0  0
 24 47  1  0  0  0  0
M  END
> <clash_score>
0

> <docking_score>
-5.9369611740112305

> <overlap_score>
0.8786682486534119

$$$$
BENZO_296_2
  -OEChem-08222022463D

 47 50  0     1  0  0  0  0  0999 V2000
    4.2460    1.7520   20.8250 C   0  0  0  0  0  0  0  0  0  0  0  0
    3.8860    2.1050   19.5250 C   0  0  0  0  0  0  0  0  0  0  0  0
    5.3890    1.0010   21.0690 C   0  0  0  0  0  0  0  0  0  0  0  0
    9.5890   -2.4950   23.2210 C   0  0  0  0  0  0  0  0  0  0  0  0
    8.2550   -1.0010   24.5520 C   0  0  0  0  0  0  0  0  0  0  0  0
    4.6610    1.7170   18.4380 C   0  0  0  0  0  0  0  0  0  0  0  0
    9.1890   -3.5540   24.0140 C   0  0  0  0  0  0  0  0  0  0  0  0
    7.8700   -2.0610   25.3550 C   0  0  0  0  0  0  0  0  0  0  0  0
   12.0393    0.1762   25.3640 C   0  0  0  0  0  0  0  0  0  0  0  0
    7.5840   -0.2700   18.5160 C   0  0  0  0  0  0  0  0  0  0  0  0
   12.9049   -0.7459   25.9099 C   0  0  0  0  0  0  0  0  0  0  0  0
   12.2520   -1.3383   23.6137 C   0  0  0  0  0  0  0  0  0  0  0  0
    6.1460    0.6070   19.9750 C   0  0  0  0  0  0  0  0  0  0  0  0
    9.1280   -1.2090   23.4870 C   0  0  0  0  0  0  0  0  0  0  0  0
   11.6609   -0.1670   24.0339 C   0  0  0  0  0  0  0  0  0  0  0  0
    5.7970    0.9500   18.6730 C   0  0  0  0  0  0  0  0  0  0  0  0
    7.2710   -0.1460   19.8310 C   0  0  0  0  0  0  0  0  0  0  0  0
    8.3450   -3.3440   25.0980 C   0  0  0  0  0  0  0  0  0  0  0  0
    9.0430    0.2380   21.4940 C   0  0  0  0  0  0  0  0  0  0  0  0
    7.1165   -4.0862   26.9914 C   0  0  0  0  0  0  0  0  0  0  0  0
   10.7220    0.6590   23.1850 C   0  0  0  0  0  0  0  0  0  0  0  0
    9.5820   -0.1080   22.7000 C   0  0  2  0  0  0  0  0  0  0  0  0
    6.7100    0.3850   17.8100 N   0  0  0  0  0  0  0  0  0  0  0  0
    8.0950   -0.7700   20.8440 N   0  0  0  0  0  0  0  0  0  0  0  0
    9.2950    1.3000   20.9480 O   0  0  0  0  0  0  0  0  0  0  0  0
    7.9856   -4.3803   25.8987 O   0  0  0  0  0  0  0  0  0  0  0  0
   13.2582   -2.0191   24.8206 S   0  0  0  0  0  0  0  0  0  0  0  0
    3.6208    2.0704   21.6579 H   0  0  0  0  0  0  0  0  0  0  0  0
    2.9857    2.6926   19.3615 H   0  0  0  0  0  0  0  0  0  0  0  0
    5.6664    0.7407   22.0807 H   0  0  0  0  0  0  0  0  0  0  0  0
   10.2677   -2.6721   22.3861 H   0  0  0  0  0  0  0  0  0  0  0  0
    7.8705   -0.0015   24.7586 H   0  0  0  0  0  0  0  0  0  0  0  0
    4.3794    2.0106   17.4221 H   0  0  0  0  0  0  0  0  0  0  0  0
    9.5403   -4.5634   23.7844 H   0  0  0  0  0  0  0  0  0  0  0  0
    7.1918   -1.8874   26.1909 H   0  0  0  0  0  0  0  0  0  0  0  0
   11.6967    1.0541   25.8970 H   0  0  0  0  0  0  0  0  0  0  0  0
    8.4172   -0.8135   18.0384 H   0  0  0  0  0  0  0  0  0  0  0  0
   13.3474   -0.7325   26.8960 H   0  0  0  0  0  0  0  0  0  0  0  0
   12.1448   -1.8296   22.6565 H   0  0  0  0  0  0  0  0  0  0  0  0
    6.9092   -5.0024   27.5498 H   0  0  0  0  0  0  0  0  0  0  0  0
    6.1847   -3.6591   26.6123 H   0  0  0  0  0  0  0  0  0  0  0  0
    7.6049   -3.3637   27.6496 H   0  0  0  0  0  0  0  0  0  0  0  0
   10.3958    1.5383   23.7557 H   0  0  0  0  0  0  0  0  0  0  0  0
   11.2964    1.0584   22.3376 H   0  0  0  0  0  0  0  0  0  0  0  0
   10.5413   -0.9955   22.0233 H   0  0  0  0  0  0  0  0  0  0  0  0
    6.6715    0.4865   16.8044 H   0  0  0  0  0  0  0  0  0  0  0  0
    8.0730   -1.6176   21.0751 H   0  0  0  0  0  0  0  0  0  0  0  0
  1  2  1  0  0  0  0
  1  3  2  0  0  0  0
  2  6  2  0  0  0  0
  3 13  1  0  0  0  0
  4  7  2  0  0  0  0
  4 14  1  0  0  0  0
  5  8  1  0  0  0  0
  5 14  2  0  0  0  0
  6 16  1  0  0  0  0
  7 18  1  0  0  0  0
  8 18  2  0  0  0  0
  9 11  2  0  0  0  0
  9 15  1  0  0  0  0
 10 17  2  0  0  0  0
 10 23  1  0  0  0  0
 11 27  1  0  0  0  0
 12 15  2  0  0  0  0
 12 27  1  0  0  0  0
 13 16  2  0  0  0  0
 13 17  1  0  0  0  0
 14 22  1  0  0  0  0
 15 21  1  0  0  0  0
 16 23  1  0  0  0  0
 17 24  1  0  0  0  0
 18 26  1  0  0  0  0
 19 22  1  0  0  0  0
 19 24  1  0  0  0  0
 19 25  2  0  0  0  0
 20 26  1  0  0  0  0
 21 22  1  6  0  0  0
  1 28  1  0  0  0  0
  2 29  1  0  0  0  0
  3 30  1  0  0  0  0
  4 31  1  0  0  0  0
  5 32  1  0  0  0  0
  6 33  1  0  0  0  0
  7 34  1  0  0  0  0
  8 35  1  0  0  0  0
  9 36  1  0  0  0  0
 10 37  1  0  0  0  0
 11 38  1  0  0  0  0
 12 39  1  0  0  0  0
 20 40  1  0  0  0  0
 20 41  1  0  0  0  0
 20 42  1  0  0  0  0
 21 43  1  0  0  0  0
 21 44  1  0  0  0  0
 22 45  1  0  0  0  0
 23 46  1  0  0  0  0
 24 47  1  0  0  0  0
M  END
> <clash_score>
0

> <docking_score>
-4.572871208190918

> <overlap_score>
0.8439604640007019

$$$$
BENZO_298_1
  -OEChem-08222022463D

 50 53  0     1  0  0  0  0  0999 V2000
    4.2460    1.7520   20.8250 C   0  0  0  0  0  0  0  0  0  0  0  0
    3.8860    2.1050   19.5250 C   0  0  0  0  0  0  0  0  0  0  0  0
   13.8166    0.0398   21.0674 C   0  0  0  0  0  0  0  0  0  0  0  0
    5.3890    1.0010   21.0690 C   0  0  0  0  0  0  0  0  0  0  0  0
   12.5963    0.5519   21.5081 C   0  0  0  0  0  0  0  0  0  0  0  0
    9.5890   -2.4950   23.2210 C   0  0  0  0  0  0  0  0  0  0  0  0
    8.2550   -1.0010   24.5520 C   0  0  0  0  0  0  0  0  0  0  0  0
    4.6610    1.7170   18.4380 C   0  0  0  0  0  0  0  0  0  0  0  0
    9.1890   -3.5540   24.0140 C   0  0  0  0  0  0  0  0  0  0  0  0
    7.8700   -2.0610   25.3550 C   0  0  0  0  0  0  0  0  0  0  0  0
   14.4843   -0.9216   21.8261 C   0  0  0  0  0  0  0  0  0  0  0  0
   12.7115   -0.8586   23.4663 C   0  0  0  0  0  0  0  0  0  0  0  0
    7.5840   -0.2700   18.5160 C   0  0  0  0  0  0  0  0  0  0  0  0
    6.1460    0.6070   19.9750 C   0  0  0  0  0  0  0  0  0  0  0  0
    9.1280   -1.2090   23.4870 C   0  0  0  0  0  0  0  0  0  0  0  0
   12.0437    0.1027   22.7075 C   0  0  0  0  0  0  0  0  0  0  0  0
    5.7970    0.9500   18.6730 C   0  0  0  0  0  0  0  0  0  0  0  0
    7.2710   -0.1460   19.8310 C   0  0  0  0  0  0  0  0  0  0  0  0
    8.3450   -3.3440   25.0980 C   0  0  0  0  0  0  0  0  0  0  0  0
   13.9318   -1.3708   23.0255 C   0  0  0  0  0  0  0  0  0  0  0  0
    9.0430    0.2380   21.4940 C   0  0  0  0  0  0  0  0  0  0  0  0
    8.5106   -5.6662   25.5724 C   0  0  0  0  0  0  0  0  0  0  0  0
   10.7220    0.6590   23.1850 C   0  0  0  0  0  0  0  0  0  0  0  0
    9.5820   -0.1080   22.7000 C   0  0  1  0  0  0  0  0  0  0  0  0
    6.7100    0.3850   17.8100 N   0  0  0  0  0  0  0  0  0  0  0  0
    8.0950   -0.7700   20.8440 N   0  0  0  0  0  0  0  0  0  0  0  0
    9.2950    1.3000   20.9480 O   0  0  0  0  0  0  0  0  0  0  0  0
    7.9856   -4.3803   25.8987 O   0  0  0  0  0  0  0  0  0  0  0  0
   14.7567   -2.5560   23.9617 Cl  0  0  0  0  0  0  0  0  0  0  0  0
    3.6208    2.0704   21.6579 H   0  0  0  0  0  0  0  0  0  0  0  0
    2.9857    2.6926   19.3615 H   0  0  0  0  0  0  0  0  0  0  0  0
   14.2465    0.3899   20.1334 H   0  0  0  0  0  0  0  0  0  0  0  0
    5.6664    0.7407   22.0807 H   0  0  0  0  0  0  0  0  0  0  0  0
   12.0830    1.3008   20.9105 H   0  0  0  0  0  0  0  0  0  0  0  0
   10.2677   -2.6721   22.3861 H   0  0  0  0  0  0  0  0  0  0  0  0
    7.8705   -0.0015   24.7586 H   0  0  0  0  0  0  0  0  0  0  0  0
    4.3794    2.0106   17.4221 H   0  0  0  0  0  0  0  0  0  0  0  0
    9.5403   -4.5634   23.7844 H   0  0  0  0  0  0  0  0  0  0  0  0
    7.1918   -1.8874   26.1909 H   0  0  0  0  0  0  0  0  0  0  0  0
   15.4348   -1.3117   21.4705 H   0  0  0  0  0  0  0  0  0  0  0  0
   12.2763   -1.2059   24.4005 H   0  0  0  0  0  0  0  0  0  0  0  0
    8.4172   -0.8135   18.0384 H   0  0  0  0  0  0  0  0  0  0  0  0
    8.1445   -6.4032   26.2914 H   0  0  0  0  0  0  0  0  0  0  0  0
    9.6027   -5.6312   25.5944 H   0  0  0  0  0  0  0  0  0  0  0  0
    8.1770   -5.9422   24.5693 H   0  0  0  0  0  0  0  0  0  0  0  0
   10.7266    0.7141   24.2815 H   0  0  0  0  0  0  0  0  0  0  0  0
   10.6502    1.7003   22.8412 H   0  0  0  0  0  0  0  0  0  0  0  0
    8.7027    0.7972   23.4026 H   0  0  0  0  0  0  0  0  0  0  0  0
    6.6715    0.4865   16.8044 H   0  0  0  0  0  0  0  0  0  0  0  0
    8.0730   -1.6176   21.0751 H   0  0  0  0  0  0  0  0  0  0  0  0
  1  2  1  0  0  0  0
  1  4  2  0  0  0  0
  2  8  2  0  0  0  0
  3  5  2  0  0  0  0
  3 11  1  0  0  0  0
  4 14  1  0  0  0  0
  5 16  1  0  0  0  0
  6  9  2  0  0  0  0
  6 15  1  0  0  0  0
  7 10  1  0  0  0  0
  7 15  2  0  0  0  0
  8 17  1  0  0  0  0
  9 19  1  0  0  0  0
 10 19  2  0  0  0  0
 11 20  2  0  0  0  0
 12 16  2  0  0  0  0
 12 20  1  0  0  0  0
 13 18  2  0  0  0  0
 13 25  1  0  0  0  0
 14 17  2  0  0  0  0
 14 18  1  0  0  0  0
 15 24  1  0  0  0  0
 16 23  1  0  0  0  0
 17 25  1  0  0  0  0
 18 26  1  0  0  0  0
 19 28  1  0  0  0  0
 20 29  1  0  0  0  0
 21 24  1  0  0  0  0
 21 26  1  0  0  0  0
 21 27  2  0  0  0  0
 22 28  1  0  0  0  0
 23 24  1  1  0  0  0
  1 30  1  0  0  0  0
  2 31  1  0  0  0  0
  3 32  1  0  0  0  0
  4 33  1  0  0  0  0
  5 34  1  0  0  0  0
  6 35  1  0  0  0  0
  7 36  1  0  0  0  0
  8 37  1  0  0  0  0
  9 38  1  0  0  0  0
 10 39  1  0  0  0  0
 11 40  1  0  0  0  0
 12 41  1  0  0  0  0
 13 42  1  0  0  0  0
 22 43  1  0  0  0  0
 22 44  1  0  0  0  0
 22 45  1  0  0  0  0
 23 46  1  0  0  0  0
 23 47  1  0  0  0  0
 24 48  1  0  0  0  0
 25 49  1  0  0  0  0
 26 50  1  0  0  0  0
M  END
> <clash_score>
0

> <docking_score>
-5.905828475952148

> <overlap_score>
0.890434205532074

$$$$
BENZO_298_2
  -OEChem-08222022463D

 50 53  0     1  0  0  0  0  0999 V2000
    4.2460    1.7520   20.8250 C   0  0  0  0  0  0  0  0  0  0  0  0
    3.8860    2.1050   19.5250 C   0  0  0  0  0  0  0  0  0  0  0  0
   13.0334   -1.4852   25.3072 C   0  0  0  0  0  0  0  0  0  0  0  0
    5.3890    1.0010   21.0690 C   0  0  0  0  0  0  0  0  0  0  0  0
   11.9669   -0.6739   24.9199 C   0  0  0  0  0  0  0  0  0  0  0  0
    9.5890   -2.4950   23.2210 C   0  0  0  0  0  0  0  0  0  0  0  0
    8.2550   -1.0010   24.5520 C   0  0  0  0  0  0  0  0  0  0  0  0
    4.6610    1.7170   18.4380 C   0  0  0  0  0  0  0  0  0  0  0  0
    9.1890   -3.5540   24.0140 C   0  0  0  0  0  0  0  0  0  0  0  0
    7.8700   -2.0610   25.3550 C   0  0  0  0  0  0  0  0  0  0  0  0
   14.0118   -1.8413   24.3790 C   0  0  0  0  0  0  0  0  0  0  0  0
   12.8570   -0.5751   22.6760 C   0  0  0  0  0  0  0  0  0  0  0  0
    7.5840   -0.2700   18.5160 C   0  0  0  0  0  0  0  0  0  0  0  0
    6.1460    0.6070   19.9750 C   0  0  0  0  0  0  0  0  0  0  0  0
    9.1280   -1.2090   23.4870 C   0  0  0  0  0  0  0  0  0  0  0  0
   11.8786   -0.2190   23.6043 C   0  0  0  0  0  0  0  0  0  0  0  0
    5.7970    0.9500   18.6730 C   0  0  0  0  0  0  0  0  0  0  0  0
    7.2710   -0.1460   19.8310 C   0  0  0  0  0  0  0  0  0  0  0  0
    8.3450   -3.3440   25.0980 C   0  0  0  0  0  0  0  0  0  0  0  0
   13.9235   -1.3863   23.0634 C   0  0  0  0  0  0  0  0  0  0  0  0
    9.0430    0.2380   21.4940 C   0  0  0  0  0  0  0  0  0  0  0  0
    8.5106   -5.6662   25.5724 C   0  0  0  0  0  0  0  0  0  0  0  0
   10.7220    0.6590   23.1850 C   0  0  0  0  0  0  0  0  0  0  0  0
    9.5820   -0.1080   22.7000 C   0  0  2  0  0  0  0  0  0  0  0  0
    6.7100    0.3850   17.8100 N   0  0  0  0  0  0  0  0  0  0  0  0
    8.0950   -0.7700   20.8440 N   0  0  0  0  0  0  0  0  0  0  0  0
    9.2950    1.3000   20.9480 O   0  0  0  0  0  0  0  0  0  0  0  0
    7.9856   -4.3803   25.8987 O   0  0  0  0  0  0  0  0  0  0  0  0
   15.1303   -1.8270   21.9183 Cl  0  0  0  0  0  0  0  0  0  0  0  0
    3.6208    2.0704   21.6579 H   0  0  0  0  0  0  0  0  0  0  0  0
    2.9857    2.6926   19.3615 H   0  0  0  0  0  0  0  0  0  0  0  0
   13.1017   -1.8394   26.3318 H   0  0  0  0  0  0  0  0  0  0  0  0
    5.6664    0.7407   22.0807 H   0  0  0  0  0  0  0  0  0  0  0  0
   11.2091   -0.4015   25.6498 H   0  0  0  0  0  0  0  0  0  0  0  0
   10.2677   -2.6721   22.3861 H   0  0  0  0  0  0  0  0  0  0  0  0
    7.8705   -0.0015   24.7586 H   0  0  0  0  0  0  0  0  0  0  0  0
    4.3794    2.0106   17.4221 H   0  0  0  0  0  0  0  0  0  0  0  0
    9.5403   -4.5634   23.7844 H   0  0  0  0  0  0  0  0  0  0  0  0
    7.1918   -1.8874   26.1909 H   0  0  0  0  0  0  0  0  0  0  0  0
   14.8373   -2.4744   24.6949 H   0  0  0  0  0  0  0  0  0  0  0  0
   12.7839   -0.2174   21.6515 H   0  0  0  0  0  0  0  0  0  0  0  0
    8.4172   -0.8135   18.0384 H   0  0  0  0  0  0  0  0  0  0  0  0
    8.1445   -6.4032   26.2914 H   0  0  0  0  0  0  0  0  0  0  0  0
    9.6027   -5.6312   25.5944 H   0  0  0  0  0  0  0  0  0  0  0  0
    8.1770   -5.9422   24.5693 H   0  0  0  0  0  0  0  0  0  0  0  0
   10.4369    1.3080   24.0233 H   0  0  0  0  0  0  0  0  0  0  0  0
   11.0815    1.3384   22.3997 H   0  0  0  0  0  0  0  0  0  0  0  0
   10.5413   -0.9955   22.0233 H   0  0  0  0  0  0  0  0  0  0  0  0
    6.6715    0.4865   16.8044 H   0  0  0  0  0  0  0  0  0  0  0  0
    8.0730   -1.6176   21.0751 H   0  0  0  0  0  0  0  0  0  0  0  0
  1  2  1  0  0  0  0
  1  4  2  0  0  0  0
  2  8  2  0  0  0  0
  3  5  2  0  0  0  0
  3 11  1  0  0  0  0
  4 14  1  0  0  0  0
  5 16  1  0  0  0  0
  6  9  2  0  0  0  0
  6 15  1  0  0  0  0
  7 10  1  0  0  0  0
  7 15  2  0  0  0  0
  8 17  1  0  0  0  0
  9 19  1  0  0  0  0
 10 19  2  0  0  0  0
 11 20  2  0  0  0  0
 12 16  2  0  0  0  0
 12 20  1  0  0  0  0
 13 18  2  0  0  0  0
 13 25  1  0  0  0  0
 14 17  2  0  0  0  0
 14 18  1  0  0  0  0
 15 24  1  0  0  0  0
 16 23  1  0  0  0  0
 17 25  1  0  0  0  0
 18 26  1  0  0  0  0
 19 28  1  0  0  0  0
 20 29  1  0  0  0  0
 21 24  1  0  0  0  0
 21 26  1  0  0  0  0
 21 27  2  0  0  0  0
 22 28  1  0  0  0  0
 23 24  1  6  0  0  0
  1 30  1  0  0  0  0
  2 31  1  0  0  0  0
  3 32  1  0  0  0  0
  4 33  1  0  0  0  0
  5 34  1  0  0  0  0
  6 35  1  0  0  0  0
  7 36  1  0  0  0  0
  8 37  1  0  0  0  0
  9 38  1  0  0  0  0
 10 39  1  0  0  0  0
 11 40  1  0  0  0  0
 12 41  1  0  0  0  0
 13 42  1  0  0  0  0
 22 43  1  0  0  0  0
 22 44  1  0  0  0  0
 22 45  1  0  0  0  0
 23 46  1  0  0  0  0
 23 47  1  0  0  0  0
 24 48  1  0  0  0  0
 25 49  1  0  0  0  0
 26 50  1  0  0  0  0
M  END
> <clash_score>
0

> <docking_score>
-6.426120758056641

> <overlap_score>
0.9027411937713623

$$$$
BENZO_299_1
  -OEChem-08222022463D

 50 53  0     1  0  0  0  0  0999 V2000
    4.2460    1.7520   20.8250 C   0  0  0  0  0  0  0  0  0  0  0  0
    3.8860    2.1050   19.5250 C   0  0  0  0  0  0  0  0  0  0  0  0
    5.3890    1.0010   21.0690 C   0  0  0  0  0  0  0  0  0  0  0  0
    9.5890   -2.4950   23.2210 C   0  0  0  0  0  0  0  0  0  0  0  0
    8.2550   -1.0010   24.5520 C   0  0  0  0  0  0  0  0  0  0  0  0
    4.6610    1.7170   18.4380 C   0  0  0  0  0  0  0  0  0  0  0  0
    9.1890   -3.5540   24.0140 C   0  0  0  0  0  0  0  0  0  0  0  0
    7.8700   -2.0610   25.3550 C   0  0  0  0  0  0  0  0  0  0  0  0
   12.7477    0.4352   21.5346 C   0  0  0  0  0  0  0  0  0  0  0  0
   12.8294   -0.8403   23.3239 C   0  0  0  0  0  0  0  0  0  0  0  0
    7.5840   -0.2700   18.5160 C   0  0  0  0  0  0  0  0  0  0  0  0
    6.1460    0.6070   19.9750 C   0  0  0  0  0  0  0  0  0  0  0  0
    9.1280   -1.2090   23.4870 C   0  0  0  0  0  0  0  0  0  0  0  0
   12.0437    0.1027   22.7075 C   0  0  0  0  0  0  0  0  0  0  0  0
    5.7970    0.9500   18.6730 C   0  0  0  0  0  0  0  0  0  0  0  0
    7.2710   -0.1460   19.8310 C   0  0  0  0  0  0  0  0  0  0  0  0
    8.3450   -3.3440   25.0980 C   0  0  0  0  0  0  0  0  0  0  0  0
    9.0430    0.2380   21.4940 C   0  0  0  0  0  0  0  0  0  0  0  0
   15.0234   -1.9028   22.7442 C   0  0  0  0  0  0  0  0  0  0  0  0
    8.5106   -5.6662   25.5724 C   0  0  0  0  0  0  0  0  0  0  0  0
   10.7220    0.6590   23.1850 C   0  0  0  0  0  0  0  0  0  0  0  0
    9.5820   -0.1080   22.7000 C   0  0  1  0  0  0  0  0  0  0  0  0
   13.8926   -0.2416   21.4111 N   0  0  0  0  0  0  0  0  0  0  0  0
    6.7100    0.3850   17.8100 N   0  0  0  0  0  0  0  0  0  0  0  0
   13.9141   -1.0086   22.5144 N   0  0  0  0  0  0  0  0  0  0  0  0
    8.0950   -0.7700   20.8440 N   0  0  0  0  0  0  0  0  0  0  0  0
    9.2950    1.3000   20.9480 O   0  0  0  0  0  0  0  0  0  0  0  0
    7.9856   -4.3803   25.8987 O   0  0  0  0  0  0  0  0  0  0  0  0
    3.6208    2.0704   21.6579 H   0  0  0  0  0  0  0  0  0  0  0  0
    2.9857    2.6926   19.3615 H   0  0  0  0  0  0  0  0  0  0  0  0
    5.6664    0.7407   22.0807 H   0  0  0  0  0  0  0  0  0  0  0  0
   10.2677   -2.6721   22.3861 H   0  0  0  0  0  0  0  0  0  0  0  0
    7.8705   -0.0015   24.7586 H   0  0  0  0  0  0  0  0  0  0  0  0
    4.3794    2.0106   17.4221 H   0  0  0  0  0  0  0  0  0  0  0  0
    9.5403   -4.5634   23.7844 H   0  0  0  0  0  0  0  0  0  0  0  0
    7.1918   -1.8874   26.1909 H   0  0  0  0  0  0  0  0  0  0  0  0
   12.4767    1.1426   20.7637 H   0  0  0  0  0  0  0  0  0  0  0  0
   12.7125   -1.3913   24.2472 H   0  0  0  0  0  0  0  0  0  0  0  0
    8.4172   -0.8135   18.0384 H   0  0  0  0  0  0  0  0  0  0  0  0
   14.7824   -2.8646   22.2839 H   0  0  0  0  0  0  0  0  0  0  0  0
   15.9289   -1.4818   22.2983 H   0  0  0  0  0  0  0  0  0  0  0  0
   15.1758   -2.0203   23.8207 H   0  0  0  0  0  0  0  0  0  0  0  0
    8.1445   -6.4032   26.2914 H   0  0  0  0  0  0  0  0  0  0  0  0
    9.6027   -5.6312   25.5944 H   0  0  0  0  0  0  0  0  0  0  0  0
    8.1770   -5.9422   24.5693 H   0  0  0  0  0  0  0  0  0  0  0  0
   10.7266    0.7141   24.2815 H   0  0  0  0  0  0  0  0  0  0  0  0
   10.6502    1.7003   22.8412 H   0  0  0  0  0  0  0  0  0  0  0  0
    8.7027    0.7972   23.4026 H   0  0  0  0  0  0  0  0  0  0  0  0
    6.6715    0.4865   16.8044 H   0  0  0  0  0  0  0  0  0  0  0  0
    8.0730   -1.6176   21.0751 H   0  0  0  0  0  0  0  0  0  0  0  0
  1  2  1  0  0  0  0
  1  3  2  0  0  0  0
  2  6  2  0  0  0  0
  3 12  1  0  0  0  0
  4  7  2  0  0  0  0
  4 13  1  0  0  0  0
  5  8  1  0  0  0  0
  5 13  2  0  0  0  0
  6 15  1  0  0  0  0
  7 17  1  0  0  0  0
  8 17  2  0  0  0  0
  9 14  1  0  0  0  0
  9 23  2  0  0  0  0
 10 14  2  0  0  0  0
 10 25  1  0  0  0  0
 11 16  2  0  0  0  0
 11 24  1  0  0  0  0
 12 15  2  0  0  0  0
 12 16  1  0  0  0  0
 13 22  1  0  0  0  0
 14 21  1  0  0  0  0
 15 24  1  0  0  0  0
 16 26  1  0  0  0  0
 17 28  1  0  0  0  0
 18 22  1  0  0  0  0
 18 26  1  0  0  0  0
 18 27  2  0  0  0  0
 19 25  1  0  0  0  0
 20 28  1  0  0  0  0
 21 22  1  1  0  0  0
 23 25  1  0  0  0  0
  1 29  1  0  0  0  0
  2 30  1  0  0  0  0
  3 31  1  0  0  0  0
  4 32  1  0  0  0  0
  5 33  1  0  0  0  0
  6 34  1  0  0  0  0
  7 35  1  0  0  0  0
  8 36  1  0  0  0  0
  9 37  1  0  0  0  0
 10 38  1  0  0  0  0
 11 39  1  0  0  0  0
 19 40  1  0  0  0  0
 19 41  1  0  0  0  0
 19 42  1  0  0  0  0
 20 43  1  0  0  0  0
 20 44  1  0  0  0  0
 20 45  1  0  0  0  0
 21 46  1  0  0  0  0
 21 47  1  0  0  0  0
 22 48  1  0  0  0  0
 24 49  1  0  0  0  0
 26 50  1  0  0  0  0
M  END
> <clash_score>
0

> <docking_score>
-5.267784118652344

> <overlap_score>
0.8843242526054382

$$$$
BENZO_299_2
  -OEChem-08222022463D

 50 53  0     1  0  0  0  0  0999 V2000
    4.2460    1.7520   20.8250 C   0  0  0  0  0  0  0  0  0  0  0  0
    3.8860    2.1050   19.5250 C   0  0  0  0  0  0  0  0  0  0  0  0
    5.3890    1.0010   21.0690 C   0  0  0  0  0  0  0  0  0  0  0  0
    9.5890   -2.4950   23.2210 C   0  0  0  0  0  0  0  0  0  0  0  0
    8.2550   -1.0010   24.5520 C   0  0  0  0  0  0  0  0  0  0  0  0
    4.6610    1.7170   18.4380 C   0  0  0  0  0  0  0  0  0  0  0  0
    9.1890   -3.5540   24.0140 C   0  0  0  0  0  0  0  0  0  0  0  0
    7.8700   -2.0610   25.3550 C   0  0  0  0  0  0  0  0  0  0  0  0
   12.1294   -0.7684   24.8759 C   0  0  0  0  0  0  0  0  0  0  0  0
   12.9208   -0.6622   22.8272 C   0  0  0  0  0  0  0  0  0  0  0  0
    7.5840   -0.2700   18.5160 C   0  0  0  0  0  0  0  0  0  0  0  0
    6.1460    0.6070   19.9750 C   0  0  0  0  0  0  0  0  0  0  0  0
    9.1280   -1.2090   23.4870 C   0  0  0  0  0  0  0  0  0  0  0  0
   11.8786   -0.2190   23.6043 C   0  0  0  0  0  0  0  0  0  0  0  0
    5.7970    0.9500   18.6730 C   0  0  0  0  0  0  0  0  0  0  0  0
    7.2710   -0.1460   19.8310 C   0  0  0  0  0  0  0  0  0  0  0  0
    8.3450   -3.3440   25.0980 C   0  0  0  0  0  0  0  0  0  0  0  0
    9.0430    0.2380   21.4940 C   0  0  0  0  0  0  0  0  0  0  0  0
   14.9196   -2.1033   23.2819 C   0  0  0  0  0  0  0  0  0  0  0  0
    8.5106   -5.6662   25.5724 C   0  0  0  0  0  0  0  0  0  0  0  0
   10.7220    0.6590   23.1850 C   0  0  0  0  0  0  0  0  0  0  0  0
    9.5820   -0.1080   22.7000 C   0  0  2  0  0  0  0  0  0  0  0  0
   13.2434   -1.5045   24.9090 N   0  0  0  0  0  0  0  0  0  0  0  0
    6.7100    0.3850   17.8100 N   0  0  0  0  0  0  0  0  0  0  0  0
   13.7018   -1.4209   23.6485 N   0  0  0  0  0  0  0  0  0  0  0  0
    8.0950   -0.7700   20.8440 N   0  0  0  0  0  0  0  0  0  0  0  0
    9.2950    1.3000   20.9480 O   0  0  0  0  0  0  0  0  0  0  0  0
    7.9856   -4.3803   25.8987 O   0  0  0  0  0  0  0  0  0  0  0  0
    3.6208    2.0704   21.6579 H   0  0  0  0  0  0  0  0  0  0  0  0
    2.9857    2.6926   19.3615 H   0  0  0  0  0  0  0  0  0  0  0  0
    5.6664    0.7407   22.0807 H   0  0  0  0  0  0  0  0  0  0  0  0
   10.2677   -2.6721   22.3861 H   0  0  0  0  0  0  0  0  0  0  0  0
    7.8705   -0.0015   24.7586 H   0  0  0  0  0  0  0  0  0  0  0  0
    4.3794    2.0106   17.4221 H   0  0  0  0  0  0  0  0  0  0  0  0
    9.5403   -4.5634   23.7844 H   0  0  0  0  0  0  0  0  0  0  0  0
    7.1918   -1.8874   26.1909 H   0  0  0  0  0  0  0  0  0  0  0  0
   11.5479   -0.6652   25.7811 H   0  0  0  0  0  0  0  0  0  0  0  0
   13.1664   -0.5073   21.7853 H   0  0  0  0  0  0  0  0  0  0  0  0
    8.4172   -0.8135   18.0384 H   0  0  0  0  0  0  0  0  0  0  0  0
   15.7545   -1.4186   23.4527 H   0  0  0  0  0  0  0  0  0  0  0  0
   15.0313   -3.0027   23.8939 H   0  0  0  0  0  0  0  0  0  0  0  0
   14.8692   -2.3913   22.2281 H   0  0  0  0  0  0  0  0  0  0  0  0
    8.1445   -6.4032   26.2914 H   0  0  0  0  0  0  0  0  0  0  0  0
    9.6027   -5.6312   25.5944 H   0  0  0  0  0  0  0  0  0  0  0  0
    8.1770   -5.9422   24.5693 H   0  0  0  0  0  0  0  0  0  0  0  0
   10.4369    1.3080   24.0233 H   0  0  0  0  0  0  0  0  0  0  0  0
   11.0815    1.3384   22.3997 H   0  0  0  0  0  0  0  0  0  0  0  0
   10.5413   -0.9955   22.0233 H   0  0  0  0  0  0  0  0  0  0  0  0
    6.6715    0.4865   16.8044 H   0  0  0  0  0  0  0  0  0  0  0  0
    8.0730   -1.6176   21.0751 H   0  0  0  0  0  0  0  0  0  0  0  0
  1  2  1  0  0  0  0
  1  3  2  0  0  0  0
  2  6  2  0  0  0  0
  3 12  1  0  0  0  0
  4  7  2  0  0  0  0
  4 13  1  0  0  0  0
  5  8  1  0  0  0  0
  5 13  2  0  0  0  0
  6 15  1  0  0  0  0
  7 17  1  0  0  0  0
  8 17  2  0  0  0  0
  9 14  1  0  0  0  0
  9 23  2  0  0  0  0
 10 14  2  0  0  0  0
 10 25  1  0  0  0  0
 11 16  2  0  0  0  0
 11 24  1  0  0  0  0
 12 15  2  0  0  0  0
 12 16  1  0  0  0  0
 13 22  1  0  0  0  0
 14 21  1  0  0  0  0
 15 24  1  0  0  0  0
 16 26  1  0  0  0  0
 17 28  1  0  0  0  0
 18 22  1  0  0  0  0
 18 26  1  0  0  0  0
 18 27  2  0  0  0  0
 19 25  1  0  0  0  0
 20 28  1  0  0  0  0
 21 22  1  6  0  0  0
 23 25  1  0  0  0  0
  1 29  1  0  0  0  0
  2 30  1  0  0  0  0
  3 31  1  0  0  0  0
  4 32  1  0  0  0  0
  5 33  1  0  0  0  0
  6 34  1  0  0  0  0
  7 35  1  0  0  0  0
  8 36  1  0  0  0  0
  9 37  1  0  0  0  0
 10 38  1  0  0  0  0
 11 39  1  0  0  0  0
 19 40  1  0  0  0  0
 19 41  1  0  0  0  0
 19 42  1  0  0  0  0
 20 43  1  0  0  0  0
 20 44  1  0  0  0  0
 20 45  1  0  0  0  0
 21 46  1  0  0  0  0
 21 47  1  0  0  0  0
 22 48  1  0  0  0  0
 24 49  1  0  0  0  0
 26 50  1  0  0  0  0
M  END
> <clash_score>
0

> <docking_score>
-6.375406265258789

> <overlap_score>
0.89827561378479

$$$$
BENZO_301_1
  -OEChem-08222022463D

 60 64  0     1  0  0  0  0  0999 V2000
   14.0446   -1.7965   24.3813 C   0  0  0  0  0  0  0  0  0  0  0  0
    4.2460    1.7520   20.8250 C   0  0  0  0  0  0  0  0  0  0  0  0
   13.0634   -1.4504   25.3102 C   0  0  0  0  0  0  0  0  0  0  0  0
   13.9483   -1.3462   23.0646 C   0  0  0  0  0  0  0  0  0  0  0  0
    3.8860    2.1050   19.5250 C   0  0  0  0  0  0  0  0  0  0  0  0
    5.3890    1.0010   21.0690 C   0  0  0  0  0  0  0  0  0  0  0  0
   11.9858   -0.6541   24.9225 C   0  0  0  0  0  0  0  0  0  0  0  0
   12.8707   -0.5498   22.6769 C   0  0  0  0  0  0  0  0  0  0  0  0
    9.5890   -2.4950   23.2210 C   0  0  0  0  0  0  0  0  0  0  0  0
    8.2550   -1.0010   24.5520 C   0  0  0  0  0  0  0  0  0  0  0  0
    4.6610    1.7170   18.4380 C   0  0  0  0  0  0  0  0  0  0  0  0
    9.1890   -3.5540   24.0140 C   0  0  0  0  0  0  0  0  0  0  0  0
    7.8700   -2.0610   25.3550 C   0  0  0  0  0  0  0  0  0  0  0  0
    7.5840   -0.2700   18.5160 C   0  0  0  0  0  0  0  0  0  0  0  0
    6.1460    0.6070   19.9750 C   0  0  0  0  0  0  0  0  0  0  0  0
   11.8895   -0.2037   23.6058 C   0  0  0  0  0  0  0  0  0  0  0  0
    9.1280   -1.2090   23.4870 C   0  0  0  0  0  0  0  0  0  0  0  0
    5.7970    0.9500   18.6730 C   0  0  0  0  0  0  0  0  0  0  0  0
    8.3450   -3.3440   25.0980 C   0  0  0  0  0  0  0  0  0  0  0  0
    7.2710   -0.1460   19.8310 C   0  0  0  0  0  0  0  0  0  0  0  0
    6.6194   -4.8191   26.1158 C   0  0  0  0  0  0  0  0  0  0  0  0
    9.0430    0.2380   21.4940 C   0  0  0  0  0  0  0  0  0  0  0  0
    6.4366   -5.9938   27.0605 C   0  0  0  0  0  0  0  0  0  0  0  0
    7.2458   -5.7947   28.3299 C   0  0  0  0  0  0  0  0  0  0  0  0
    8.7184   -5.5215   28.0404 C   0  0  0  0  0  0  0  0  0  0  0  0
    9.0024   -5.2744   26.5596 C   0  0  0  0  0  0  0  0  0  0  0  0
   10.7220    0.6590   23.1850 C   0  0  0  0  0  0  0  0  0  0  0  0
    9.5820   -0.1080   22.7000 C   0  0  1  0  0  0  0  0  0  0  0  0
    6.7100    0.3850   17.8100 N   0  0  0  0  0  0  0  0  0  0  0  0
    7.9658   -4.4384   25.9449 N   0  0  0  0  0  0  0  0  0  0  0  0
    8.0950   -0.7700   20.8440 N   0  0  0  0  0  0  0  0  0  0  0  0
    5.6415   -4.3469   25.5373 O   0  0  0  0  0  0  0  0  0  0  0  0
    9.2950    1.3000   20.9480 O   0  0  0  0  0  0  0  0  0  0  0  0
   14.8842   -2.4155   24.6836 H   0  0  0  0  0  0  0  0  0  0  0  0
    3.6208    2.0704   21.6579 H   0  0  0  0  0  0  0  0  0  0  0  0
   13.1387   -1.8001   26.3358 H   0  0  0  0  0  0  0  0  0  0  0  0
   14.7126   -1.6146   22.3413 H   0  0  0  0  0  0  0  0  0  0  0  0
    2.9857    2.6926   19.3615 H   0  0  0  0  0  0  0  0  0  0  0  0
    5.6664    0.7407   22.0807 H   0  0  0  0  0  0  0  0  0  0  0  0
   11.2258   -0.3895   25.6531 H   0  0  0  0  0  0  0  0  0  0  0  0
   12.8039   -0.2037   21.6488 H   0  0  0  0  0  0  0  0  0  0  0  0
   10.2695   -2.6718   22.3873 H   0  0  0  0  0  0  0  0  0  0  0  0
    7.8712   -0.0014   24.7587 H   0  0  0  0  0  0  0  0  0  0  0  0
    4.3794    2.0106   17.4221 H   0  0  0  0  0  0  0  0  0  0  0  0
    9.5431   -4.5618   23.7801 H   0  0  0  0  0  0  0  0  0  0  0  0
    7.1923   -1.8823   26.1912 H   0  0  0  0  0  0  0  0  0  0  0  0
    8.4172   -0.8135   18.0384 H   0  0  0  0  0  0  0  0  0  0  0  0
    5.3901   -6.0734   27.3117 H   0  0  0  0  0  0  0  0  0  0  0  0
    6.7606   -6.8843   26.5429 H   0  0  0  0  0  0  0  0  0  0  0  0
    6.8221   -4.9563   28.9212 H   0  0  0  0  0  0  0  0  0  0  0  0
    7.1526   -6.6910   28.9757 H   0  0  0  0  0  0  0  0  0  0  0  0
    9.0539   -4.6418   28.6288 H   0  0  0  0  0  0  0  0  0  0  0  0
    9.3393   -6.3684   28.4053 H   0  0  0  0  0  0  0  0  0  0  0  0
    9.9475   -4.7506   26.4523 H   0  0  0  0  0  0  0  0  0  0  0  0
    9.0509   -6.2236   26.0372 H   0  0  0  0  0  0  0  0  0  0  0  0
   10.4316    1.3089   24.0208 H   0  0  0  0  0  0  0  0  0  0  0  0
   11.0719    1.3385   22.3955 H   0  0  0  0  0  0  0  0  0  0  0  0
   10.5438   -0.9939   22.0202 H   0  0  0  0  0  0  0  0  0  0  0  0
    6.6715    0.4865   16.8044 H   0  0  0  0  0  0  0  0  0  0  0  0
    8.0917   -1.6083   21.0911 H   0  0  0  0  0  0  0  0  0  0  0  0
  1  3  1  0  0  0  0
  1  4  2  0  0  0  0
  2  5  1  0  0  0  0
  2  6  2  0  0  0  0
  3  7  2  0  0  0  0
  4  8  1  0  0  0  0
  5 11  2  0  0  0  0
  6 15  1  0  0  0  0
  7 16  1  0  0  0  0
  8 16  2  0  0  0  0
  9 12  2  0  0  0  0
  9 17  1  0  0  0  0
 10 13  1  0  0  0  0
 10 17  2  0  0  0  0
 11 18  1  0  0  0  0
 12 19  1  0  0  0  0
 13 19  2  0  0  0  0
 14 20  2  0  0  0  0
 14 29  1  0  0  0  0
 15 18  2  0  0  0  0
 15 20  1  0  0  0  0
 16 27  1  0  0  0  0
 17 28  1  0  0  0  0
 18 29  1  0  0  0  0
 19 30  1  0  0  0  0
 20 31  1  0  0  0  0
 21 23  1  0  0  0  0
 21 30  1  0  0  0  0
 21 32  2  0  0  0  0
 22 28  1  1  0  0  0
 22 31  1  0  0  0  0
 22 33  2  0  0  0  0
 23 24  1  0  0  0  0
 24 25  1  0  0  0  0
 25 26  1  0  0  0  0
 26 30  1  0  0  0  0
 27 28  1  0  0  0  0
  1 34  1  0  0  0  0
  2 35  1  0  0  0  0
  3 36  1  0  0  0  0
  4 37  1  0  0  0  0
  5 38  1  0  0  0  0
  6 39  1  0  0  0  0
  7 40  1  0  0  0  0
  8 41  1  0  0  0  0
  9 42  1  0  0  0  0
 10 43  1  0  0  0  0
 11 44  1  0  0  0  0
 12 45  1  0  0  0  0
 13 46  1  0  0  0  0
 14 47  1  0  0  0  0
 23 48  1  0  0  0  0
 23 49  1  0  0  0  0
 24 50  1  0  0  0  0
 24 51  1  0  0  0  0
 25 52  1  0  0  0  0
 25 53  1  0  0  0  0
 26 54  1  0  0  0  0
 26 55  1  0  0  0  0
 27 56  1  0  0  0  0
 27 57  1  0  0  0  0
 28 58  1  0  0  0  0
 29 59  1  0  0  0  0
 31 60  1  0  0  0  0
M  END
> <clash_score>
0

> <docking_score>
-8.11710262298584

> <overlap_score>
0.9768222570419312

$$$$
BENZO_300_1
  -OEChem-08222022463D

 57 61  0     1  0  0  0  0  0999 V2000
    4.2460    1.7520   20.8250 C   0  0  0  0  0  0  0  0  0  0  0  0
    3.8860    2.1050   19.5250 C   0  0  0  0  0  0  0  0  0  0  0  0
    5.3890    1.0010   21.0690 C   0  0  0  0  0  0  0  0  0  0  0  0
    9.5890   -2.4950   23.2210 C   0  0  0  0  0  0  0  0  0  0  0  0
    8.2550   -1.0010   24.5520 C   0  0  0  0  0  0  0  0  0  0  0  0
    4.6610    1.7170   18.4380 C   0  0  0  0  0  0  0  0  0  0  0  0
    9.1890   -3.5540   24.0140 C   0  0  0  0  0  0  0  0  0  0  0  0
    7.8700   -2.0610   25.3550 C   0  0  0  0  0  0  0  0  0  0  0  0
   12.0564    0.2021   25.3592 C   0  0  0  0  0  0  0  0  0  0  0  0
    7.5840   -0.2700   18.5160 C   0  0  0  0  0  0  0  0  0  0  0  0
   12.9335   -0.7085   25.9059 C   0  0  0  0  0  0  0  0  0  0  0  0
   12.2727   -1.3216   23.6174 C   0  0  0  0  0  0  0  0  0  0  0  0
    6.1460    0.6070   19.9750 C   0  0  0  0  0  0  0  0  0  0  0  0
    9.1280   -1.2090   23.4870 C   0  0  0  0  0  0  0  0  0  0  0  0
   11.6734   -0.1530   24.0335 C   0  0  0  0  0  0  0  0  0  0  0  0
    5.7970    0.9500   18.6730 C   0  0  0  0  0  0  0  0  0  0  0  0
    8.3450   -3.3440   25.0980 C   0  0  0  0  0  0  0  0  0  0  0  0
    7.2710   -0.1460   19.8310 C   0  0  0  0  0  0  0  0  0  0  0  0
    6.7262   -4.4697   26.6151 C   0  0  0  0  0  0  0  0  0  0  0  0
    9.0430    0.2380   21.4940 C   0  0  0  0  0  0  0  0  0  0  0  0
    6.5282   -5.7113   27.4665 C   0  0  0  0  0  0  0  0  0  0  0  0
    7.7583   -5.9846   28.3140 C   0  0  0  0  0  0  0  0  0  0  0  0
    9.0310   -6.0659   27.4769 C   0  0  0  0  0  0  0  0  0  0  0  0
    8.8255   -5.6238   26.0289 C   0  0  0  0  0  0  0  0  0  0  0  0
   10.7220    0.6590   23.1850 C   0  0  0  0  0  0  0  0  0  0  0  0
    9.5820   -0.1080   22.7000 C   0  0  1  0  0  0  0  0  0  0  0  0
    6.7100    0.3850   17.8100 N   0  0  0  0  0  0  0  0  0  0  0  0
    7.9658   -4.4384   25.9449 N   0  0  0  0  0  0  0  0  0  0  0  0
    8.0950   -0.7700   20.8440 N   0  0  0  0  0  0  0  0  0  0  0  0
    5.8136   -3.6504   26.5144 O   0  0  0  0  0  0  0  0  0  0  0  0
    9.2950    1.3000   20.9480 O   0  0  0  0  0  0  0  0  0  0  0  0
   13.2920   -1.9854   24.8226 S   0  0  0  0  0  0  0  0  0  0  0  0
    3.6208    2.0704   21.6579 H   0  0  0  0  0  0  0  0  0  0  0  0
    2.9857    2.6926   19.3615 H   0  0  0  0  0  0  0  0  0  0  0  0
    5.6664    0.7407   22.0807 H   0  0  0  0  0  0  0  0  0  0  0  0
   10.2695   -2.6718   22.3873 H   0  0  0  0  0  0  0  0  0  0  0  0
    7.8712   -0.0014   24.7587 H   0  0  0  0  0  0  0  0  0  0  0  0
    4.3794    2.0106   17.4221 H   0  0  0  0  0  0  0  0  0  0  0  0
    9.5431   -4.5618   23.7801 H   0  0  0  0  0  0  0  0  0  0  0  0
    7.1923   -1.8823   26.1912 H   0  0  0  0  0  0  0  0  0  0  0  0
   11.7089    1.0803   25.8886 H   0  0  0  0  0  0  0  0  0  0  0  0
    8.4172   -0.8135   18.0384 H   0  0  0  0  0  0  0  0  0  0  0  0
   13.3816   -0.6848   26.8892 H   0  0  0  0  0  0  0  0  0  0  0  0
   12.1643   -1.8199   22.6640 H   0  0  0  0  0  0  0  0  0  0  0  0
    5.6771   -5.5542   28.1111 H   0  0  0  0  0  0  0  0  0  0  0  0
    6.3384   -6.5392   26.7998 H   0  0  0  0  0  0  0  0  0  0  0  0
    7.8707   -5.1934   29.0843 H   0  0  0  0  0  0  0  0  0  0  0  0
    7.6207   -6.9300   28.8764 H   0  0  0  0  0  0  0  0  0  0  0  0
    9.8202   -5.4387   27.9422 H   0  0  0  0  0  0  0  0  0  0  0  0
    9.4333   -7.1021   27.4993 H   0  0  0  0  0  0  0  0  0  0  0  0
    9.7828   -5.3621   25.5884 H   0  0  0  0  0  0  0  0  0  0  0  0
    8.3738   -6.4323   25.4644 H   0  0  0  0  0  0  0  0  0  0  0  0
   10.3911    1.5389   23.7520 H   0  0  0  0  0  0  0  0  0  0  0  0
   11.2877    1.0581   22.3317 H   0  0  0  0  0  0  0  0  0  0  0  0
   10.5438   -0.9939   22.0202 H   0  0  0  0  0  0  0  0  0  0  0  0
    6.6715    0.4865   16.8044 H   0  0  0  0  0  0  0  0  0  0  0  0
    8.0917   -1.6083   21.0911 H   0  0  0  0  0  0  0  0  0  0  0  0
  1  2  1  0  0  0  0
  1  3  2  0  0  0  0
  2  6  2  0  0  0  0
  3 13  1  0  0  0  0
  4  7  2  0  0  0  0
  4 14  1  0  0  0  0
  5  8  1  0  0  0  0
  5 14  2  0  0  0  0
  6 16  1  0  0  0  0
  7 17  1  0  0  0  0
  8 17  2  0  0  0  0
  9 11  2  0  0  0  0
  9 15  1  0  0  0  0
 10 18  2  0  0  0  0
 10 27  1  0  0  0  0
 11 32  1  0  0  0  0
 12 15  2  0  0  0  0
 12 32  1  0  0  0  0
 13 16  2  0  0  0  0
 13 18  1  0  0  0  0
 14 26  1  0  0  0  0
 15 25  1  0  0  0  0
 16 27  1  0  0  0  0
 17 28  1  0  0  0  0
 18 29  1  0  0  0  0
 19 21  1  0  0  0  0
 19 28  1  0  0  0  0
 19 30  2  0  0  0  0
 20 26  1  1  0  0  0
 20 29  1  0  0  0  0
 20 31  2  0  0  0  0
 21 22  1  0  0  0  0
 22 23  1  0  0  0  0
 23 24  1  0  0  0  0
 24 28  1  0  0  0  0
 25 26  1  0  0  0  0
  1 33  1  0  0  0  0
  2 34  1  0  0  0  0
  3 35  1  0  0  0  0
  4 36  1  0  0  0  0
  5 37  1  0  0  0  0
  6 38  1  0  0  0  0
  7 39  1  0  0  0  0
  8 40  1  0  0  0  0
  9 41  1  0  0  0  0
 10 42  1  0  0  0  0
 11 43  1  0  0  0  0
 12 44  1  0  0  0  0
 21 45  1  0  0  0  0
 21 46  1  0  0  0  0
 22 47  1  0  0  0  0
 22 48  1  0  0  0  0
 23 49  1  0  0  0  0
 23 50  1  0  0  0  0
 24 51  1  0  0  0  0
 24 52  1  0  0  0  0
 25 53  1  0  0  0  0
 25 54  1  0  0  0  0
 26 55  1  0  0  0  0
 27 56  1  0  0  0  0
 29 57  1  0  0  0  0
M  END
> <clash_score>
0

> <docking_score>
-5.335164546966553

> <overlap_score>
0.9133999347686768

$$$$
BENZO_300_2
  -OEChem-08222022463D

 57 61  0     1  0  0  0  0  0999 V2000
    4.2460    1.7520   20.8250 C   0  0  0  0  0  0  0  0  0  0  0  0
    3.8860    2.1050   19.5250 C   0  0  0  0  0  0  0  0  0  0  0  0
    5.3890    1.0010   21.0690 C   0  0  0  0  0  0  0  0  0  0  0  0
    9.5890   -2.4950   23.2210 C   0  0  0  0  0  0  0  0  0  0  0  0
    8.2550   -1.0010   24.5520 C   0  0  0  0  0  0  0  0  0  0  0  0
    4.6610    1.7170   18.4380 C   0  0  0  0  0  0  0  0  0  0  0  0
    9.1890   -3.5540   24.0140 C   0  0  0  0  0  0  0  0  0  0  0  0
    7.8700   -2.0610   25.3550 C   0  0  0  0  0  0  0  0  0  0  0  0
   13.1119   -0.2539   23.5994 C   0  0  0  0  0  0  0  0  0  0  0  0
    7.5840   -0.2700   18.5160 C   0  0  0  0  0  0  0  0  0  0  0  0
   14.2133   -0.7203   22.9162 C   0  0  0  0  0  0  0  0  0  0  0  0
   12.3853   -0.0856   21.3980 C   0  0  0  0  0  0  0  0  0  0  0  0
    6.1460    0.6070   19.9750 C   0  0  0  0  0  0  0  0  0  0  0  0
    9.1280   -1.2090   23.4870 C   0  0  0  0  0  0  0  0  0  0  0  0
   12.0527    0.1137   22.7200 C   0  0  0  0  0  0  0  0  0  0  0  0
    5.7970    0.9500   18.6730 C   0  0  0  0  0  0  0  0  0  0  0  0
    8.3450   -3.3440   25.0980 C   0  0  0  0  0  0  0  0  0  0  0  0
    7.2710   -0.1460   19.8310 C   0  0  0  0  0  0  0  0  0  0  0  0
    6.6194   -4.8191   26.1158 C   0  0  0  0  0  0  0  0  0  0  0  0
    9.0430    0.2380   21.4940 C   0  0  0  0  0  0  0  0  0  0  0  0
    6.4366   -5.9938   27.0605 C   0  0  0  0  0  0  0  0  0  0  0  0
    7.2458   -5.7947   28.3299 C   0  0  0  0  0  0  0  0  0  0  0  0
    8.7184   -5.5215   28.0404 C   0  0  0  0  0  0  0  0  0  0  0  0
    9.0024   -5.2744   26.5596 C   0  0  0  0  0  0  0  0  0  0  0  0
   10.7220    0.6590   23.1850 C   0  0  0  0  0  0  0  0  0  0  0  0
    9.5820   -0.1080   22.7000 C   0  0  2  0  0  0  0  0  0  0  0  0
    6.7100    0.3850   17.8100 N   0  0  0  0  0  0  0  0  0  0  0  0
    7.9658   -4.4384   25.9449 N   0  0  0  0  0  0  0  0  0  0  0  0
    8.0950   -0.7700   20.8440 N   0  0  0  0  0  0  0  0  0  0  0  0
    5.6415   -4.3469   25.5373 O   0  0  0  0  0  0  0  0  0  0  0  0
    9.2950    1.3000   20.9480 O   0  0  0  0  0  0  0  0  0  0  0  0
   13.9685   -0.7137   21.2214 S   0  0  0  0  0  0  0  0  0  0  0  0
    3.6208    2.0704   21.6579 H   0  0  0  0  0  0  0  0  0  0  0  0
    2.9857    2.6926   19.3615 H   0  0  0  0  0  0  0  0  0  0  0  0
    5.6664    0.7407   22.0807 H   0  0  0  0  0  0  0  0  0  0  0  0
   10.2695   -2.6718   22.3873 H   0  0  0  0  0  0  0  0  0  0  0  0
    7.8712   -0.0014   24.7587 H   0  0  0  0  0  0  0  0  0  0  0  0
    4.3794    2.0106   17.4221 H   0  0  0  0  0  0  0  0  0  0  0  0
    9.5431   -4.5618   23.7801 H   0  0  0  0  0  0  0  0  0  0  0  0
    7.1923   -1.8823   26.1912 H   0  0  0  0  0  0  0  0  0  0  0  0
   13.0722   -0.1811   24.6789 H   0  0  0  0  0  0  0  0  0  0  0  0
    8.4172   -0.8135   18.0384 H   0  0  0  0  0  0  0  0  0  0  0  0
   15.1504   -1.0639   23.3311 H   0  0  0  0  0  0  0  0  0  0  0  0
   11.7778    0.1074   20.5246 H   0  0  0  0  0  0  0  0  0  0  0  0
    5.3901   -6.0734   27.3117 H   0  0  0  0  0  0  0  0  0  0  0  0
    6.7606   -6.8843   26.5429 H   0  0  0  0  0  0  0  0  0  0  0  0
    6.8221   -4.9563   28.9212 H   0  0  0  0  0  0  0  0  0  0  0  0
    7.1526   -6.6910   28.9757 H   0  0  0  0  0  0  0  0  0  0  0  0
    9.0539   -4.6418   28.6288 H   0  0  0  0  0  0  0  0  0  0  0  0
    9.3393   -6.3684   28.4053 H   0  0  0  0  0  0  0  0  0  0  0  0
    9.9475   -4.7506   26.4523 H   0  0  0  0  0  0  0  0  0  0  0  0
    9.0509   -6.2236   26.0372 H   0  0  0  0  0  0  0  0  0  0  0  0
   10.7177    0.7189   24.2812 H   0  0  0  0  0  0  0  0  0  0  0  0
   10.6426    1.6980   22.8361 H   0  0  0  0  0  0  0  0  0  0  0  0
    8.7036    0.8022   23.4008 H   0  0  0  0  0  0  0  0  0  0  0  0
    6.6715    0.4865   16.8044 H   0  0  0  0  0  0  0  0  0  0  0  0
    8.0917   -1.6083   21.0911 H   0  0  0  0  0  0  0  0  0  0  0  0
  1  2  1  0  0  0  0
  1  3  2  0  0  0  0
  2  6  2  0  0  0  0
  3 13  1  0  0  0  0
  4  7  2  0  0  0  0
  4 14  1  0  0  0  0
  5  8  1  0  0  0  0
  5 14  2  0  0  0  0
  6 16  1  0  0  0  0
  7 17  1  0  0  0  0
  8 17  2  0  0  0  0
  9 11  2  0  0  0  0
  9 15  1  0  0  0  0
 10 18  2  0  0  0  0
 10 27  1  0  0  0  0
 11 32  1  0  0  0  0
 12 15  2  0  0  0  0
 12 32  1  0  0  0  0
 13 16  2  0  0  0  0
 13 18  1  0  0  0  0
 14 26  1  0  0  0  0
 15 25  1  0  0  0  0
 16 27  1  0  0  0  0
 17 28  1  0  0  0  0
 18 29  1  0  0  0  0
 19 21  1  0  0  0  0
 19 28  1  0  0  0  0
 19 30  2  0  0  0  0
 20 26  1  6  0  0  0
 20 29  1  0  0  0  0
 20 31  2  0  0  0  0
 21 22  1  0  0  0  0
 22 23  1  0  0  0  0
 23 24  1  0  0  0  0
 24 28  1  0  0  0  0
 25 26  1  0  0  0  0
  1 33  1  0  0  0  0
  2 34  1  0  0  0  0
  3 35  1  0  0  0  0
  4 36  1  0  0  0  0
  5 37  1  0  0  0  0
  6 38  1  0  0  0  0
  7 39  1  0  0  0  0
  8 40  1  0  0  0  0
  9 41  1  0  0  0  0
 10 42  1  0  0  0  0
 11 43  1  0  0  0  0
 12 44  1  0  0  0  0
 21 45  1  0  0  0  0
 21 46  1  0  0  0  0
 22 47  1  0  0  0  0
 22 48  1  0  0  0  0
 23 49  1  0  0  0  0
 23 50  1  0  0  0  0
 24 51  1  0  0  0  0
 24 52  1  0  0  0  0
 25 53  1  0  0  0  0
 25 54  1  0  0  0  0
 26 55  1  0  0  0  0
 27 56  1  0  0  0  0
 29 57  1  0  0  0  0
M  END
> <clash_score>
0

> <docking_score>
-7.274386405944824

> <overlap_score>
0.951969563961029

$$$$
BENZO_301_2
  -OEChem-08222022463D

 60 64  0     1  0  0  0  0  0999 V2000
   14.5087   -0.8923   21.8603 C   0  0  0  0  0  0  0  0  0  0  0  0
    4.2460    1.7520   20.8250 C   0  0  0  0  0  0  0  0  0  0  0  0
   13.9503   -1.3434   23.0563 C   0  0  0  0  0  0  0  0  0  0  0  0
   13.8391    0.0619   21.0942 C   0  0  0  0  0  0  0  0  0  0  0  0
    3.8860    2.1050   19.5250 C   0  0  0  0  0  0  0  0  0  0  0  0
    5.3890    1.0010   21.0690 C   0  0  0  0  0  0  0  0  0  0  0  0
   12.7223   -0.8405   23.4861 C   0  0  0  0  0  0  0  0  0  0  0  0
   12.6112    0.5649   21.5240 C   0  0  0  0  0  0  0  0  0  0  0  0
    9.5890   -2.4950   23.2210 C   0  0  0  0  0  0  0  0  0  0  0  0
    8.2550   -1.0010   24.5520 C   0  0  0  0  0  0  0  0  0  0  0  0
    4.6610    1.7170   18.4380 C   0  0  0  0  0  0  0  0  0  0  0  0
    9.1890   -3.5540   24.0140 C   0  0  0  0  0  0  0  0  0  0  0  0
    7.8700   -2.0610   25.3550 C   0  0  0  0  0  0  0  0  0  0  0  0
    7.5840   -0.2700   18.5160 C   0  0  0  0  0  0  0  0  0  0  0  0
    6.1460    0.6070   19.9750 C   0  0  0  0  0  0  0  0  0  0  0  0
   12.0527    0.1137   22.7200 C   0  0  0  0  0  0  0  0  0  0  0  0
    9.1280   -1.2090   23.4870 C   0  0  0  0  0  0  0  0  0  0  0  0
    5.7970    0.9500   18.6730 C   0  0  0  0  0  0  0  0  0  0  0  0
    8.3450   -3.3440   25.0980 C   0  0  0  0  0  0  0  0  0  0  0  0
    7.2710   -0.1460   19.8310 C   0  0  0  0  0  0  0  0  0  0  0  0
    7.6777   -4.2365   27.3114 C   0  0  0  0  0  0  0  0  0  0  0  0
    9.0430    0.2380   21.4940 C   0  0  0  0  0  0  0  0  0  0  0  0
    7.0008   -5.3819   28.0445 C   0  0  0  0  0  0  0  0  0  0  0  0
    7.4106   -6.7604   27.5741 C   0  0  0  0  0  0  0  0  0  0  0  0
    7.2148   -6.8411   26.0763 C   0  0  0  0  0  0  0  0  0  0  0  0
    8.0979   -5.8053   25.4011 C   0  0  0  0  0  0  0  0  0  0  0  0
   10.7220    0.6590   23.1850 C   0  0  0  0  0  0  0  0  0  0  0  0
    9.5820   -0.1080   22.7000 C   0  0  2  0  0  0  0  0  0  0  0  0
    6.7100    0.3850   17.8100 N   0  0  0  0  0  0  0  0  0  0  0  0
    7.9635   -4.4451   25.9501 N   0  0  0  0  0  0  0  0  0  0  0  0
    8.0950   -0.7700   20.8440 N   0  0  0  0  0  0  0  0  0  0  0  0
    7.8778   -3.1892   27.9327 O   0  0  0  0  0  0  0  0  0  0  0  0
    9.2950    1.3000   20.9480 O   0  0  0  0  0  0  0  0  0  0  0  0
   15.4655   -1.2831   21.5265 H   0  0  0  0  0  0  0  0  0  0  0  0
    3.6208    2.0704   21.6579 H   0  0  0  0  0  0  0  0  0  0  0  0
   14.4720   -2.0856   23.6535 H   0  0  0  0  0  0  0  0  0  0  0  0
   14.2741    0.4142   20.1636 H   0  0  0  0  0  0  0  0  0  0  0  0
    2.9857    2.6926   19.3615 H   0  0  0  0  0  0  0  0  0  0  0  0
    5.6664    0.7407   22.0807 H   0  0  0  0  0  0  0  0  0  0  0  0
   12.2947   -1.1979   24.4191 H   0  0  0  0  0  0  0  0  0  0  0  0
   12.0966    1.3080   20.9206 H   0  0  0  0  0  0  0  0  0  0  0  0
   10.2695   -2.6718   22.3873 H   0  0  0  0  0  0  0  0  0  0  0  0
    7.8712   -0.0014   24.7587 H   0  0  0  0  0  0  0  0  0  0  0  0
    4.3794    2.0106   17.4221 H   0  0  0  0  0  0  0  0  0  0  0  0
    9.5431   -4.5618   23.7801 H   0  0  0  0  0  0  0  0  0  0  0  0
    7.1923   -1.8823   26.1912 H   0  0  0  0  0  0  0  0  0  0  0  0
    8.4172   -0.8135   18.0384 H   0  0  0  0  0  0  0  0  0  0  0  0
    7.2290   -5.2845   29.1121 H   0  0  0  0  0  0  0  0  0  0  0  0
    5.9188   -5.2480   27.9251 H   0  0  0  0  0  0  0  0  0  0  0  0
    8.4598   -6.9525   27.8289 H   0  0  0  0  0  0  0  0  0  0  0  0
    6.8062   -7.5226   28.0776 H   0  0  0  0  0  0  0  0  0  0  0  0
    7.4789   -7.8416   25.7161 H   0  0  0  0  0  0  0  0  0  0  0  0
    6.1634   -6.6702   25.8155 H   0  0  0  0  0  0  0  0  0  0  0  0
    9.1520   -6.0895   25.5127 H   0  0  0  0  0  0  0  0  0  0  0  0
    7.8696   -5.7728   24.3290 H   0  0  0  0  0  0  0  0  0  0  0  0
   10.7177    0.7189   24.2812 H   0  0  0  0  0  0  0  0  0  0  0  0
   10.6426    1.6980   22.8361 H   0  0  0  0  0  0  0  0  0  0  0  0
    8.7036    0.8022   23.4008 H   0  0  0  0  0  0  0  0  0  0  0  0
    6.6715    0.4865   16.8044 H   0  0  0  0  0  0  0  0  0  0  0  0
    8.0917   -1.6083   21.0911 H   0  0  0  0  0  0  0  0  0  0  0  0
  1  3  1  0  0  0  0
  1  4  2  0  0  0  0
  2  5  1  0  0  0  0
  2  6  2  0  0  0  0
  3  7  2  0  0  0  0
  4  8  1  0  0  0  0
  5 11  2  0  0  0  0
  6 15  1  0  0  0  0
  7 16  1  0  0  0  0
  8 16  2  0  0  0  0
  9 12  2  0  0  0  0
  9 17  1  0  0  0  0
 10 13  1  0  0  0  0
 10 17  2  0  0  0  0
 11 18  1  0  0  0  0
 12 19  1  0  0  0  0
 13 19  2  0  0  0  0
 14 20  2  0  0  0  0
 14 29  1  0  0  0  0
 15 18  2  0  0  0  0
 15 20  1  0  0  0  0
 16 27  1  0  0  0  0
 17 28  1  0  0  0  0
 18 29  1  0  0  0  0
 19 30  1  0  0  0  0
 20 31  1  0  0  0  0
 21 23  1  0  0  0  0
 21 30  1  0  0  0  0
 21 32  2  0  0  0  0
 22 28  1  6  0  0  0
 22 31  1  0  0  0  0
 22 33  2  0  0  0  0
 23 24  1  0  0  0  0
 24 25  1  0  0  0  0
 25 26  1  0  0  0  0
 26 30  1  0  0  0  0
 27 28  1  0  0  0  0
  1 34  1  0  0  0  0
  2 35  1  0  0  0  0
  3 36  1  0  0  0  0
  4 37  1  0  0  0  0
  5 38  1  0  0  0  0
  6 39  1  0  0  0  0
  7 40  1  0  0  0  0
  8 41  1  0  0  0  0
  9 42  1  0  0  0  0
 10 43  1  0  0  0  0
 11 44  1  0  0  0  0
 12 45  1  0  0  0  0
 13 46  1  0  0  0  0
 14 47  1  0  0  0  0
 23 48  1  0  0  0  0
 23 49  1  0  0  0  0
 24 50  1  0  0  0  0
 24 51  1  0  0  0  0
 25 52  1  0  0  0  0
 25 53  1  0  0  0  0
 26 54  1  0  0  0  0
 26 55  1  0  0  0  0
 27 56  1  0  0  0  0
 27 57  1  0  0  0  0
 28 58  1  0  0  0  0
 29 59  1  0  0  0  0
 31 60  1  0  0  0  0
M  END
> <clash_score>
0

> <docking_score>
-6.325319766998291

> <overlap_score>
0.9639173150062561

$$$$
BENZO_302_1
  -OEChem-08222022463D

 60 64  0     1  0  0  0  0  0999 V2000
    4.2460    1.7520   20.8250 C   0  0  0  0  0  0  0  0  0  0  0  0
    3.8860    2.1050   19.5250 C   0  0  0  0  0  0  0  0  0  0  0  0
   13.0606   -1.4512   25.3114 C   0  0  0  0  0  0  0  0  0  0  0  0
    5.3890    1.0010   21.0690 C   0  0  0  0  0  0  0  0  0  0  0  0
   11.9841   -0.6541   24.9226 C   0  0  0  0  0  0  0  0  0  0  0  0
    9.5890   -2.4950   23.2210 C   0  0  0  0  0  0  0  0  0  0  0  0
    8.2550   -1.0010   24.5520 C   0  0  0  0  0  0  0  0  0  0  0  0
    4.6610    1.7170   18.4380 C   0  0  0  0  0  0  0  0  0  0  0  0
    9.1890   -3.5540   24.0140 C   0  0  0  0  0  0  0  0  0  0  0  0
    7.8700   -2.0610   25.3550 C   0  0  0  0  0  0  0  0  0  0  0  0
   14.0427   -1.7980   24.3834 C   0  0  0  0  0  0  0  0  0  0  0  0
   12.8714   -0.5506   22.6778 C   0  0  0  0  0  0  0  0  0  0  0  0
    7.5840   -0.2700   18.5160 C   0  0  0  0  0  0  0  0  0  0  0  0
    6.1460    0.6070   19.9750 C   0  0  0  0  0  0  0  0  0  0  0  0
    9.1280   -1.2090   23.4870 C   0  0  0  0  0  0  0  0  0  0  0  0
   11.8895   -0.2037   23.6058 C   0  0  0  0  0  0  0  0  0  0  0  0
    5.7970    0.9500   18.6730 C   0  0  0  0  0  0  0  0  0  0  0  0
    8.3450   -3.3440   25.0980 C   0  0  0  0  0  0  0  0  0  0  0  0
    7.2710   -0.1460   19.8310 C   0  0  0  0  0  0  0  0  0  0  0  0
   13.9480   -1.3477   23.0666 C   0  0  0  0  0  0  0  0  0  0  0  0
    6.6194   -4.8191   26.1158 C   0  0  0  0  0  0  0  0  0  0  0  0
    9.0430    0.2380   21.4940 C   0  0  0  0  0  0  0  0  0  0  0  0
    6.4366   -5.9938   27.0605 C   0  0  0  0  0  0  0  0  0  0  0  0
    7.2458   -5.7947   28.3299 C   0  0  0  0  0  0  0  0  0  0  0  0
    8.7184   -5.5215   28.0404 C   0  0  0  0  0  0  0  0  0  0  0  0
    9.0024   -5.2744   26.5596 C   0  0  0  0  0  0  0  0  0  0  0  0
   10.7220    0.6590   23.1850 C   0  0  0  0  0  0  0  0  0  0  0  0
    9.5820   -0.1080   22.7000 C   0  0  1  0  0  0  0  0  0  0  0  0
    6.7100    0.3850   17.8100 N   0  0  0  0  0  0  0  0  0  0  0  0
    7.9658   -4.4384   25.9449 N   0  0  0  0  0  0  0  0  0  0  0  0
    8.0950   -0.7700   20.8440 N   0  0  0  0  0  0  0  0  0  0  0  0
    5.6415   -4.3469   25.5373 O   0  0  0  0  0  0  0  0  0  0  0  0
    9.2950    1.3000   20.9480 O   0  0  0  0  0  0  0  0  0  0  0  0
   15.1593   -1.7769   21.9219 Cl  0  0  0  0  0  0  0  0  0  0  0  0
    3.6208    2.0704   21.6579 H   0  0  0  0  0  0  0  0  0  0  0  0
    2.9857    2.6926   19.3615 H   0  0  0  0  0  0  0  0  0  0  0  0
   13.1339   -1.8018   26.3368 H   0  0  0  0  0  0  0  0  0  0  0  0
    5.6664    0.7407   22.0807 H   0  0  0  0  0  0  0  0  0  0  0  0
   11.2235   -0.3889   25.6523 H   0  0  0  0  0  0  0  0  0  0  0  0
   10.2695   -2.6718   22.3873 H   0  0  0  0  0  0  0  0  0  0  0  0
    7.8712   -0.0014   24.7587 H   0  0  0  0  0  0  0  0  0  0  0  0
    4.3794    2.0106   17.4221 H   0  0  0  0  0  0  0  0  0  0  0  0
    9.5431   -4.5618   23.7801 H   0  0  0  0  0  0  0  0  0  0  0  0
    7.1923   -1.8823   26.1912 H   0  0  0  0  0  0  0  0  0  0  0  0
   14.8760   -2.4202   24.7005 H   0  0  0  0  0  0  0  0  0  0  0  0
   12.7934   -0.1965   21.6525 H   0  0  0  0  0  0  0  0  0  0  0  0
    8.4172   -0.8135   18.0384 H   0  0  0  0  0  0  0  0  0  0  0  0
    5.3901   -6.0734   27.3117 H   0  0  0  0  0  0  0  0  0  0  0  0
    6.7606   -6.8843   26.5429 H   0  0  0  0  0  0  0  0  0  0  0  0
    6.8221   -4.9563   28.9212 H   0  0  0  0  0  0  0  0  0  0  0  0
    7.1526   -6.6910   28.9757 H   0  0  0  0  0  0  0  0  0  0  0  0
    9.0539   -4.6418   28.6288 H   0  0  0  0  0  0  0  0  0  0  0  0
    9.3393   -6.3684   28.4053 H   0  0  0  0  0  0  0  0  0  0  0  0
    9.9475   -4.7506   26.4523 H   0  0  0  0  0  0  0  0  0  0  0  0
    9.0509   -6.2236   26.0372 H   0  0  0  0  0  0  0  0  0  0  0  0
   10.4316    1.3089   24.0208 H   0  0  0  0  0  0  0  0  0  0  0  0
   11.0719    1.3385   22.3955 H   0  0  0  0  0  0  0  0  0  0  0  0
   10.5438   -0.9939   22.0202 H   0  0  0  0  0  0  0  0  0  0  0  0
    6.6715    0.4865   16.8044 H   0  0  0  0  0  0  0  0  0  0  0  0
    8.0917   -1.6083   21.0911 H   0  0  0  0  0  0  0  0  0  0  0  0
  1  2  1  0  0  0  0
  1  4  2  0  0  0  0
  2  8  2  0  0  0  0
  3  5  2  0  0  0  0
  3 11  1  0  0  0  0
  4 14  1  0  0  0  0
  5 16  1  0  0  0  0
  6  9  2  0  0  0  0
  6 15  1  0  0  0  0
  7 10  1  0  0  0  0
  7 15  2  0  0  0  0
  8 17  1  0  0  0  0
  9 18  1  0  0  0  0
 10 18  2  0  0  0  0
 11 20  2  0  0  0  0
 12 16  2  0  0  0  0
 12 20  1  0  0  0  0
 13 19  2  0  0  0  0
 13 29  1  0  0  0  0
 14 17  2  0  0  0  0
 14 19  1  0  0  0  0
 15 28  1  0  0  0  0
 16 27  1  0  0  0  0
 17 29  1  0  0  0  0
 18 30  1  0  0  0  0
 19 31  1  0  0  0  0
 20 34  1  0  0  0  0
 21 23  1  0  0  0  0
 21 30  1  0  0  0  0
 21 32  2  0  0  0  0
 22 28  1  1  0  0  0
 22 31  1  0  0  0  0
 22 33  2  0  0  0  0
 23 24  1  0  0  0  0
 24 25  1  0  0  0  0
 25 26  1  0  0  0  0
 26 30  1  0  0  0  0
 27 28  1  0  0  0  0
  1 35  1  0  0  0  0
  2 36  1  0  0  0  0
  3 37  1  0  0  0  0
  4 38  1  0  0  0  0
  5 39  1  0  0  0  0
  6 40  1  0  0  0  0
  7 41  1  0  0  0  0
  8 42  1  0  0  0  0
  9 43  1  0  0  0  0
 10 44  1  0  0  0  0
 11 45  1  0  0  0  0
 12 46  1  0  0  0  0
 13 47  1  0  0  0  0
 23 48  1  0  0  0  0
 23 49  1  0  0  0  0
 24 50  1  0  0  0  0
 24 51  1  0  0  0  0
 25 52  1  0  0  0  0
 25 53  1  0  0  0  0
 26 54  1  0  0  0  0
 26 55  1  0  0  0  0
 27 56  1  0  0  0  0
 27 57  1  0  0  0  0
 28 58  1  0  0  0  0
 29 59  1  0  0  0  0
 31 60  1  0  0  0  0
M  END
> <clash_score>
0

> <docking_score>
-7.246258735656738

> <overlap_score>
0.9826020002365112

$$$$
BENZO_302_2
  -OEChem-08222022463D

 60 64  0     1  0  0  0  0  0999 V2000
    4.2460    1.7520   20.8250 C   0  0  0  0  0  0  0  0  0  0  0  0
    3.8860    2.1050   19.5250 C   0  0  0  0  0  0  0  0  0  0  0  0
   13.8402    0.0638   21.0954 C   0  0  0  0  0  0  0  0  0  0  0  0
    5.3890    1.0010   21.0690 C   0  0  0  0  0  0  0  0  0  0  0  0
   12.6116    0.5657   21.5246 C   0  0  0  0  0  0  0  0  0  0  0  0
    9.5890   -2.4950   23.2210 C   0  0  0  0  0  0  0  0  0  0  0  0
    8.2550   -1.0010   24.5520 C   0  0  0  0  0  0  0  0  0  0  0  0
    4.6610    1.7170   18.4380 C   0  0  0  0  0  0  0  0  0  0  0  0
    9.1890   -3.5540   24.0140 C   0  0  0  0  0  0  0  0  0  0  0  0
    7.8700   -2.0610   25.3550 C   0  0  0  0  0  0  0  0  0  0  0  0
   14.5099   -0.8903   21.8616 C   0  0  0  0  0  0  0  0  0  0  0  0
   12.7224   -0.8403   23.4862 C   0  0  0  0  0  0  0  0  0  0  0  0
    7.5840   -0.2700   18.5160 C   0  0  0  0  0  0  0  0  0  0  0  0
    6.1460    0.6070   19.9750 C   0  0  0  0  0  0  0  0  0  0  0  0
    9.1280   -1.2090   23.4870 C   0  0  0  0  0  0  0  0  0  0  0  0
   12.0527    0.1137   22.7200 C   0  0  0  0  0  0  0  0  0  0  0  0
    5.7970    0.9500   18.6730 C   0  0  0  0  0  0  0  0  0  0  0  0
    8.3450   -3.3440   25.0980 C   0  0  0  0  0  0  0  0  0  0  0  0
    7.2710   -0.1460   19.8310 C   0  0  0  0  0  0  0  0  0  0  0  0
   13.9510   -1.3423   23.0570 C   0  0  0  0  0  0  0  0  0  0  0  0
    6.6194   -4.8191   26.1158 C   0  0  0  0  0  0  0  0  0  0  0  0
    9.0430    0.2380   21.4940 C   0  0  0  0  0  0  0  0  0  0  0  0
    6.4366   -5.9938   27.0605 C   0  0  0  0  0  0  0  0  0  0  0  0
    7.2458   -5.7947   28.3299 C   0  0  0  0  0  0  0  0  0  0  0  0
    8.7184   -5.5215   28.0404 C   0  0  0  0  0  0  0  0  0  0  0  0
    9.0024   -5.2744   26.5596 C   0  0  0  0  0  0  0  0  0  0  0  0
   10.7220    0.6590   23.1850 C   0  0  0  0  0  0  0  0  0  0  0  0
    9.5820   -0.1080   22.7000 C   0  0  2  0  0  0  0  0  0  0  0  0
    6.7100    0.3850   17.8100 N   0  0  0  0  0  0  0  0  0  0  0  0
    7.9658   -4.4384   25.9449 N   0  0  0  0  0  0  0  0  0  0  0  0
    8.0950   -0.7700   20.8440 N   0  0  0  0  0  0  0  0  0  0  0  0
    5.6415   -4.3469   25.5373 O   0  0  0  0  0  0  0  0  0  0  0  0
    9.2950    1.3000   20.9480 O   0  0  0  0  0  0  0  0  0  0  0  0
   14.7783   -2.5185   24.0025 Cl  0  0  0  0  0  0  0  0  0  0  0  0
    3.6208    2.0704   21.6579 H   0  0  0  0  0  0  0  0  0  0  0  0
    2.9857    2.6926   19.3615 H   0  0  0  0  0  0  0  0  0  0  0  0
   14.2752    0.4162   20.1646 H   0  0  0  0  0  0  0  0  0  0  0  0
    5.6664    0.7407   22.0807 H   0  0  0  0  0  0  0  0  0  0  0  0
   12.0969    1.3090   20.9213 H   0  0  0  0  0  0  0  0  0  0  0  0
   10.2695   -2.6718   22.3873 H   0  0  0  0  0  0  0  0  0  0  0  0
    7.8712   -0.0014   24.7587 H   0  0  0  0  0  0  0  0  0  0  0  0
    4.3794    2.0106   17.4221 H   0  0  0  0  0  0  0  0  0  0  0  0
    9.5431   -4.5618   23.7801 H   0  0  0  0  0  0  0  0  0  0  0  0
    7.1923   -1.8823   26.1912 H   0  0  0  0  0  0  0  0  0  0  0  0
   15.4669   -1.2724   21.5149 H   0  0  0  0  0  0  0  0  0  0  0  0
   12.2822   -1.1899   24.4172 H   0  0  0  0  0  0  0  0  0  0  0  0
    8.4172   -0.8135   18.0384 H   0  0  0  0  0  0  0  0  0  0  0  0
    5.3901   -6.0734   27.3117 H   0  0  0  0  0  0  0  0  0  0  0  0
    6.7606   -6.8843   26.5429 H   0  0  0  0  0  0  0  0  0  0  0  0
    6.8221   -4.9563   28.9212 H   0  0  0  0  0  0  0  0  0  0  0  0
    7.1526   -6.6910   28.9757 H   0  0  0  0  0  0  0  0  0  0  0  0
    9.0539   -4.6418   28.6288 H   0  0  0  0  0  0  0  0  0  0  0  0
    9.3393   -6.3684   28.4053 H   0  0  0  0  0  0  0  0  0  0  0  0
    9.9475   -4.7506   26.4523 H   0  0  0  0  0  0  0  0  0  0  0  0
    9.0509   -6.2236   26.0372 H   0  0  0  0  0  0  0  0  0  0  0  0
   10.7177    0.7189   24.2812 H   0  0  0  0  0  0  0  0  0  0  0  0
   10.6426    1.6980   22.8361 H   0  0  0  0  0  0  0  0  0  0  0  0
    8.7036    0.8022   23.4008 H   0  0  0  0  0  0  0  0  0  0  0  0
    6.6715    0.4865   16.8044 H   0  0  0  0  0  0  0  0  0  0  0  0
    8.0917   -1.6083   21.0911 H   0  0  0  0  0  0  0  0  0  0  0  0
  1  2  1  0  0  0  0
  1  4  2  0  0  0  0
  2  8  2  0  0  0  0
  3  5  2  0  0  0  0
  3 11  1  0  0  0  0
  4 14  1  0  0  0  0
  5 16  1  0  0  0  0
  6  9  2  0  0  0  0
  6 15  1  0  0  0  0
  7 10  1  0  0  0  0
  7 15  2  0  0  0  0
  8 17  1  0  0  0  0
  9 18  1  0  0  0  0
 10 18  2  0  0  0  0
 11 20  2  0  0  0  0
 12 16  2  0  0  0  0
 12 20  1  0  0  0  0
 13 19  2  0  0  0  0
 13 29  1  0  0  0  0
 14 17  2  0  0  0  0
 14 19  1  0  0  0  0
 15 28  1  0  0  0  0
 16 27  1  0  0  0  0
 17 29  1  0  0  0  0
 18 30  1  0  0  0  0
 19 31  1  0  0  0  0
 20 34  1  0  0  0  0
 21 23  1  0  0  0  0
 21 30  1  0  0  0  0
 21 32  2  0  0  0  0
 22 28  1  6  0  0  0
 22 31  1  0  0  0  0
 22 33  2  0  0  0  0
 23 24  1  0  0  0  0
 24 25  1  0  0  0  0
 25 26  1  0  0  0  0
 26 30  1  0  0  0  0
 27 28  1  0  0  0  0
  1 35  1  0  0  0  0
  2 36  1  0  0  0  0
  3 37  1  0  0  0  0
  4 38  1  0  0  0  0
  5 39  1  0  0  0  0
  6 40  1  0  0  0  0
  7 41  1  0  0  0  0
  8 42  1  0  0  0  0
  9 43  1  0  0  0  0
 10 44  1  0  0  0  0
 11 45  1  0  0  0  0
 12 46  1  0  0  0  0
 13 47  1  0  0  0  0
 23 48  1  0  0  0  0
 23 49  1  0  0  0  0
 24 50  1  0  0  0  0
 24 51  1  0  0  0  0
 25 52  1  0  0  0  0
 25 53  1  0  0  0  0
 26 54  1  0  0  0  0
 26 55  1  0  0  0  0
 27 56  1  0  0  0  0
 27 57  1  0  0  0  0
 28 58  1  0  0  0  0
 29 59  1  0  0  0  0
 31 60  1  0  0  0  0
M  END
> <clash_score>
0

> <docking_score>
-6.605348587036133

> <overlap_score>
0.9699636697769165

$$$$
BENZO_303_2
  -OEChem-08222022463D

 60 64  0     1  0  0  0  0  0999 V2000
    4.2460    1.7520   20.8250 C   0  0  0  0  0  0  0  0  0  0  0  0
    3.8860    2.1050   19.5250 C   0  0  0  0  0  0  0  0  0  0  0  0
    5.3890    1.0010   21.0690 C   0  0  0  0  0  0  0  0  0  0  0  0
    9.5890   -2.4950   23.2210 C   0  0  0  0  0  0  0  0  0  0  0  0
    8.2550   -1.0010   24.5520 C   0  0  0  0  0  0  0  0  0  0  0  0
    4.6610    1.7170   18.4380 C   0  0  0  0  0  0  0  0  0  0  0  0
    9.1890   -3.5540   24.0140 C   0  0  0  0  0  0  0  0  0  0  0  0
    7.8700   -2.0610   25.3550 C   0  0  0  0  0  0  0  0  0  0  0  0
   12.1477   -0.7466   24.8788 C   0  0  0  0  0  0  0  0  0  0  0  0
   12.9364   -0.6364   22.8292 C   0  0  0  0  0  0  0  0  0  0  0  0
    7.5840   -0.2700   18.5160 C   0  0  0  0  0  0  0  0  0  0  0  0
    6.1460    0.6070   19.9750 C   0  0  0  0  0  0  0  0  0  0  0  0
    9.1280   -1.2090   23.4870 C   0  0  0  0  0  0  0  0  0  0  0  0
   11.8895   -0.2037   23.6058 C   0  0  0  0  0  0  0  0  0  0  0  0
    5.7970    0.9500   18.6730 C   0  0  0  0  0  0  0  0  0  0  0  0
    8.3450   -3.3440   25.0980 C   0  0  0  0  0  0  0  0  0  0  0  0
    7.2710   -0.1460   19.8310 C   0  0  0  0  0  0  0  0  0  0  0  0
    6.6194   -4.8191   26.1158 C   0  0  0  0  0  0  0  0  0  0  0  0
    9.0430    0.2380   21.4940 C   0  0  0  0  0  0  0  0  0  0  0  0
    6.4366   -5.9938   27.0605 C   0  0  0  0  0  0  0  0  0  0  0  0
    7.2458   -5.7947   28.3299 C   0  0  0  0  0  0  0  0  0  0  0  0
    8.7184   -5.5215   28.0404 C   0  0  0  0  0  0  0  0  0  0  0  0
    9.0024   -5.2744   26.5596 C   0  0  0  0  0  0  0  0  0  0  0  0
   14.9528   -2.0520   23.2864 C   0  0  0  0  0  0  0  0  0  0  0  0
   10.7220    0.6590   23.1850 C   0  0  0  0  0  0  0  0  0  0  0  0
    9.5820   -0.1080   22.7000 C   0  0  2  0  0  0  0  0  0  0  0  0
   13.2706   -1.4691   24.9131 N   0  0  0  0  0  0  0  0  0  0  0  0
    6.7100    0.3850   17.8100 N   0  0  0  0  0  0  0  0  0  0  0  0
   13.7271   -1.3833   23.6520 N   0  0  0  0  0  0  0  0  0  0  0  0
    7.9658   -4.4384   25.9449 N   0  0  0  0  0  0  0  0  0  0  0  0
    8.0950   -0.7700   20.8440 N   0  0  0  0  0  0  0  0  0  0  0  0
    5.6415   -4.3469   25.5373 O   0  0  0  0  0  0  0  0  0  0  0  0
    9.2950    1.3000   20.9480 O   0  0  0  0  0  0  0  0  0  0  0  0
    3.6208    2.0704   21.6579 H   0  0  0  0  0  0  0  0  0  0  0  0
    2.9857    2.6926   19.3615 H   0  0  0  0  0  0  0  0  0  0  0  0
    5.6664    0.7407   22.0807 H   0  0  0  0  0  0  0  0  0  0  0  0
   10.2695   -2.6718   22.3873 H   0  0  0  0  0  0  0  0  0  0  0  0
    7.8712   -0.0014   24.7587 H   0  0  0  0  0  0  0  0  0  0  0  0
    4.3794    2.0106   17.4221 H   0  0  0  0  0  0  0  0  0  0  0  0
    9.5431   -4.5618   23.7801 H   0  0  0  0  0  0  0  0  0  0  0  0
    7.1923   -1.8823   26.1912 H   0  0  0  0  0  0  0  0  0  0  0  0
   11.5656   -0.6480   25.7841 H   0  0  0  0  0  0  0  0  0  0  0  0
   13.1794   -0.4813   21.7867 H   0  0  0  0  0  0  0  0  0  0  0  0
    8.4172   -0.8135   18.0384 H   0  0  0  0  0  0  0  0  0  0  0  0
    5.3901   -6.0734   27.3117 H   0  0  0  0  0  0  0  0  0  0  0  0
    6.7606   -6.8843   26.5429 H   0  0  0  0  0  0  0  0  0  0  0  0
    6.8221   -4.9563   28.9212 H   0  0  0  0  0  0  0  0  0  0  0  0
    7.1526   -6.6910   28.9757 H   0  0  0  0  0  0  0  0  0  0  0  0
    9.0539   -4.6418   28.6288 H   0  0  0  0  0  0  0  0  0  0  0  0
    9.3393   -6.3684   28.4053 H   0  0  0  0  0  0  0  0  0  0  0  0
    9.9475   -4.7506   26.4523 H   0  0  0  0  0  0  0  0  0  0  0  0
    9.0509   -6.2236   26.0372 H   0  0  0  0  0  0  0  0  0  0  0  0
   15.7795   -1.3568   23.4547 H   0  0  0  0  0  0  0  0  0  0  0  0
   15.0759   -2.9483   23.9007 H   0  0  0  0  0  0  0  0  0  0  0  0
   14.9053   -2.3434   22.2334 H   0  0  0  0  0  0  0  0  0  0  0  0
   10.4316    1.3089   24.0208 H   0  0  0  0  0  0  0  0  0  0  0  0
   11.0719    1.3385   22.3955 H   0  0  0  0  0  0  0  0  0  0  0  0
   10.5438   -0.9939   22.0202 H   0  0  0  0  0  0  0  0  0  0  0  0
    6.6715    0.4865   16.8044 H   0  0  0  0  0  0  0  0  0  0  0  0
    8.0917   -1.6083   21.0911 H   0  0  0  0  0  0  0  0  0  0  0  0
  1  2  1  0  0  0  0
  1  3  2  0  0  0  0
  2  6  2  0  0  0  0
  3 12  1  0  0  0  0
  4  7  2  0  0  0  0
  4 13  1  0  0  0  0
  5  8  1  0  0  0  0
  5 13  2  0  0  0  0
  6 15  1  0  0  0  0
  7 16  1  0  0  0  0
  8 16  2  0  0  0  0
  9 14  1  0  0  0  0
  9 27  2  0  0  0  0
 10 14  2  0  0  0  0
 10 29  1  0  0  0  0
 11 17  2  0  0  0  0
 11 28  1  0  0  0  0
 12 15  2  0  0  0  0
 12 17  1  0  0  0  0
 13 26  1  0  0  0  0
 14 25  1  0  0  0  0
 15 28  1  0  0  0  0
 16 30  1  0  0  0  0
 17 31  1  0  0  0  0
 18 20  1  0  0  0  0
 18 30  1  0  0  0  0
 18 32  2  0  0  0  0
 19 26  1  0  0  0  0
 19 31  1  0  0  0  0
 19 33  2  0  0  0  0
 20 21  1  0  0  0  0
 21 22  1  0  0  0  0
 22 23  1  0  0  0  0
 23 30  1  0  0  0  0
 24 29  1  0  0  0  0
 25 26  1  6  0  0  0
 27 29  1  0  0  0  0
  1 34  1  0  0  0  0
  2 35  1  0  0  0  0
  3 36  1  0  0  0  0
  4 37  1  0  0  0  0
  5 38  1  0  0  0  0
  6 39  1  0  0  0  0
  7 40  1  0  0  0  0
  8 41  1  0  0  0  0
  9 42  1  0  0  0  0
 10 43  1  0  0  0  0
 11 44  1  0  0  0  0
 20 45  1  0  0  0  0
 20 46  1  0  0  0  0
 21 47  1  0  0  0  0
 21 48  1  0  0  0  0
 22 49  1  0  0  0  0
 22 50  1  0  0  0  0
 23 51  1  0  0  0  0
 23 52  1  0  0  0  0
 24 53  1  0  0  0  0
 24 54  1  0  0  0  0
 24 55  1  0  0  0  0
 25 56  1  0  0  0  0
 25 57  1  0  0  0  0
 26 58  1  0  0  0  0
 28 59  1  0  0  0  0
 31 60  1  0  0  0  0
M  END
> <clash_score>
0

> <docking_score>
-7.176257133483887

> <overlap_score>
0.9785135388374329

$$$$
BENZO_303_1
  -OEChem-08222022463D

 60 64  0     1  0  0  0  0  0999 V2000
    4.2460    1.7520   20.8250 C   0  0  0  0  0  0  0  0  0  0  0  0
    3.8860    2.1050   19.5250 C   0  0  0  0  0  0  0  0  0  0  0  0
    5.3890    1.0010   21.0690 C   0  0  0  0  0  0  0  0  0  0  0  0
    9.5890   -2.4950   23.2210 C   0  0  0  0  0  0  0  0  0  0  0  0
    8.2550   -1.0010   24.5520 C   0  0  0  0  0  0  0  0  0  0  0  0
    4.6610    1.7170   18.4380 C   0  0  0  0  0  0  0  0  0  0  0  0
    9.1890   -3.5540   24.0140 C   0  0  0  0  0  0  0  0  0  0  0  0
    7.8700   -2.0610   25.3550 C   0  0  0  0  0  0  0  0  0  0  0  0
   13.3380    0.6111   23.0072 C   0  0  0  0  0  0  0  0  0  0  0  0
   12.2787   -0.9819   21.9231 C   0  0  0  0  0  0  0  0  0  0  0  0
    7.5840   -0.2700   18.5160 C   0  0  0  0  0  0  0  0  0  0  0  0
    6.1460    0.6070   19.9750 C   0  0  0  0  0  0  0  0  0  0  0  0
    9.1280   -1.2090   23.4870 C   0  0  0  0  0  0  0  0  0  0  0  0
   12.0527    0.1137   22.7200 C   0  0  0  0  0  0  0  0  0  0  0  0
    5.7970    0.9500   18.6730 C   0  0  0  0  0  0  0  0  0  0  0  0
    8.3450   -3.3440   25.0980 C   0  0  0  0  0  0  0  0  0  0  0  0
    7.2710   -0.1460   19.8310 C   0  0  0  0  0  0  0  0  0  0  0  0
    8.2612   -4.4533   27.3232 C   0  0  0  0  0  0  0  0  0  0  0  0
    9.0430    0.2380   21.4940 C   0  0  0  0  0  0  0  0  0  0  0  0
    7.7639   -5.6979   28.0369 C   0  0  0  0  0  0  0  0  0  0  0  0
    6.3258   -5.9996   27.6538 C   0  0  0  0  0  0  0  0  0  0  0  0
    6.1385   -6.0983   26.1431 C   0  0  0  0  0  0  0  0  0  0  0  0
    7.3646   -5.6395   25.3553 C   0  0  0  0  0  0  0  0  0  0  0  0
   14.3540   -2.0687   21.0338 C   0  0  0  0  0  0  0  0  0  0  0  0
   10.7220    0.6590   23.1850 C   0  0  0  0  0  0  0  0  0  0  0  0
    9.5820   -0.1080   22.7000 C   0  0  1  0  0  0  0  0  0  0  0  0
   14.3086   -0.1095   22.4392 N   0  0  0  0  0  0  0  0  0  0  0  0
    6.7100    0.3850   17.8100 N   0  0  0  0  0  0  0  0  0  0  0  0
   13.6329   -1.0709   21.7870 N   0  0  0  0  0  0  0  0  0  0  0  0
    7.9658   -4.4385   25.9450 N   0  0  0  0  0  0  0  0  0  0  0  0
    8.0950   -0.7700   20.8440 N   0  0  0  0  0  0  0  0  0  0  0  0
    8.9160   -3.6176   27.9452 O   0  0  0  0  0  0  0  0  0  0  0  0
    9.2950    1.3000   20.9480 O   0  0  0  0  0  0  0  0  0  0  0  0
    3.6208    2.0704   21.6579 H   0  0  0  0  0  0  0  0  0  0  0  0
    2.9857    2.6926   19.3615 H   0  0  0  0  0  0  0  0  0  0  0  0
    5.6664    0.7407   22.0807 H   0  0  0  0  0  0  0  0  0  0  0  0
   10.2695   -2.6718   22.3873 H   0  0  0  0  0  0  0  0  0  0  0  0
    7.8712   -0.0014   24.7587 H   0  0  0  0  0  0  0  0  0  0  0  0
    4.3794    2.0106   17.4221 H   0  0  0  0  0  0  0  0  0  0  0  0
    9.5431   -4.5618   23.7801 H   0  0  0  0  0  0  0  0  0  0  0  0
    7.1923   -1.8823   26.1912 H   0  0  0  0  0  0  0  0  0  0  0  0
   13.6104    1.4678   23.6073 H   0  0  0  0  0  0  0  0  0  0  0  0
   11.6080   -1.6889   21.4540 H   0  0  0  0  0  0  0  0  0  0  0  0
    8.4172   -0.8135   18.0384 H   0  0  0  0  0  0  0  0  0  0  0  0
    8.3914   -6.5295   27.7556 H   0  0  0  0  0  0  0  0  0  0  0  0
    7.8414   -5.5198   29.0990 H   0  0  0  0  0  0  0  0  0  0  0  0
    5.9977   -6.9465   28.1311 H   0  0  0  0  0  0  0  0  0  0  0  0
    5.6587   -5.2139   28.0619 H   0  0  0  0  0  0  0  0  0  0  0  0
    5.8986   -7.1470   25.8680 H   0  0  0  0  0  0  0  0  0  0  0  0
    5.2500   -5.5067   25.8324 H   0  0  0  0  0  0  0  0  0  0  0  0
    8.1195   -6.4201   25.3688 H   0  0  0  0  0  0  0  0  0  0  0  0
    7.0780   -5.4282   24.3307 H   0  0  0  0  0  0  0  0  0  0  0  0
   14.4774   -1.6970   20.0132 H   0  0  0  0  0  0  0  0  0  0  0  0
   15.3288   -2.2415   21.4983 H   0  0  0  0  0  0  0  0  0  0  0  0
   13.7859   -3.0032   21.0354 H   0  0  0  0  0  0  0  0  0  0  0  0
   10.7177    0.7189   24.2812 H   0  0  0  0  0  0  0  0  0  0  0  0
   10.6426    1.6980   22.8361 H   0  0  0  0  0  0  0  0  0  0  0  0
    8.7036    0.8022   23.4008 H   0  0  0  0  0  0  0  0  0  0  0  0
    6.6715    0.4865   16.8044 H   0  0  0  0  0  0  0  0  0  0  0  0
    8.0917   -1.6083   21.0911 H   0  0  0  0  0  0  0  0  0  0  0  0
  1  2  1  0  0  0  0
  1  3  2  0  0  0  0
  2  6  2  0  0  0  0
  3 12  1  0  0  0  0
  4  7  2  0  0  0  0
  4 13  1  0  0  0  0
  5  8  1  0  0  0  0
  5 13  2  0  0  0  0
  6 15  1  0  0  0  0
  7 16  1  0  0  0  0
  8 16  2  0  0  0  0
  9 14  1  0  0  0  0
  9 27  2  0  0  0  0
 10 14  2  0  0  0  0
 10 29  1  0  0  0  0
 11 17  2  0  0  0  0
 11 28  1  0  0  0  0
 12 15  2  0  0  0  0
 12 17  1  0  0  0  0
 13 26  1  0  0  0  0
 14 25  1  0  0  0  0
 15 28  1  0  0  0  0
 16 30  1  0  0  0  0
 17 31  1  0  0  0  0
 18 20  1  0  0  0  0
 18 30  1  0  0  0  0
 18 32  2  0  0  0  0
 19 26  1  0  0  0  0
 19 31  1  0  0  0  0
 19 33  2  0  0  0  0
 20 21  1  0  0  0  0
 21 22  1  0  0  0  0
 22 23  1  0  0  0  0
 23 30  1  0  0  0  0
 24 29  1  0  0  0  0
 25 26  1  1  0  0  0
 27 29  1  0  0  0  0
  1 34  1  0  0  0  0
  2 35  1  0  0  0  0
  3 36  1  0  0  0  0
  4 37  1  0  0  0  0
  5 38  1  0  0  0  0
  6 39  1  0  0  0  0
  7 40  1  0  0  0  0
  8 41  1  0  0  0  0
  9 42  1  0  0  0  0
 10 43  1  0  0  0  0
 11 44  1  0  0  0  0
 20 45  1  0  0  0  0
 20 46  1  0  0  0  0
 21 47  1  0  0  0  0
 21 48  1  0  0  0  0
 22 49  1  0  0  0  0
 22 50  1  0  0  0  0
 23 51  1  0  0  0  0
 23 52  1  0  0  0  0
 24 53  1  0  0  0  0
 24 54  1  0  0  0  0
 24 55  1  0  0  0  0
 25 56  1  0  0  0  0
 25 57  1  0  0  0  0
 26 58  1  0  0  0  0
 28 59  1  0  0  0  0
 31 60  1  0  0  0  0
M  END
> <clash_score>
0

> <docking_score>
-9.007440567016602

> <overlap_score>
0.9715062975883484

$$$$
BENZO_305_2
  -OEChem-08222022463D

 59 63  0     1  0  0  0  0  0999 V2000
   14.4826   -0.9249   21.8253 C   0  0  0  0  0  0  0  0  0  0  0  0
    4.2460    1.7520   20.8250 C   0  0  0  0  0  0  0  0  0  0  0  0
   14.4071   -0.2631   23.0508 C   0  0  0  0  0  0  0  0  0  0  0  0
   13.3388   -1.0729   21.0408 C   0  0  0  0  0  0  0  0  0  0  0  0
    3.8860    2.1050   19.5250 C   0  0  0  0  0  0  0  0  0  0  0  0
    5.3890    1.0010   21.0690 C   0  0  0  0  0  0  0  0  0  0  0  0
   13.1876    0.2507   23.4919 C   0  0  0  0  0  0  0  0  0  0  0  0
   12.1193   -0.5591   21.4820 C   0  0  0  0  0  0  0  0  0  0  0  0
    9.5890   -2.4950   23.2210 C   0  0  0  0  0  0  0  0  0  0  0  0
    8.2550   -1.0010   24.5520 C   0  0  0  0  0  0  0  0  0  0  0  0
    4.6610    1.7170   18.4380 C   0  0  0  0  0  0  0  0  0  0  0  0
    9.1890   -3.5540   24.0140 C   0  0  0  0  0  0  0  0  0  0  0  0
    7.8700   -2.0610   25.3550 C   0  0  0  0  0  0  0  0  0  0  0  0
    7.5840   -0.2700   18.5160 C   0  0  0  0  0  0  0  0  0  0  0  0
    6.1460    0.6070   19.9750 C   0  0  0  0  0  0  0  0  0  0  0  0
   12.0437    0.1027   22.7075 C   0  0  0  0  0  0  0  0  0  0  0  0
    9.1280   -1.2090   23.4870 C   0  0  0  0  0  0  0  0  0  0  0  0
    5.7970    0.9500   18.6730 C   0  0  0  0  0  0  0  0  0  0  0  0
    8.3450   -3.3440   25.0980 C   0  0  0  0  0  0  0  0  0  0  0  0
    7.2710   -0.1460   19.8310 C   0  0  0  0  0  0  0  0  0  0  0  0
    9.0430    0.2380   21.4940 C   0  0  0  0  0  0  0  0  0  0  0  0
    6.7636   -5.1646   25.5737 C   0  0  0  0  0  0  0  0  0  0  0  0
    8.3036   -4.3779   27.3502 C   0  0  0  0  0  0  0  0  0  0  0  0
    6.8053   -6.5367   26.2366 C   0  0  0  0  0  0  0  0  0  0  0  0
    8.2626   -5.7921   27.9187 C   0  0  0  0  0  0  0  0  0  0  0  0
   10.7220    0.6590   23.1850 C   0  0  0  0  0  0  0  0  0  0  0  0
    9.5820   -0.1080   22.7000 C   0  0  2  0  0  0  0  0  0  0  0  0
    6.7100    0.3850   17.8100 N   0  0  0  0  0  0  0  0  0  0  0  0
    7.9748   -4.4087   25.9209 N   0  0  0  0  0  0  0  0  0  0  0  0
    8.0950   -0.7700   20.8440 N   0  0  0  0  0  0  0  0  0  0  0  0
    9.2950    1.3000   20.9480 O   0  0  0  0  0  0  0  0  0  0  0  0
    7.0035   -6.4052   27.6441 O   0  0  0  0  0  0  0  0  0  0  0  0
   15.4325   -1.3238   21.4813 H   0  0  0  0  0  0  0  0  0  0  0  0
    3.6208    2.0704   21.6579 H   0  0  0  0  0  0  0  0  0  0  0  0
   15.2979   -0.1468   23.6612 H   0  0  0  0  0  0  0  0  0  0  0  0
   13.3974   -1.5871   20.0862 H   0  0  0  0  0  0  0  0  0  0  0  0
    2.9857    2.6926   19.3615 H   0  0  0  0  0  0  0  0  0  0  0  0
    5.6664    0.7407   22.0807 H   0  0  0  0  0  0  0  0  0  0  0  0
   13.1382    0.7647   24.4482 H   0  0  0  0  0  0  0  0  0  0  0  0
   11.2333   -0.6792   20.8642 H   0  0  0  0  0  0  0  0  0  0  0  0
   10.2684   -2.6719   22.3867 H   0  0  0  0  0  0  0  0  0  0  0  0
    7.8717   -0.0016   24.7596 H   0  0  0  0  0  0  0  0  0  0  0  0
    4.3794    2.0106   17.4221 H   0  0  0  0  0  0  0  0  0  0  0  0
    9.5443   -4.5616   23.7817 H   0  0  0  0  0  0  0  0  0  0  0  0
    7.1921   -1.8821   26.1908 H   0  0  0  0  0  0  0  0  0  0  0  0
    8.4172   -0.8135   18.0384 H   0  0  0  0  0  0  0  0  0  0  0  0
    6.6736   -5.2842   24.4848 H   0  0  0  0  0  0  0  0  0  0  0  0
    5.8813   -4.6101   25.9269 H   0  0  0  0  0  0  0  0  0  0  0  0
    7.5696   -3.7474   27.8746 H   0  0  0  0  0  0  0  0  0  0  0  0
    9.2993   -3.9431   27.5163 H   0  0  0  0  0  0  0  0  0  0  0  0
    5.8518   -7.0517   26.0816 H   0  0  0  0  0  0  0  0  0  0  0  0
    7.5933   -7.1674   25.8077 H   0  0  0  0  0  0  0  0  0  0  0  0
    9.0735   -6.4113   27.5161 H   0  0  0  0  0  0  0  0  0  0  0  0
    8.3853   -5.7567   29.0060 H   0  0  0  0  0  0  0  0  0  0  0  0
   10.7266    0.7141   24.2815 H   0  0  0  0  0  0  0  0  0  0  0  0
   10.6502    1.7003   22.8412 H   0  0  0  0  0  0  0  0  0  0  0  0
    8.7027    0.7972   23.4026 H   0  0  0  0  0  0  0  0  0  0  0  0
    6.6715    0.4865   16.8044 H   0  0  0  0  0  0  0  0  0  0  0  0
    8.0730   -1.6176   21.0751 H   0  0  0  0  0  0  0  0  0  0  0  0
  1  3  1  0  0  0  0
  1  4  2  0  0  0  0
  2  5  1  0  0  0  0
  2  6  2  0  0  0  0
  3  7  2  0  0  0  0
  4  8  1  0  0  0  0
  5 11  2  0  0  0  0
  6 15  1  0  0  0  0
  7 16  1  0  0  0  0
  8 16  2  0  0  0  0
  9 12  2  0  0  0  0
  9 17  1  0  0  0  0
 10 13  1  0  0  0  0
 10 17  2  0  0  0  0
 11 18  1  0  0  0  0
 12 19  1  0  0  0  0
 13 19  2  0  0  0  0
 14 20  2  0  0  0  0
 14 28  1  0  0  0  0
 15 18  2  0  0  0  0
 15 20  1  0  0  0  0
 16 26  1  0  0  0  0
 17 27  1  0  0  0  0
 18 28  1  0  0  0  0
 19 29  1  0  0  0  0
 20 30  1  0  0  0  0
 21 27  1  6  0  0  0
 21 30  1  0  0  0  0
 21 31  2  0  0  0  0
 22 24  1  0  0  0  0
 22 29  1  0  0  0  0
 23 25  1  0  0  0  0
 23 29  1  0  0  0  0
 24 32  1  0  0  0  0
 25 32  1  0  0  0  0
 26 27  1  0  0  0  0
  1 33  1  0  0  0  0
  2 34  1  0  0  0  0
  3 35  1  0  0  0  0
  4 36  1  0  0  0  0
  5 37  1  0  0  0  0
  6 38  1  0  0  0  0
  7 39  1  0  0  0  0
  8 40  1  0  0  0  0
  9 41  1  0  0  0  0
 10 42  1  0  0  0  0
 11 43  1  0  0  0  0
 12 44  1  0  0  0  0
 13 45  1  0  0  0  0
 14 46  1  0  0  0  0
 22 47  1  0  0  0  0
 22 48  1  0  0  0  0
 23 49  1  0  0  0  0
 23 50  1  0  0  0  0
 24 51  1  0  0  0  0
 24 52  1  0  0  0  0
 25 53  1  0  0  0  0
 25 54  1  0  0  0  0
 26 55  1  0  0  0  0
 26 56  1  0  0  0  0
 27 57  1  0  0  0  0
 28 58  1  0  0  0  0
 30 59  1  0  0  0  0
M  END
> <clash_score>
0

> <docking_score>
-7.415538787841797

> <overlap_score>
0.9556864500045776

$$$$
BENZO_305_1
  -OEChem-08222022463D

 59 63  0     1  0  0  0  0  0999 V2000
   14.0137   -1.8398   24.3768 C   0  0  0  0  0  0  0  0  0  0  0  0
    4.2460    1.7520   20.8250 C   0  0  0  0  0  0  0  0  0  0  0  0
   13.0361   -1.4844   25.3061 C   0  0  0  0  0  0  0  0  0  0  0  0
   13.9239   -1.3848   23.0613 C   0  0  0  0  0  0  0  0  0  0  0  0
    3.8860    2.1050   19.5250 C   0  0  0  0  0  0  0  0  0  0  0  0
    5.3890    1.0010   21.0690 C   0  0  0  0  0  0  0  0  0  0  0  0
   11.9686   -0.6740   24.9198 C   0  0  0  0  0  0  0  0  0  0  0  0
   12.8563   -0.5744   22.6750 C   0  0  0  0  0  0  0  0  0  0  0  0
    9.5890   -2.4950   23.2210 C   0  0  0  0  0  0  0  0  0  0  0  0
    8.2550   -1.0010   24.5520 C   0  0  0  0  0  0  0  0  0  0  0  0
    4.6610    1.7170   18.4380 C   0  0  0  0  0  0  0  0  0  0  0  0
    9.1890   -3.5540   24.0140 C   0  0  0  0  0  0  0  0  0  0  0  0
    7.8700   -2.0610   25.3550 C   0  0  0  0  0  0  0  0  0  0  0  0
    7.5840   -0.2700   18.5160 C   0  0  0  0  0  0  0  0  0  0  0  0
    6.1460    0.6070   19.9750 C   0  0  0  0  0  0  0  0  0  0  0  0
   11.8786   -0.2190   23.6043 C   0  0  0  0  0  0  0  0  0  0  0  0
    9.1280   -1.2090   23.4870 C   0  0  0  0  0  0  0  0  0  0  0  0
    5.7970    0.9500   18.6730 C   0  0  0  0  0  0  0  0  0  0  0  0
    8.3450   -3.3440   25.0980 C   0  0  0  0  0  0  0  0  0  0  0  0
    7.2710   -0.1460   19.8310 C   0  0  0  0  0  0  0  0  0  0  0  0
    9.0430    0.2380   21.4940 C   0  0  0  0  0  0  0  0  0  0  0  0
    8.9527   -5.2007   26.6599 C   0  0  0  0  0  0  0  0  0  0  0  0
    6.6114   -4.5061   26.4392 C   0  0  0  0  0  0  0  0  0  0  0  0
    8.9052   -4.7829   28.1257 C   0  0  0  0  0  0  0  0  0  0  0  0
    6.6389   -4.1225   27.9194 C   0  0  0  0  0  0  0  0  0  0  0  0
   10.7220    0.6590   23.1850 C   0  0  0  0  0  0  0  0  0  0  0  0
    9.5820   -0.1080   22.7000 C   0  0  1  0  0  0  0  0  0  0  0  0
    6.7100    0.3850   17.8100 N   0  0  0  0  0  0  0  0  0  0  0  0
    7.9774   -4.4013   25.9152 N   0  0  0  0  0  0  0  0  0  0  0  0
    8.0950   -0.7700   20.8440 N   0  0  0  0  0  0  0  0  0  0  0  0
    9.2950    1.3000   20.9480 O   0  0  0  0  0  0  0  0  0  0  0  0
    7.5748   -4.9369   28.6346 O   0  0  0  0  0  0  0  0  0  0  0  0
   14.8456   -2.4698   24.6781 H   0  0  0  0  0  0  0  0  0  0  0  0
    3.6208    2.0704   21.6579 H   0  0  0  0  0  0  0  0  0  0  0  0
   13.1065   -1.8377   26.3307 H   0  0  0  0  0  0  0  0  0  0  0  0
   14.6854   -1.6605   22.3378 H   0  0  0  0  0  0  0  0  0  0  0  0
    2.9857    2.6926   19.3615 H   0  0  0  0  0  0  0  0  0  0  0  0
    5.6664    0.7407   22.0807 H   0  0  0  0  0  0  0  0  0  0  0  0
   11.2114   -0.4022   25.6506 H   0  0  0  0  0  0  0  0  0  0  0  0
   12.7944   -0.2247   21.6479 H   0  0  0  0  0  0  0  0  0  0  0  0
   10.2684   -2.6719   22.3867 H   0  0  0  0  0  0  0  0  0  0  0  0
    7.8717   -0.0016   24.7596 H   0  0  0  0  0  0  0  0  0  0  0  0
    4.3794    2.0106   17.4221 H   0  0  0  0  0  0  0  0  0  0  0  0
    9.5443   -4.5616   23.7817 H   0  0  0  0  0  0  0  0  0  0  0  0
    7.1921   -1.8821   26.1908 H   0  0  0  0  0  0  0  0  0  0  0  0
    8.4172   -0.8135   18.0384 H   0  0  0  0  0  0  0  0  0  0  0  0
    9.9650   -5.0555   26.2691 H   0  0  0  0  0  0  0  0  0  0  0  0
    8.6941   -6.2620   26.5708 H   0  0  0  0  0  0  0  0  0  0  0  0
    6.2612   -5.5365   26.3329 H   0  0  0  0  0  0  0  0  0  0  0  0
    5.9290   -3.8447   25.9017 H   0  0  0  0  0  0  0  0  0  0  0  0
    9.5616   -5.4256   28.7162 H   0  0  0  0  0  0  0  0  0  0  0  0
    9.2362   -3.7495   28.2622 H   0  0  0  0  0  0  0  0  0  0  0  0
    6.8891   -3.0639   28.0552 H   0  0  0  0  0  0  0  0  0  0  0  0
    5.6513   -4.2871   28.3609 H   0  0  0  0  0  0  0  0  0  0  0  0
   10.4369    1.3080   24.0233 H   0  0  0  0  0  0  0  0  0  0  0  0
   11.0815    1.3384   22.3997 H   0  0  0  0  0  0  0  0  0  0  0  0
   10.5413   -0.9955   22.0233 H   0  0  0  0  0  0  0  0  0  0  0  0
    6.6715    0.4865   16.8044 H   0  0  0  0  0  0  0  0  0  0  0  0
    8.0730   -1.6176   21.0751 H   0  0  0  0  0  0  0  0  0  0  0  0
  1  3  1  0  0  0  0
  1  4  2  0  0  0  0
  2  5  1  0  0  0  0
  2  6  2  0  0  0  0
  3  7  2  0  0  0  0
  4  8  1  0  0  0  0
  5 11  2  0  0  0  0
  6 15  1  0  0  0  0
  7 16  1  0  0  0  0
  8 16  2  0  0  0  0
  9 12  2  0  0  0  0
  9 17  1  0  0  0  0
 10 13  1  0  0  0  0
 10 17  2  0  0  0  0
 11 18  1  0  0  0  0
 12 19  1  0  0  0  0
 13 19  2  0  0  0  0
 14 20  2  0  0  0  0
 14 28  1  0  0  0  0
 15 18  2  0  0  0  0
 15 20  1  0  0  0  0
 16 26  1  0  0  0  0
 17 27  1  0  0  0  0
 18 28  1  0  0  0  0
 19 29  1  0  0  0  0
 20 30  1  0  0  0  0
 21 27  1  1  0  0  0
 21 30  1  0  0  0  0
 21 31  2  0  0  0  0
 22 24  1  0  0  0  0
 22 29  1  0  0  0  0
 23 25  1  0  0  0  0
 23 29  1  0  0  0  0
 24 32  1  0  0  0  0
 25 32  1  0  0  0  0
 26 27  1  0  0  0  0
  1 33  1  0  0  0  0
  2 34  1  0  0  0  0
  3 35  1  0  0  0  0
  4 36  1  0  0  0  0
  5 37  1  0  0  0  0
  6 38  1  0  0  0  0
  7 39  1  0  0  0  0
  8 40  1  0  0  0  0
  9 41  1  0  0  0  0
 10 42  1  0  0  0  0
 11 43  1  0  0  0  0
 12 44  1  0  0  0  0
 13 45  1  0  0  0  0
 14 46  1  0  0  0  0
 22 47  1  0  0  0  0
 22 48  1  0  0  0  0
 23 49  1  0  0  0  0
 23 50  1  0  0  0  0
 24 51  1  0  0  0  0
 24 52  1  0  0  0  0
 25 53  1  0  0  0  0
 25 54  1  0  0  0  0
 26 55  1  0  0  0  0
 26 56  1  0  0  0  0
 27 57  1  0  0  0  0
 28 58  1  0  0  0  0
 30 59  1  0  0  0  0
M  END
> <clash_score>
0

> <docking_score>
-8.239764213562012

> <overlap_score>
0.9753563404083252

$$$$
BENZO_304_1
  -OEChem-08222022463D

 56 60  0     1  0  0  0  0  0999 V2000
    4.2460    1.7520   20.8250 C   0  0  0  0  0  0  0  0  0  0  0  0
    3.8860    2.1050   19.5250 C   0  0  0  0  0  0  0  0  0  0  0  0
    5.3890    1.0010   21.0690 C   0  0  0  0  0  0  0  0  0  0  0  0
    9.5890   -2.4950   23.2210 C   0  0  0  0  0  0  0  0  0  0  0  0
    8.2550   -1.0010   24.5520 C   0  0  0  0  0  0  0  0  0  0  0  0
    4.6610    1.7170   18.4380 C   0  0  0  0  0  0  0  0  0  0  0  0
    9.1890   -3.5540   24.0140 C   0  0  0  0  0  0  0  0  0  0  0  0
    7.8700   -2.0610   25.3550 C   0  0  0  0  0  0  0  0  0  0  0  0
    9.1267    2.5989   23.8239 C   0  0  0  0  0  0  0  0  0  0  0  0
    7.5840   -0.2700   18.5160 C   0  0  0  0  0  0  0  0  0  0  0  0
    8.9915    3.6153   24.7438 C   0  0  0  0  0  0  0  0  0  0  0  0
   11.0358    2.2991   25.1152 C   0  0  0  0  0  0  0  0  0  0  0  0
    6.1460    0.6070   19.9750 C   0  0  0  0  0  0  0  0  0  0  0  0
    9.1280   -1.2090   23.4870 C   0  0  0  0  0  0  0  0  0  0  0  0
   10.3109    1.8363   24.0390 C   0  0  0  0  0  0  0  0  0  0  0  0
    5.7970    0.9500   18.6730 C   0  0  0  0  0  0  0  0  0  0  0  0
    8.3450   -3.3440   25.0980 C   0  0  0  0  0  0  0  0  0  0  0  0
    7.2710   -0.1460   19.8310 C   0  0  0  0  0  0  0  0  0  0  0  0
    9.0430    0.2380   21.4940 C   0  0  0  0  0  0  0  0  0  0  0  0
    8.9527   -5.2007   26.6599 C   0  0  0  0  0  0  0  0  0  0  0  0
    6.6114   -4.5061   26.4392 C   0  0  0  0  0  0  0  0  0  0  0  0
    8.9052   -4.7829   28.1257 C   0  0  0  0  0  0  0  0  0  0  0  0
    6.6389   -4.1225   27.9194 C   0  0  0  0  0  0  0  0  0  0  0  0
   10.7220    0.6590   23.1850 C   0  0  0  0  0  0  0  0  0  0  0  0
    9.5820   -0.1080   22.7000 C   0  0  1  0  0  0  0  0  0  0  0  0
    6.7100    0.3850   17.8100 N   0  0  0  0  0  0  0  0  0  0  0  0
    7.9774   -4.4013   25.9152 N   0  0  0  0  0  0  0  0  0  0  0  0
    8.0950   -0.7700   20.8440 N   0  0  0  0  0  0  0  0  0  0  0  0
    9.2950    1.3000   20.9480 O   0  0  0  0  0  0  0  0  0  0  0  0
    7.5748   -4.9369   28.6346 O   0  0  0  0  0  0  0  0  0  0  0  0
   10.2887    3.6474   25.8611 S   0  0  0  0  0  0  0  0  0  0  0  0
    3.6208    2.0704   21.6579 H   0  0  0  0  0  0  0  0  0  0  0  0
    2.9857    2.6926   19.3615 H   0  0  0  0  0  0  0  0  0  0  0  0
    5.6664    0.7407   22.0807 H   0  0  0  0  0  0  0  0  0  0  0  0
   10.2684   -2.6719   22.3867 H   0  0  0  0  0  0  0  0  0  0  0  0
    7.8717   -0.0016   24.7596 H   0  0  0  0  0  0  0  0  0  0  0  0
    4.3794    2.0106   17.4221 H   0  0  0  0  0  0  0  0  0  0  0  0
    9.5443   -4.5616   23.7817 H   0  0  0  0  0  0  0  0  0  0  0  0
    7.1921   -1.8821   26.1908 H   0  0  0  0  0  0  0  0  0  0  0  0
    8.4080    2.4151   23.0352 H   0  0  0  0  0  0  0  0  0  0  0  0
    8.4172   -0.8135   18.0384 H   0  0  0  0  0  0  0  0  0  0  0  0
    8.1934    4.3409   24.8129 H   0  0  0  0  0  0  0  0  0  0  0  0
   11.9692    1.9137   25.5017 H   0  0  0  0  0  0  0  0  0  0  0  0
    9.9650   -5.0555   26.2691 H   0  0  0  0  0  0  0  0  0  0  0  0
    8.6941   -6.2620   26.5708 H   0  0  0  0  0  0  0  0  0  0  0  0
    6.2612   -5.5365   26.3329 H   0  0  0  0  0  0  0  0  0  0  0  0
    5.9290   -3.8447   25.9017 H   0  0  0  0  0  0  0  0  0  0  0  0
    9.5616   -5.4256   28.7162 H   0  0  0  0  0  0  0  0  0  0  0  0
    9.2362   -3.7495   28.2622 H   0  0  0  0  0  0  0  0  0  0  0  0
    6.8891   -3.0639   28.0552 H   0  0  0  0  0  0  0  0  0  0  0  0
    5.6513   -4.2871   28.3609 H   0  0  0  0  0  0  0  0  0  0  0  0
   11.3450    1.0140   22.3537 H   0  0  0  0  0  0  0  0  0  0  0  0
   11.3793    0.0176   23.7884 H   0  0  0  0  0  0  0  0  0  0  0  0
   10.5413   -0.9955   22.0233 H   0  0  0  0  0  0  0  0  0  0  0  0
    6.6715    0.4865   16.8044 H   0  0  0  0  0  0  0  0  0  0  0  0
    8.0730   -1.6176   21.0751 H   0  0  0  0  0  0  0  0  0  0  0  0
  1  2  1  0  0  0  0
  1  3  2  0  0  0  0
  2  6  2  0  0  0  0
  3 13  1  0  0  0  0
  4  7  2  0  0  0  0
  4 14  1  0  0  0  0
  5  8  1  0  0  0  0
  5 14  2  0  0  0  0
  6 16  1  0  0  0  0
  7 17  1  0  0  0  0
  8 17  2  0  0  0  0
  9 11  2  0  0  0  0
  9 15  1  0  0  0  0
 10 18  2  0  0  0  0
 10 26  1  0  0  0  0
 11 31  1  0  0  0  0
 12 15  2  0  0  0  0
 12 31  1  0  0  0  0
 13 16  2  0  0  0  0
 13 18  1  0  0  0  0
 14 25  1  0  0  0  0
 15 24  1  0  0  0  0
 16 26  1  0  0  0  0
 17 27  1  0  0  0  0
 18 28  1  0  0  0  0
 19 25  1  1  0  0  0
 19 28  1  0  0  0  0
 19 29  2  0  0  0  0
 20 22  1  0  0  0  0
 20 27  1  0  0  0  0
 21 23  1  0  0  0  0
 21 27  1  0  0  0  0
 22 30  1  0  0  0  0
 23 30  1  0  0  0  0
 24 25  1  0  0  0  0
  1 32  1  0  0  0  0
  2 33  1  0  0  0  0
  3 34  1  0  0  0  0
  4 35  1  0  0  0  0
  5 36  1  0  0  0  0
  6 37  1  0  0  0  0
  7 38  1  0  0  0  0
  8 39  1  0  0  0  0
  9 40  1  0  0  0  0
 10 41  1  0  0  0  0
 11 42  1  0  0  0  0
 12 43  1  0  0  0  0
 20 44  1  0  0  0  0
 20 45  1  0  0  0  0
 21 46  1  0  0  0  0
 21 47  1  0  0  0  0
 22 48  1  0  0  0  0
 22 49  1  0  0  0  0
 23 50  1  0  0  0  0
 23 51  1  0  0  0  0
 24 52  1  0  0  0  0
 24 53  1  0  0  0  0
 25 54  1  0  0  0  0
 26 55  1  0  0  0  0
 28 56  1  0  0  0  0
M  END
> <clash_score>
0

> <docking_score>
-5.823317527770996

> <overlap_score>
0.843913733959198

$$$$
BENZO_304_2
  -OEChem-08222022463D

 56 60  0     1  0  0  0  0  0999 V2000
    4.2460    1.7520   20.8250 C   0  0  0  0  0  0  0  0  0  0  0  0
    3.8860    2.1050   19.5250 C   0  0  0  0  0  0  0  0  0  0  0  0
    5.3890    1.0010   21.0690 C   0  0  0  0  0  0  0  0  0  0  0  0
    9.5890   -2.4950   23.2210 C   0  0  0  0  0  0  0  0  0  0  0  0
    8.2550   -1.0010   24.5520 C   0  0  0  0  0  0  0  0  0  0  0  0
    4.6610    1.7170   18.4380 C   0  0  0  0  0  0  0  0  0  0  0  0
    9.1890   -3.5540   24.0140 C   0  0  0  0  0  0  0  0  0  0  0  0
    7.8700   -2.0610   25.3550 C   0  0  0  0  0  0  0  0  0  0  0  0
   13.1058   -0.2791   23.5772 C   0  0  0  0  0  0  0  0  0  0  0  0
    7.5840   -0.2700   18.5160 C   0  0  0  0  0  0  0  0  0  0  0  0
   14.1974   -0.7534   22.8837 C   0  0  0  0  0  0  0  0  0  0  0  0
   12.3642   -0.0940   21.3822 C   0  0  0  0  0  0  0  0  0  0  0  0
    6.1460    0.6070   19.9750 C   0  0  0  0  0  0  0  0  0  0  0  0
    9.1280   -1.2090   23.4870 C   0  0  0  0  0  0  0  0  0  0  0  0
   12.0437    0.1027   22.7075 C   0  0  0  0  0  0  0  0  0  0  0  0
    5.7970    0.9500   18.6730 C   0  0  0  0  0  0  0  0  0  0  0  0
    8.3450   -3.3440   25.0980 C   0  0  0  0  0  0  0  0  0  0  0  0
    7.2710   -0.1460   19.8310 C   0  0  0  0  0  0  0  0  0  0  0  0
    9.0430    0.2380   21.4940 C   0  0  0  0  0  0  0  0  0  0  0  0
    8.9527   -5.2007   26.6599 C   0  0  0  0  0  0  0  0  0  0  0  0
    6.6114   -4.5061   26.4392 C   0  0  0  0  0  0  0  0  0  0  0  0
    8.9052   -4.7829   28.1257 C   0  0  0  0  0  0  0  0  0  0  0  0
    6.6389   -4.1225   27.9194 C   0  0  0  0  0  0  0  0  0  0  0  0
   10.7220    0.6590   23.1850 C   0  0  0  0  0  0  0  0  0  0  0  0
    9.5820   -0.1080   22.7000 C   0  0  2  0  0  0  0  0  0  0  0  0
    6.7100    0.3850   17.8100 N   0  0  0  0  0  0  0  0  0  0  0  0
    7.9774   -4.4013   25.9152 N   0  0  0  0  0  0  0  0  0  0  0  0
    8.0950   -0.7700   20.8440 N   0  0  0  0  0  0  0  0  0  0  0  0
    9.2950    1.3000   20.9480 O   0  0  0  0  0  0  0  0  0  0  0  0
    7.5748   -4.9369   28.6346 O   0  0  0  0  0  0  0  0  0  0  0  0
   13.9398   -0.7369   21.1908 S   0  0  0  0  0  0  0  0  0  0  0  0
    3.6208    2.0704   21.6579 H   0  0  0  0  0  0  0  0  0  0  0  0
    2.9857    2.6926   19.3615 H   0  0  0  0  0  0  0  0  0  0  0  0
    5.6664    0.7407   22.0807 H   0  0  0  0  0  0  0  0  0  0  0  0
   10.2684   -2.6719   22.3867 H   0  0  0  0  0  0  0  0  0  0  0  0
    7.8717   -0.0016   24.7596 H   0  0  0  0  0  0  0  0  0  0  0  0
    4.3794    2.0106   17.4221 H   0  0  0  0  0  0  0  0  0  0  0  0
    9.5443   -4.5616   23.7817 H   0  0  0  0  0  0  0  0  0  0  0  0
    7.1921   -1.8821   26.1908 H   0  0  0  0  0  0  0  0  0  0  0  0
   13.0750   -0.2107   24.6573 H   0  0  0  0  0  0  0  0  0  0  0  0
    8.4172   -0.8135   18.0384 H   0  0  0  0  0  0  0  0  0  0  0  0
   15.1341   -1.1080   23.2899 H   0  0  0  0  0  0  0  0  0  0  0  0
   11.7521    0.1087   20.5143 H   0  0  0  0  0  0  0  0  0  0  0  0
    9.9650   -5.0555   26.2691 H   0  0  0  0  0  0  0  0  0  0  0  0
    8.6941   -6.2620   26.5708 H   0  0  0  0  0  0  0  0  0  0  0  0
    6.2612   -5.5365   26.3329 H   0  0  0  0  0  0  0  0  0  0  0  0
    5.9290   -3.8447   25.9017 H   0  0  0  0  0  0  0  0  0  0  0  0
    9.5616   -5.4256   28.7162 H   0  0  0  0  0  0  0  0  0  0  0  0
    9.2362   -3.7495   28.2622 H   0  0  0  0  0  0  0  0  0  0  0  0
    6.8891   -3.0639   28.0552 H   0  0  0  0  0  0  0  0  0  0  0  0
    5.6513   -4.2871   28.3609 H   0  0  0  0  0  0  0  0  0  0  0  0
   10.7266    0.7141   24.2815 H   0  0  0  0  0  0  0  0  0  0  0  0
   10.6502    1.7002   22.8412 H   0  0  0  0  0  0  0  0  0  0  0  0
    8.7027    0.7972   23.4026 H   0  0  0  0  0  0  0  0  0  0  0  0
    6.6715    0.4865   16.8044 H   0  0  0  0  0  0  0  0  0  0  0  0
    8.0730   -1.6176   21.0751 H   0  0  0  0  0  0  0  0  0  0  0  0
  1  2  1  0  0  0  0
  1  3  2  0  0  0  0
  2  6  2  0  0  0  0
  3 13  1  0  0  0  0
  4  7  2  0  0  0  0
  4 14  1  0  0  0  0
  5  8  1  0  0  0  0
  5 14  2  0  0  0  0
  6 16  1  0  0  0  0
  7 17  1  0  0  0  0
  8 17  2  0  0  0  0
  9 11  2  0  0  0  0
  9 15  1  0  0  0  0
 10 18  2  0  0  0  0
 10 26  1  0  0  0  0
 11 31  1  0  0  0  0
 12 15  2  0  0  0  0
 12 31  1  0  0  0  0
 13 16  2  0  0  0  0
 13 18  1  0  0  0  0
 14 25  1  0  0  0  0
 15 24  1  0  0  0  0
 16 26  1  0  0  0  0
 17 27  1  0  0  0  0
 18 28  1  0  0  0  0
 19 25  1  6  0  0  0
 19 28  1  0  0  0  0
 19 29  2  0  0  0  0
 20 22  1  0  0  0  0
 20 27  1  0  0  0  0
 21 23  1  0  0  0  0
 21 27  1  0  0  0  0
 22 30  1  0  0  0  0
 23 30  1  0  0  0  0
 24 25  1  0  0  0  0
  1 32  1  0  0  0  0
  2 33  1  0  0  0  0
  3 34  1  0  0  0  0
  4 35  1  0  0  0  0
  5 36  1  0  0  0  0
  6 37  1  0  0  0  0
  7 38  1  0  0  0  0
  8 39  1  0  0  0  0
  9 40  1  0  0  0  0
 10 41  1  0  0  0  0
 11 42  1  0  0  0  0
 12 43  1  0  0  0  0
 20 44  1  0  0  0  0
 20 45  1  0  0  0  0
 21 46  1  0  0  0  0
 21 47  1  0  0  0  0
 22 48  1  0  0  0  0
 22 49  1  0  0  0  0
 23 50  1  0  0  0  0
 23 51  1  0  0  0  0
 24 52  1  0  0  0  0
 24 53  1  0  0  0  0
 25 54  1  0  0  0  0
 26 55  1  0  0  0  0
 28 56  1  0  0  0  0
M  END
> <clash_score>
0

> <docking_score>
-7.452330112457275

> <overlap_score>
0.9513450264930725

$$$$
BENZO_309_1
  -OEChem-08222022463D

 52 55  0     1  0  0  0  0  0999 V2000
   14.4827   -0.9249   21.8253 C   0  0  0  0  0  0  0  0  0  0  0  0
   14.4071   -0.2631   23.0508 C   0  0  0  0  0  0  0  0  0  0  0  0
   13.3388   -1.0729   21.0408 C   0  0  0  0  0  0  0  0  0  0  0  0
   13.1877    0.2507   23.4919 C   0  0  0  0  0  0  0  0  0  0  0  0
   12.1193   -0.5591   21.4820 C   0  0  0  0  0  0  0  0  0  0  0  0
    9.5890   -2.4950   23.2210 C   0  0  0  0  0  0  0  0  0  0  0  0
    8.2550   -1.0010   24.5520 C   0  0  0  0  0  0  0  0  0  0  0  0
    9.1890   -3.5540   24.0140 C   0  0  0  0  0  0  0  0  0  0  0  0
    7.8700   -2.0610   25.3550 C   0  0  0  0  0  0  0  0  0  0  0  0
   12.0437    0.1027   22.7075 C   0  0  0  0  0  0  0  0  0  0  0  0
    9.1280   -1.2090   23.4870 C   0  0  0  0  0  0  0  0  0  0  0  0
    8.3450   -3.3440   25.0980 C   0  0  0  0  0  0  0  0  0  0  0  0
    5.7970    0.9500   18.6730 C   0  0  0  0  0  0  0  0  0  0  0  0
    7.2710   -0.1460   19.8310 C   0  0  0  0  0  0  0  0  0  0  0  0
    4.6610    1.7170   18.4380 C   0  0  0  0  0  0  0  0  0  0  0  0
    3.8860    2.1050   19.5250 C   0  0  0  0  0  0  0  0  0  0  0  0
    4.2460    1.7520   20.8250 C   0  0  0  0  0  0  0  0  0  0  0  0
    5.3890    1.0010   21.0690 C   0  0  0  0  0  0  0  0  0  0  0  0
    9.0430    0.2380   21.4940 C   0  0  0  0  0  0  0  0  0  0  0  0
    7.2615   -5.5559   25.3797 C   0  0  0  0  0  0  0  0  0  0  0  0
    8.3042   -4.4052   27.3386 C   0  0  0  0  0  0  0  0  0  0  0  0
   10.7220    0.6590   23.1850 C   0  0  0  0  0  0  0  0  0  0  0  0
    9.5820   -0.1080   22.7000 C   0  0  1  0  0  0  0  0  0  0  0  0
    6.7100    0.3850   17.8100 N   0  0  0  0  0  0  0  0  0  0  0  0
    7.5840   -0.2700   18.5160 N   0  0  0  0  0  0  0  0  0  0  0  0
    6.1460    0.6070   19.9750 N   0  0  0  0  0  0  0  0  0  0  0  0
    8.0950   -0.7700   20.8440 N   0  0  0  0  0  0  0  0  0  0  0  0
    7.9717   -4.4175   25.9277 N   0  0  0  0  0  0  0  0  0  0  0  0
    9.2950    1.3000   20.9480 O   0  0  0  0  0  0  0  0  0  0  0  0
   15.4325   -1.3238   21.4813 H   0  0  0  0  0  0  0  0  0  0  0  0
   15.2979   -0.1468   23.6612 H   0  0  0  0  0  0  0  0  0  0  0  0
   13.3975   -1.5871   20.0862 H   0  0  0  0  0  0  0  0  0  0  0  0
   13.1382    0.7647   24.4482 H   0  0  0  0  0  0  0  0  0  0  0  0
   11.2333   -0.6792   20.8642 H   0  0  0  0  0  0  0  0  0  0  0  0
   10.2684   -2.6719   22.3867 H   0  0  0  0  0  0  0  0  0  0  0  0
    7.8717   -0.0016   24.7596 H   0  0  0  0  0  0  0  0  0  0  0  0
    9.5443   -4.5616   23.7817 H   0  0  0  0  0  0  0  0  0  0  0  0
    7.1921   -1.8821   26.1908 H   0  0  0  0  0  0  0  0  0  0  0  0
    4.3710    2.0145   17.4451 H   0  0  0  0  0  0  0  0  0  0  0  0
    2.9929    2.6891   19.3400 H   0  0  0  0  0  0  0  0  0  0  0  0
    3.6320    2.0596   21.6814 H   0  0  0  0  0  0  0  0  0  0  0  0
    5.6863    0.7288   22.0575 H   0  0  0  0  0  0  0  0  0  0  0  0
    7.0604   -6.2833   26.1801 H   0  0  0  0  0  0  0  0  0  0  0  0
    6.3097   -5.2187   24.9433 H   0  0  0  0  0  0  0  0  0  0  0  0
    7.8751   -6.0299   24.5994 H   0  0  0  0  0  0  0  0  0  0  0  0
    7.9291   -5.3245   27.8122 H   0  0  0  0  0  0  0  0  0  0  0  0
    9.3964   -4.3510   27.4573 H   0  0  0  0  0  0  0  0  0  0  0  0
    7.8394   -3.5306   27.8170 H   0  0  0  0  0  0  0  0  0  0  0  0
   10.7266    0.7141   24.2815 H   0  0  0  0  0  0  0  0  0  0  0  0
   10.6502    1.7003   22.8412 H   0  0  0  0  0  0  0  0  0  0  0  0
    8.7027    0.7972   23.4026 H   0  0  0  0  0  0  0  0  0  0  0  0
    8.0706   -1.6189   21.0730 H   0  0  0  0  0  0  0  0  0  0  0  0
  1  2  1  0  0  0  0
  1  3  2  0  0  0  0
  2  4  2  0  0  0  0
  3  5  1  0  0  0  0
  4 10  1  0  0  0  0
  5 10  2  0  0  0  0
  6  8  2  0  0  0  0
  6 11  1  0  0  0  0
  7  9  1  0  0  0  0
  7 11  2  0  0  0  0
  8 12  1  0  0  0  0
  9 12  2  0  0  0  0
 10 22  1  0  0  0  0
 11 23  1  0  0  0  0
 12 28  1  0  0  0  0
 13 15  1  0  0  0  0
 13 24  2  0  0  0  0
 13 26  1  0  0  0  0
 14 25  2  0  0  0  0
 14 26  1  0  0  0  0
 14 27  1  0  0  0  0
 15 16  2  0  0  0  0
 16 17  1  0  0  0  0
 17 18  2  0  0  0  0
 18 26  1  0  0  0  0
 19 23  1  0  0  0  0
 19 27  1  0  0  0  0
 19 29  2  0  0  0  0
 20 28  1  0  0  0  0
 21 28  1  0  0  0  0
 22 23  1  1  0  0  0
 24 25  1  0  0  0  0
  1 30  1  0  0  0  0
  2 31  1  0  0  0  0
  3 32  1  0  0  0  0
  4 33  1  0  0  0  0
  5 34  1  0  0  0  0
  6 35  1  0  0  0  0
  7 36  1  0  0  0  0
  8 37  1  0  0  0  0
  9 38  1  0  0  0  0
 15 39  1  0  0  0  0
 16 40  1  0  0  0  0
 17 41  1  0  0  0  0
 18 42  1  0  0  0  0
 20 43  1  0  0  0  0
 20 44  1  0  0  0  0
 20 45  1  0  0  0  0
 21 46  1  0  0  0  0
 21 47  1  0  0  0  0
 21 48  1  0  0  0  0
 22 49  1  0  0  0  0
 22 50  1  0  0  0  0
 23 51  1  0  0  0  0
 27 52  1  0  0  0  0
M  END
> <clash_score>
0

> <docking_score>
-7.301104545593262

> <overlap_score>
0.907168984413147

$$$$
BENZO_306_1
  -OEChem-08222022463D

 59 63  0     1  0  0  0  0  0999 V2000
    4.2460    1.7520   20.8250 C   0  0  0  0  0  0  0  0  0  0  0  0
    3.8860    2.1050   19.5250 C   0  0  0  0  0  0  0  0  0  0  0  0
   13.0334   -1.4852   25.3072 C   0  0  0  0  0  0  0  0  0  0  0  0
    5.3890    1.0010   21.0690 C   0  0  0  0  0  0  0  0  0  0  0  0
   11.9669   -0.6739   24.9199 C   0  0  0  0  0  0  0  0  0  0  0  0
    9.5890   -2.4950   23.2210 C   0  0  0  0  0  0  0  0  0  0  0  0
    8.2550   -1.0010   24.5520 C   0  0  0  0  0  0  0  0  0  0  0  0
    4.6610    1.7170   18.4380 C   0  0  0  0  0  0  0  0  0  0  0  0
    9.1890   -3.5540   24.0140 C   0  0  0  0  0  0  0  0  0  0  0  0
    7.8700   -2.0610   25.3550 C   0  0  0  0  0  0  0  0  0  0  0  0
   14.0118   -1.8413   24.3790 C   0  0  0  0  0  0  0  0  0  0  0  0
   12.8570   -0.5751   22.6760 C   0  0  0  0  0  0  0  0  0  0  0  0
    7.5840   -0.2700   18.5160 C   0  0  0  0  0  0  0  0  0  0  0  0
    6.1460    0.6070   19.9750 C   0  0  0  0  0  0  0  0  0  0  0  0
    9.1280   -1.2090   23.4870 C   0  0  0  0  0  0  0  0  0  0  0  0
   11.8786   -0.2190   23.6043 C   0  0  0  0  0  0  0  0  0  0  0  0
    5.7970    0.9500   18.6730 C   0  0  0  0  0  0  0  0  0  0  0  0
    8.3450   -3.3440   25.0980 C   0  0  0  0  0  0  0  0  0  0  0  0
    7.2710   -0.1460   19.8310 C   0  0  0  0  0  0  0  0  0  0  0  0
   13.9235   -1.3863   23.0634 C   0  0  0  0  0  0  0  0  0  0  0  0
    9.0430    0.2380   21.4940 C   0  0  0  0  0  0  0  0  0  0  0  0
    8.9527   -5.2007   26.6599 C   0  0  0  0  0  0  0  0  0  0  0  0
    6.6114   -4.5061   26.4392 C   0  0  0  0  0  0  0  0  0  0  0  0
    8.9052   -4.7829   28.1257 C   0  0  0  0  0  0  0  0  0  0  0  0
    6.6389   -4.1225   27.9194 C   0  0  0  0  0  0  0  0  0  0  0  0
   10.7220    0.6590   23.1850 C   0  0  0  0  0  0  0  0  0  0  0  0
    9.5820   -0.1080   22.7000 C   0  0  1  0  0  0  0  0  0  0  0  0
    6.7100    0.3850   17.8100 N   0  0  0  0  0  0  0  0  0  0  0  0
    7.9774   -4.4013   25.9152 N   0  0  0  0  0  0  0  0  0  0  0  0
    8.0950   -0.7700   20.8440 N   0  0  0  0  0  0  0  0  0  0  0  0
    9.2950    1.3000   20.9480 O   0  0  0  0  0  0  0  0  0  0  0  0
    7.5748   -4.9369   28.6346 O   0  0  0  0  0  0  0  0  0  0  0  0
   15.1303   -1.8270   21.9183 Cl  0  0  0  0  0  0  0  0  0  0  0  0
    3.6208    2.0704   21.6579 H   0  0  0  0  0  0  0  0  0  0  0  0
    2.9857    2.6926   19.3615 H   0  0  0  0  0  0  0  0  0  0  0  0
   13.1017   -1.8394   26.3318 H   0  0  0  0  0  0  0  0  0  0  0  0
    5.6664    0.7407   22.0807 H   0  0  0  0  0  0  0  0  0  0  0  0
   11.2091   -0.4015   25.6498 H   0  0  0  0  0  0  0  0  0  0  0  0
   10.2684   -2.6719   22.3867 H   0  0  0  0  0  0  0  0  0  0  0  0
    7.8717   -0.0016   24.7596 H   0  0  0  0  0  0  0  0  0  0  0  0
    4.3794    2.0106   17.4221 H   0  0  0  0  0  0  0  0  0  0  0  0
    9.5443   -4.5616   23.7817 H   0  0  0  0  0  0  0  0  0  0  0  0
    7.1921   -1.8821   26.1908 H   0  0  0  0  0  0  0  0  0  0  0  0
   14.8373   -2.4744   24.6949 H   0  0  0  0  0  0  0  0  0  0  0  0
   12.7839   -0.2174   21.6516 H   0  0  0  0  0  0  0  0  0  0  0  0
    8.4172   -0.8135   18.0384 H   0  0  0  0  0  0  0  0  0  0  0  0
    9.9650   -5.0555   26.2691 H   0  0  0  0  0  0  0  0  0  0  0  0
    8.6941   -6.2620   26.5708 H   0  0  0  0  0  0  0  0  0  0  0  0
    6.2612   -5.5365   26.3329 H   0  0  0  0  0  0  0  0  0  0  0  0
    5.9290   -3.8447   25.9017 H   0  0  0  0  0  0  0  0  0  0  0  0
    9.5616   -5.4256   28.7162 H   0  0  0  0  0  0  0  0  0  0  0  0
    9.2362   -3.7495   28.2622 H   0  0  0  0  0  0  0  0  0  0  0  0
    6.8891   -3.0639   28.0552 H   0  0  0  0  0  0  0  0  0  0  0  0
    5.6513   -4.2871   28.3609 H   0  0  0  0  0  0  0  0  0  0  0  0
   10.4369    1.3080   24.0233 H   0  0  0  0  0  0  0  0  0  0  0  0
   11.0815    1.3384   22.3997 H   0  0  0  0  0  0  0  0  0  0  0  0
   10.5413   -0.9955   22.0233 H   0  0  0  0  0  0  0  0  0  0  0  0
    6.6715    0.4865   16.8044 H   0  0  0  0  0  0  0  0  0  0  0  0
    8.0730   -1.6176   21.0751 H   0  0  0  0  0  0  0  0  0  0  0  0
  1  2  1  0  0  0  0
  1  4  2  0  0  0  0
  2  8  2  0  0  0  0
  3  5  2  0  0  0  0
  3 11  1  0  0  0  0
  4 14  1  0  0  0  0
  5 16  1  0  0  0  0
  6  9  2  0  0  0  0
  6 15  1  0  0  0  0
  7 10  1  0  0  0  0
  7 15  2  0  0  0  0
  8 17  1  0  0  0  0
  9 18  1  0  0  0  0
 10 18  2  0  0  0  0
 11 20  2  0  0  0  0
 12 16  2  0  0  0  0
 12 20  1  0  0  0  0
 13 19  2  0  0  0  0
 13 28  1  0  0  0  0
 14 17  2  0  0  0  0
 14 19  1  0  0  0  0
 15 27  1  0  0  0  0
 16 26  1  0  0  0  0
 17 28  1  0  0  0  0
 18 29  1  0  0  0  0
 19 30  1  0  0  0  0
 20 33  1  0  0  0  0
 21 27  1  1  0  0  0
 21 30  1  0  0  0  0
 21 31  2  0  0  0  0
 22 24  1  0  0  0  0
 22 29  1  0  0  0  0
 23 25  1  0  0  0  0
 23 29  1  0  0  0  0
 24 32  1  0  0  0  0
 25 32  1  0  0  0  0
 26 27  1  0  0  0  0
  1 34  1  0  0  0  0
  2 35  1  0  0  0  0
  3 36  1  0  0  0  0
  4 37  1  0  0  0  0
  5 38  1  0  0  0  0
  6 39  1  0  0  0  0
  7 40  1  0  0  0  0
  8 41  1  0  0  0  0
  9 42  1  0  0  0  0
 10 43  1  0  0  0  0
 11 44  1  0  0  0  0
 12 45  1  0  0  0  0
 13 46  1  0  0  0  0
 22 47  1  0  0  0  0
 22 48  1  0  0  0  0
 23 49  1  0  0  0  0
 23 50  1  0  0  0  0
 24 51  1  0  0  0  0
 24 52  1  0  0  0  0
 25 53  1  0  0  0  0
 25 54  1  0  0  0  0
 26 55  1  0  0  0  0
 26 56  1  0  0  0  0
 27 57  1  0  0  0  0
 28 58  1  0  0  0  0
 30 59  1  0  0  0  0
M  END
> <clash_score>
0

> <docking_score>
-7.360657691955566

> <overlap_score>
0.9812999963760376

$$$$
BENZO_306_2
  -OEChem-08222022463D

 59 63  0     1  0  0  0  0  0999 V2000
    4.2460    1.7520   20.8250 C   0  0  0  0  0  0  0  0  0  0  0  0
    3.8860    2.1050   19.5250 C   0  0  0  0  0  0  0  0  0  0  0  0
   13.8166    0.0398   21.0674 C   0  0  0  0  0  0  0  0  0  0  0  0
    5.3890    1.0010   21.0690 C   0  0  0  0  0  0  0  0  0  0  0  0
   12.5963    0.5519   21.5081 C   0  0  0  0  0  0  0  0  0  0  0  0
    9.5890   -2.4950   23.2210 C   0  0  0  0  0  0  0  0  0  0  0  0
    8.2550   -1.0010   24.5520 C   0  0  0  0  0  0  0  0  0  0  0  0
    4.6610    1.7170   18.4380 C   0  0  0  0  0  0  0  0  0  0  0  0
    9.1890   -3.5540   24.0140 C   0  0  0  0  0  0  0  0  0  0  0  0
    7.8700   -2.0610   25.3550 C   0  0  0  0  0  0  0  0  0  0  0  0
   14.4843   -0.9216   21.8261 C   0  0  0  0  0  0  0  0  0  0  0  0
   12.7115   -0.8586   23.4663 C   0  0  0  0  0  0  0  0  0  0  0  0
    7.5840   -0.2700   18.5160 C   0  0  0  0  0  0  0  0  0  0  0  0
    6.1460    0.6070   19.9750 C   0  0  0  0  0  0  0  0  0  0  0  0
    9.1280   -1.2090   23.4870 C   0  0  0  0  0  0  0  0  0  0  0  0
   12.0437    0.1027   22.7075 C   0  0  0  0  0  0  0  0  0  0  0  0
    5.7970    0.9500   18.6730 C   0  0  0  0  0  0  0  0  0  0  0  0
    8.3450   -3.3440   25.0980 C   0  0  0  0  0  0  0  0  0  0  0  0
    7.2710   -0.1460   19.8310 C   0  0  0  0  0  0  0  0  0  0  0  0
   13.9318   -1.3708   23.0255 C   0  0  0  0  0  0  0  0  0  0  0  0
    9.0430    0.2380   21.4940 C   0  0  0  0  0  0  0  0  0  0  0  0
    8.9527   -5.2007   26.6599 C   0  0  0  0  0  0  0  0  0  0  0  0
    6.6114   -4.5061   26.4392 C   0  0  0  0  0  0  0  0  0  0  0  0
    8.9052   -4.7829   28.1257 C   0  0  0  0  0  0  0  0  0  0  0  0
    6.6389   -4.1225   27.9194 C   0  0  0  0  0  0  0  0  0  0  0  0
   10.7220    0.6590   23.1850 C   0  0  0  0  0  0  0  0  0  0  0  0
    9.5820   -0.1080   22.7000 C   0  0  2  0  0  0  0  0  0  0  0  0
    6.7100    0.3850   17.8100 N   0  0  0  0  0  0  0  0  0  0  0  0
    7.9774   -4.4013   25.9152 N   0  0  0  0  0  0  0  0  0  0  0  0
    8.0950   -0.7700   20.8440 N   0  0  0  0  0  0  0  0  0  0  0  0
    9.2950    1.3000   20.9480 O   0  0  0  0  0  0  0  0  0  0  0  0
    7.5748   -4.9369   28.6346 O   0  0  0  0  0  0  0  0  0  0  0  0
   14.7567   -2.5560   23.9617 Cl  0  0  0  0  0  0  0  0  0  0  0  0
    3.6208    2.0704   21.6579 H   0  0  0  0  0  0  0  0  0  0  0  0
    2.9857    2.6926   19.3615 H   0  0  0  0  0  0  0  0  0  0  0  0
   14.2465    0.3899   20.1334 H   0  0  0  0  0  0  0  0  0  0  0  0
    5.6664    0.7407   22.0807 H   0  0  0  0  0  0  0  0  0  0  0  0
   12.0830    1.3007   20.9105 H   0  0  0  0  0  0  0  0  0  0  0  0
   10.2684   -2.6719   22.3867 H   0  0  0  0  0  0  0  0  0  0  0  0
    7.8717   -0.0016   24.7596 H   0  0  0  0  0  0  0  0  0  0  0  0
    4.3794    2.0106   17.4221 H   0  0  0  0  0  0  0  0  0  0  0  0
    9.5443   -4.5616   23.7817 H   0  0  0  0  0  0  0  0  0  0  0  0
    7.1921   -1.8821   26.1908 H   0  0  0  0  0  0  0  0  0  0  0  0
   15.4348   -1.3117   21.4705 H   0  0  0  0  0  0  0  0  0  0  0  0
   12.2763   -1.2059   24.4005 H   0  0  0  0  0  0  0  0  0  0  0  0
    8.4172   -0.8135   18.0384 H   0  0  0  0  0  0  0  0  0  0  0  0
    9.9650   -5.0555   26.2691 H   0  0  0  0  0  0  0  0  0  0  0  0
    8.6941   -6.2620   26.5708 H   0  0  0  0  0  0  0  0  0  0  0  0
    6.2612   -5.5365   26.3329 H   0  0  0  0  0  0  0  0  0  0  0  0
    5.9290   -3.8447   25.9017 H   0  0  0  0  0  0  0  0  0  0  0  0
    9.5616   -5.4256   28.7162 H   0  0  0  0  0  0  0  0  0  0  0  0
    9.2362   -3.7495   28.2622 H   0  0  0  0  0  0  0  0  0  0  0  0
    6.8891   -3.0639   28.0552 H   0  0  0  0  0  0  0  0  0  0  0  0
    5.6513   -4.2871   28.3609 H   0  0  0  0  0  0  0  0  0  0  0  0
   10.7266    0.7141   24.2815 H   0  0  0  0  0  0  0  0  0  0  0  0
   10.6502    1.7002   22.8412 H   0  0  0  0  0  0  0  0  0  0  0  0
    8.7027    0.7972   23.4026 H   0  0  0  0  0  0  0  0  0  0  0  0
    6.6715    0.4865   16.8044 H   0  0  0  0  0  0  0  0  0  0  0  0
    8.0730   -1.6176   21.0751 H   0  0  0  0  0  0  0  0  0  0  0  0
  1  2  1  0  0  0  0
  1  4  2  0  0  0  0
  2  8  2  0  0  0  0
  3  5  2  0  0  0  0
  3 11  1  0  0  0  0
  4 14  1  0  0  0  0
  5 16  1  0  0  0  0
  6  9  2  0  0  0  0
  6 15  1  0  0  0  0
  7 10  1  0  0  0  0
  7 15  2  0  0  0  0
  8 17  1  0  0  0  0
  9 18  1  0  0  0  0
 10 18  2  0  0  0  0
 11 20  2  0  0  0  0
 12 16  2  0  0  0  0
 12 20  1  0  0  0  0
 13 19  2  0  0  0  0
 13 28  1  0  0  0  0
 14 17  2  0  0  0  0
 14 19  1  0  0  0  0
 15 27  1  0  0  0  0
 16 26  1  0  0  0  0
 17 28  1  0  0  0  0
 18 29  1  0  0  0  0
 19 30  1  0  0  0  0
 20 33  1  0  0  0  0
 21 27  1  6  0  0  0
 21 30  1  0  0  0  0
 21 31  2  0  0  0  0
 22 24  1  0  0  0  0
 22 29  1  0  0  0  0
 23 25  1  0  0  0  0
 23 29  1  0  0  0  0
 24 32  1  0  0  0  0
 25 32  1  0  0  0  0
 26 27  1  0  0  0  0
  1 34  1  0  0  0  0
  2 35  1  0  0  0  0
  3 36  1  0  0  0  0
  4 37  1  0  0  0  0
  5 38  1  0  0  0  0
  6 39  1  0  0  0  0
  7 40  1  0  0  0  0
  8 41  1  0  0  0  0
  9 42  1  0  0  0  0
 10 43  1  0  0  0  0
 11 44  1  0  0  0  0
 12 45  1  0  0  0  0
 13 46  1  0  0  0  0
 22 47  1  0  0  0  0
 22 48  1  0  0  0  0
 23 49  1  0  0  0  0
 23 50  1  0  0  0  0
 24 51  1  0  0  0  0
 24 52  1  0  0  0  0
 25 53  1  0  0  0  0
 25 54  1  0  0  0  0
 26 55  1  0  0  0  0
 26 56  1  0  0  0  0
 27 57  1  0  0  0  0
 28 58  1  0  0  0  0
 30 59  1  0  0  0  0
M  END
> <clash_score>
0

> <docking_score>
-6.840404510498047

> <overlap_score>
0.9690800905227661

$$$$
BENZO_308_1
  -OEChem-08222022463D

 49 52  0     1  0  0  0  0  0999 V2000
    9.5890   -2.4950   23.2210 C   0  0  0  0  0  0  0  0  0  0  0  0
    8.2550   -1.0010   24.5520 C   0  0  0  0  0  0  0  0  0  0  0  0
    9.1890   -3.5540   24.0140 C   0  0  0  0  0  0  0  0  0  0  0  0
    7.8700   -2.0610   25.3550 C   0  0  0  0  0  0  0  0  0  0  0  0
   13.1058   -0.2791   23.5772 C   0  0  0  0  0  0  0  0  0  0  0  0
   14.1974   -0.7534   22.8836 C   0  0  0  0  0  0  0  0  0  0  0  0
   12.3642   -0.0940   21.3822 C   0  0  0  0  0  0  0  0  0  0  0  0
    9.1280   -1.2090   23.4870 C   0  0  0  0  0  0  0  0  0  0  0  0
   12.0437    0.1027   22.7075 C   0  0  0  0  0  0  0  0  0  0  0  0
    8.3450   -3.3440   25.0980 C   0  0  0  0  0  0  0  0  0  0  0  0
    5.7970    0.9500   18.6730 C   0  0  0  0  0  0  0  0  0  0  0  0
    7.2710   -0.1460   19.8310 C   0  0  0  0  0  0  0  0  0  0  0  0
    4.6610    1.7170   18.4380 C   0  0  0  0  0  0  0  0  0  0  0  0
    3.8860    2.1050   19.5250 C   0  0  0  0  0  0  0  0  0  0  0  0
    4.2460    1.7520   20.8250 C   0  0  0  0  0  0  0  0  0  0  0  0
    5.3890    1.0010   21.0690 C   0  0  0  0  0  0  0  0  0  0  0  0
    9.0430    0.2380   21.4940 C   0  0  0  0  0  0  0  0  0  0  0  0
    7.2615   -5.5559   25.3797 C   0  0  0  0  0  0  0  0  0  0  0  0
    8.3042   -4.4052   27.3386 C   0  0  0  0  0  0  0  0  0  0  0  0
   10.7220    0.6590   23.1850 C   0  0  0  0  0  0  0  0  0  0  0  0
    9.5820   -0.1080   22.7000 C   0  0  1  0  0  0  0  0  0  0  0  0
    6.7100    0.3850   17.8100 N   0  0  0  0  0  0  0  0  0  0  0  0
    7.5840   -0.2700   18.5160 N   0  0  0  0  0  0  0  0  0  0  0  0
    6.1460    0.6070   19.9750 N   0  0  0  0  0  0  0  0  0  0  0  0
    8.0950   -0.7700   20.8440 N   0  0  0  0  0  0  0  0  0  0  0  0
    7.9717   -4.4175   25.9277 N   0  0  0  0  0  0  0  0  0  0  0  0
    9.2950    1.3000   20.9480 O   0  0  0  0  0  0  0  0  0  0  0  0
   13.9398   -0.7369   21.1908 S   0  0  0  0  0  0  0  0  0  0  0  0
   10.2684   -2.6719   22.3867 H   0  0  0  0  0  0  0  0  0  0  0  0
    7.8717   -0.0016   24.7596 H   0  0  0  0  0  0  0  0  0  0  0  0
    9.5443   -4.5616   23.7817 H   0  0  0  0  0  0  0  0  0  0  0  0
    7.1921   -1.8821   26.1908 H   0  0  0  0  0  0  0  0  0  0  0  0
   13.0750   -0.2107   24.6573 H   0  0  0  0  0  0  0  0  0  0  0  0
   15.1341   -1.1080   23.2899 H   0  0  0  0  0  0  0  0  0  0  0  0
   11.7521    0.1087   20.5143 H   0  0  0  0  0  0  0  0  0  0  0  0
    4.3710    2.0145   17.4451 H   0  0  0  0  0  0  0  0  0  0  0  0
    2.9929    2.6891   19.3400 H   0  0  0  0  0  0  0  0  0  0  0  0
    3.6320    2.0596   21.6814 H   0  0  0  0  0  0  0  0  0  0  0  0
    5.6863    0.7288   22.0575 H   0  0  0  0  0  0  0  0  0  0  0  0
    7.0604   -6.2833   26.1801 H   0  0  0  0  0  0  0  0  0  0  0  0
    6.3097   -5.2187   24.9433 H   0  0  0  0  0  0  0  0  0  0  0  0
    7.8751   -6.0299   24.5994 H   0  0  0  0  0  0  0  0  0  0  0  0
    7.9291   -5.3245   27.8122 H   0  0  0  0  0  0  0  0  0  0  0  0
    9.3964   -4.3510   27.4573 H   0  0  0  0  0  0  0  0  0  0  0  0
    7.8394   -3.5306   27.8170 H   0  0  0  0  0  0  0  0  0  0  0  0
   10.7266    0.7141   24.2815 H   0  0  0  0  0  0  0  0  0  0  0  0
   10.6502    1.7003   22.8412 H   0  0  0  0  0  0  0  0  0  0  0  0
    8.7027    0.7972   23.4026 H   0  0  0  0  0  0  0  0  0  0  0  0
    8.0706   -1.6189   21.0730 H   0  0  0  0  0  0  0  0  0  0  0  0
  1  3  2  0  0  0  0
  1  8  1  0  0  0  0
  2  4  1  0  0  0  0
  2  8  2  0  0  0  0
  3 10  1  0  0  0  0
  4 10  2  0  0  0  0
  5  6  2  0  0  0  0
  5  9  1  0  0  0  0
  6 28  1  0  0  0  0
  7  9  2  0  0  0  0
  7 28  1  0  0  0  0
  8 21  1  0  0  0  0
  9 20  1  0  0  0  0
 10 26  1  0  0  0  0
 11 13  1  0  0  0  0
 11 22  2  0  0  0  0
 11 24  1  0  0  0  0
 12 23  2  0  0  0  0
 12 24  1  0  0  0  0
 12 25  1  0  0  0  0
 13 14  2  0  0  0  0
 14 15  1  0  0  0  0
 15 16  2  0  0  0  0
 16 24  1  0  0  0  0
 17 21  1  0  0  0  0
 17 25  1  0  0  0  0
 17 27  2  0  0  0  0
 18 26  1  0  0  0  0
 19 26  1  0  0  0  0
 20 21  1  1  0  0  0
 22 23  1  0  0  0  0
  1 29  1  0  0  0  0
  2 30  1  0  0  0  0
  3 31  1  0  0  0  0
  4 32  1  0  0  0  0
  5 33  1  0  0  0  0
  6 34  1  0  0  0  0
  7 35  1  0  0  0  0
 13 36  1  0  0  0  0
 14 37  1  0  0  0  0
 15 38  1  0  0  0  0
 16 39  1  0  0  0  0
 18 40  1  0  0  0  0
 18 41  1  0  0  0  0
 18 42  1  0  0  0  0
 19 43  1  0  0  0  0
 19 44  1  0  0  0  0
 19 45  1  0  0  0  0
 20 46  1  0  0  0  0
 20 47  1  0  0  0  0
 21 48  1  0  0  0  0
 25 49  1  0  0  0  0
M  END
> <clash_score>
0

> <docking_score>
-7.076261520385742

> <overlap_score>
0.9037569761276245

$$$$
BENZO_308_2
  -OEChem-08222022463D

 49 52  0     1  0  0  0  0  0999 V2000
    9.5890   -2.4950   23.2210 C   0  0  0  0  0  0  0  0  0  0  0  0
    8.2550   -1.0010   24.5520 C   0  0  0  0  0  0  0  0  0  0  0  0
    9.1890   -3.5540   24.0140 C   0  0  0  0  0  0  0  0  0  0  0  0
    7.8700   -2.0610   25.3550 C   0  0  0  0  0  0  0  0  0  0  0  0
   12.0393    0.1762   25.3640 C   0  0  0  0  0  0  0  0  0  0  0  0
   12.9049   -0.7459   25.9099 C   0  0  0  0  0  0  0  0  0  0  0  0
   12.2520   -1.3384   23.6137 C   0  0  0  0  0  0  0  0  0  0  0  0
    9.1280   -1.2090   23.4870 C   0  0  0  0  0  0  0  0  0  0  0  0
   11.6609   -0.1670   24.0339 C   0  0  0  0  0  0  0  0  0  0  0  0
    8.3450   -3.3440   25.0980 C   0  0  0  0  0  0  0  0  0  0  0  0
    5.7970    0.9500   18.6730 C   0  0  0  0  0  0  0  0  0  0  0  0
    7.2710   -0.1460   19.8310 C   0  0  0  0  0  0  0  0  0  0  0  0
    4.6610    1.7170   18.4380 C   0  0  0  0  0  0  0  0  0  0  0  0
    3.8860    2.1050   19.5250 C   0  0  0  0  0  0  0  0  0  0  0  0
    4.2460    1.7520   20.8250 C   0  0  0  0  0  0  0  0  0  0  0  0
    5.3890    1.0010   21.0690 C   0  0  0  0  0  0  0  0  0  0  0  0
    9.0430    0.2380   21.4940 C   0  0  0  0  0  0  0  0  0  0  0  0
    8.4627   -5.7552   25.6623 C   0  0  0  0  0  0  0  0  0  0  0  0
    7.1022   -4.1977   27.0664 C   0  0  0  0  0  0  0  0  0  0  0  0
   10.7220    0.6590   23.1850 C   0  0  0  0  0  0  0  0  0  0  0  0
    9.5820   -0.1080   22.7000 C   0  0  2  0  0  0  0  0  0  0  0  0
    6.7100    0.3850   17.8100 N   0  0  0  0  0  0  0  0  0  0  0  0
    7.5840   -0.2700   18.5160 N   0  0  0  0  0  0  0  0  0  0  0  0
    6.1460    0.6070   19.9750 N   0  0  0  0  0  0  0  0  0  0  0  0
    8.0950   -0.7700   20.8440 N   0  0  0  0  0  0  0  0  0  0  0  0
    7.9717   -4.4175   25.9277 N   0  0  0  0  0  0  0  0  0  0  0  0
    9.2950    1.3000   20.9480 O   0  0  0  0  0  0  0  0  0  0  0  0
   13.2582   -2.0191   24.8206 S   0  0  0  0  0  0  0  0  0  0  0  0
   10.2684   -2.6719   22.3867 H   0  0  0  0  0  0  0  0  0  0  0  0
    7.8717   -0.0016   24.7596 H   0  0  0  0  0  0  0  0  0  0  0  0
    9.5443   -4.5616   23.7817 H   0  0  0  0  0  0  0  0  0  0  0  0
    7.1921   -1.8821   26.1908 H   0  0  0  0  0  0  0  0  0  0  0  0
   11.6967    1.0541   25.8970 H   0  0  0  0  0  0  0  0  0  0  0  0
   13.3474   -0.7326   26.8960 H   0  0  0  0  0  0  0  0  0  0  0  0
   12.1448   -1.8296   22.6565 H   0  0  0  0  0  0  0  0  0  0  0  0
    4.3710    2.0145   17.4451 H   0  0  0  0  0  0  0  0  0  0  0  0
    2.9929    2.6891   19.3400 H   0  0  0  0  0  0  0  0  0  0  0  0
    3.6320    2.0596   21.6814 H   0  0  0  0  0  0  0  0  0  0  0  0
    5.6863    0.7288   22.0575 H   0  0  0  0  0  0  0  0  0  0  0  0
    8.0615   -6.4497   26.4151 H   0  0  0  0  0  0  0  0  0  0  0  0
    8.1377   -6.0728   24.6605 H   0  0  0  0  0  0  0  0  0  0  0  0
    9.5617   -5.7584   25.7094 H   0  0  0  0  0  0  0  0  0  0  0  0
    6.9280   -5.1520   27.5851 H   0  0  0  0  0  0  0  0  0  0  0  0
    7.5768   -3.4860   27.7580 H   0  0  0  0  0  0  0  0  0  0  0  0
    6.1418   -3.7878   26.7205 H   0  0  0  0  0  0  0  0  0  0  0  0
   10.3958    1.5383   23.7557 H   0  0  0  0  0  0  0  0  0  0  0  0
   11.2964    1.0584   22.3376 H   0  0  0  0  0  0  0  0  0  0  0  0
   10.5413   -0.9955   22.0233 H   0  0  0  0  0  0  0  0  0  0  0  0
    8.0706   -1.6189   21.0730 H   0  0  0  0  0  0  0  0  0  0  0  0
  1  3  2  0  0  0  0
  1  8  1  0  0  0  0
  2  4  1  0  0  0  0
  2  8  2  0  0  0  0
  3 10  1  0  0  0  0
  4 10  2  0  0  0  0
  5  6  2  0  0  0  0
  5  9  1  0  0  0  0
  6 28  1  0  0  0  0
  7  9  2  0  0  0  0
  7 28  1  0  0  0  0
  8 21  1  0  0  0  0
  9 20  1  0  0  0  0
 10 26  1  0  0  0  0
 11 13  1  0  0  0  0
 11 22  2  0  0  0  0
 11 24  1  0  0  0  0
 12 23  2  0  0  0  0
 12 24  1  0  0  0  0
 12 25  1  0  0  0  0
 13 14  2  0  0  0  0
 14 15  1  0  0  0  0
 15 16  2  0  0  0  0
 16 24  1  0  0  0  0
 17 21  1  0  0  0  0
 17 25  1  0  0  0  0
 17 27  2  0  0  0  0
 18 26  1  0  0  0  0
 19 26  1  0  0  0  0
 20 21  1  6  0  0  0
 22 23  1  0  0  0  0
  1 29  1  0  0  0  0
  2 30  1  0  0  0  0
  3 31  1  0  0  0  0
  4 32  1  0  0  0  0
  5 33  1  0  0  0  0
  6 34  1  0  0  0  0
  7 35  1  0  0  0  0
 13 36  1  0  0  0  0
 14 37  1  0  0  0  0
 15 38  1  0  0  0  0
 16 39  1  0  0  0  0
 18 40  1  0  0  0  0
 18 41  1  0  0  0  0
 18 42  1  0  0  0  0
 19 43  1  0  0  0  0
 19 44  1  0  0  0  0
 19 45  1  0  0  0  0
 20 46  1  0  0  0  0
 20 47  1  0  0  0  0
 21 48  1  0  0  0  0
 25 49  1  0  0  0  0
M  END
> <clash_score>
0

> <docking_score>
-5.5790300369262695

> <overlap_score>
0.8567774295806885

$$$$
BENZO_309_2
  -OEChem-08222022463D

 52 55  0     1  0  0  0  0  0999 V2000
   14.0137   -1.8398   24.3768 C   0  0  0  0  0  0  0  0  0  0  0  0
   13.0361   -1.4844   25.3061 C   0  0  0  0  0  0  0  0  0  0  0  0
   13.9239   -1.3848   23.0613 C   0  0  0  0  0  0  0  0  0  0  0  0
   11.9686   -0.6740   24.9198 C   0  0  0  0  0  0  0  0  0  0  0  0
   12.8563   -0.5744   22.6750 C   0  0  0  0  0  0  0  0  0  0  0  0
    9.5890   -2.4950   23.2210 C   0  0  0  0  0  0  0  0  0  0  0  0
    8.2550   -1.0010   24.5520 C   0  0  0  0  0  0  0  0  0  0  0  0
    9.1890   -3.5540   24.0140 C   0  0  0  0  0  0  0  0  0  0  0  0
    7.8700   -2.0610   25.3550 C   0  0  0  0  0  0  0  0  0  0  0  0
   11.8786   -0.2190   23.6043 C   0  0  0  0  0  0  0  0  0  0  0  0
    9.1280   -1.2090   23.4870 C   0  0  0  0  0  0  0  0  0  0  0  0
    8.3450   -3.3440   25.0980 C   0  0  0  0  0  0  0  0  0  0  0  0
    5.7970    0.9500   18.6730 C   0  0  0  0  0  0  0  0  0  0  0  0
    7.2710   -0.1460   19.8310 C   0  0  0  0  0  0  0  0  0  0  0  0
    4.6610    1.7170   18.4380 C   0  0  0  0  0  0  0  0  0  0  0  0
    3.8860    2.1050   19.5250 C   0  0  0  0  0  0  0  0  0  0  0  0
    4.2460    1.7520   20.8250 C   0  0  0  0  0  0  0  0  0  0  0  0
    5.3890    1.0010   21.0690 C   0  0  0  0  0  0  0  0  0  0  0  0
    9.0430    0.2380   21.4940 C   0  0  0  0  0  0  0  0  0  0  0  0
    7.2615   -5.5559   25.3797 C   0  0  0  0  0  0  0  0  0  0  0  0
    8.3042   -4.4052   27.3386 C   0  0  0  0  0  0  0  0  0  0  0  0
   10.7220    0.6590   23.1850 C   0  0  0  0  0  0  0  0  0  0  0  0
    9.5820   -0.1080   22.7000 C   0  0  2  0  0  0  0  0  0  0  0  0
    6.7100    0.3850   17.8100 N   0  0  0  0  0  0  0  0  0  0  0  0
    7.5840   -0.2700   18.5160 N   0  0  0  0  0  0  0  0  0  0  0  0
    6.1460    0.6070   19.9750 N   0  0  0  0  0  0  0  0  0  0  0  0
    8.0950   -0.7700   20.8440 N   0  0  0  0  0  0  0  0  0  0  0  0
    7.9717   -4.4175   25.9277 N   0  0  0  0  0  0  0  0  0  0  0  0
    9.2950    1.3000   20.9480 O   0  0  0  0  0  0  0  0  0  0  0  0
   14.8456   -2.4698   24.6781 H   0  0  0  0  0  0  0  0  0  0  0  0
   13.1065   -1.8377   26.3307 H   0  0  0  0  0  0  0  0  0  0  0  0
   14.6854   -1.6605   22.3378 H   0  0  0  0  0  0  0  0  0  0  0  0
   11.2114   -0.4022   25.6506 H   0  0  0  0  0  0  0  0  0  0  0  0
   12.7944   -0.2247   21.6479 H   0  0  0  0  0  0  0  0  0  0  0  0
   10.2684   -2.6719   22.3867 H   0  0  0  0  0  0  0  0  0  0  0  0
    7.8717   -0.0016   24.7596 H   0  0  0  0  0  0  0  0  0  0  0  0
    9.5443   -4.5616   23.7817 H   0  0  0  0  0  0  0  0  0  0  0  0
    7.1921   -1.8821   26.1908 H   0  0  0  0  0  0  0  0  0  0  0  0
    4.3710    2.0145   17.4451 H   0  0  0  0  0  0  0  0  0  0  0  0
    2.9929    2.6891   19.3400 H   0  0  0  0  0  0  0  0  0  0  0  0
    3.6320    2.0596   21.6814 H   0  0  0  0  0  0  0  0  0  0  0  0
    5.6863    0.7288   22.0575 H   0  0  0  0  0  0  0  0  0  0  0  0
    7.0604   -6.2833   26.1801 H   0  0  0  0  0  0  0  0  0  0  0  0
    6.3097   -5.2187   24.9433 H   0  0  0  0  0  0  0  0  0  0  0  0
    7.8751   -6.0299   24.5994 H   0  0  0  0  0  0  0  0  0  0  0  0
    7.9291   -5.3245   27.8122 H   0  0  0  0  0  0  0  0  0  0  0  0
    9.3964   -4.3510   27.4573 H   0  0  0  0  0  0  0  0  0  0  0  0
    7.8394   -3.5306   27.8170 H   0  0  0  0  0  0  0  0  0  0  0  0
   10.4369    1.3080   24.0233 H   0  0  0  0  0  0  0  0  0  0  0  0
   11.0815    1.3384   22.3997 H   0  0  0  0  0  0  0  0  0  0  0  0
   10.5413   -0.9955   22.0233 H   0  0  0  0  0  0  0  0  0  0  0  0
    8.0706   -1.6189   21.0730 H   0  0  0  0  0  0  0  0  0  0  0  0
  1  2  1  0  0  0  0
  1  3  2  0  0  0  0
  2  4  2  0  0  0  0
  3  5  1  0  0  0  0
  4 10  1  0  0  0  0
  5 10  2  0  0  0  0
  6  8  2  0  0  0  0
  6 11  1  0  0  0  0
  7  9  1  0  0  0  0
  7 11  2  0  0  0  0
  8 12  1  0  0  0  0
  9 12  2  0  0  0  0
 10 22  1  0  0  0  0
 11 23  1  0  0  0  0
 12 28  1  0  0  0  0
 13 15  1  0  0  0  0
 13 24  2  0  0  0  0
 13 26  1  0  0  0  0
 14 25  2  0  0  0  0
 14 26  1  0  0  0  0
 14 27  1  0  0  0  0
 15 16  2  0  0  0  0
 16 17  1  0  0  0  0
 17 18  2  0  0  0  0
 18 26  1  0  0  0  0
 19 23  1  0  0  0  0
 19 27  1  0  0  0  0
 19 29  2  0  0  0  0
 20 28  1  0  0  0  0
 21 28  1  0  0  0  0
 22 23  1  6  0  0  0
 24 25  1  0  0  0  0
  1 30  1  0  0  0  0
  2 31  1  0  0  0  0
  3 32  1  0  0  0  0
  4 33  1  0  0  0  0
  5 34  1  0  0  0  0
  6 35  1  0  0  0  0
  7 36  1  0  0  0  0
  8 37  1  0  0  0  0
  9 38  1  0  0  0  0
 15 39  1  0  0  0  0
 16 40  1  0  0  0  0
 17 41  1  0  0  0  0
 18 42  1  0  0  0  0
 20 43  1  0  0  0  0
 20 44  1  0  0  0  0
 20 45  1  0  0  0  0
 21 46  1  0  0  0  0
 21 47  1  0  0  0  0
 21 48  1  0  0  0  0
 22 49  1  0  0  0  0
 22 50  1  0  0  0  0
 23 51  1  0  0  0  0
 27 52  1  0  0  0  0
M  END
> <clash_score>
0

> <docking_score>
-7.86370849609375

> <overlap_score>
0.9280038475990295

$$$$
BENZO_307_2
  -OEChem-08222022463D

 59 63  0     1  0  0  0  0  0999 V2000
    4.2460    1.7520   20.8250 C   0  0  0  0  0  0  0  0  0  0  0  0
    3.8860    2.1050   19.5250 C   0  0  0  0  0  0  0  0  0  0  0  0
    5.3890    1.0010   21.0690 C   0  0  0  0  0  0  0  0  0  0  0  0
    9.5890   -2.4950   23.2210 C   0  0  0  0  0  0  0  0  0  0  0  0
    8.2550   -1.0010   24.5520 C   0  0  0  0  0  0  0  0  0  0  0  0
    4.6610    1.7170   18.4380 C   0  0  0  0  0  0  0  0  0  0  0  0
    9.1890   -3.5540   24.0140 C   0  0  0  0  0  0  0  0  0  0  0  0
    7.8700   -2.0610   25.3550 C   0  0  0  0  0  0  0  0  0  0  0  0
   12.1294   -0.7684   24.8759 C   0  0  0  0  0  0  0  0  0  0  0  0
   12.9208   -0.6622   22.8272 C   0  0  0  0  0  0  0  0  0  0  0  0
    7.5840   -0.2700   18.5160 C   0  0  0  0  0  0  0  0  0  0  0  0
    6.1460    0.6070   19.9750 C   0  0  0  0  0  0  0  0  0  0  0  0
    9.1280   -1.2090   23.4870 C   0  0  0  0  0  0  0  0  0  0  0  0
   11.8786   -0.2190   23.6043 C   0  0  0  0  0  0  0  0  0  0  0  0
    5.7970    0.9500   18.6730 C   0  0  0  0  0  0  0  0  0  0  0  0
    8.3450   -3.3440   25.0980 C   0  0  0  0  0  0  0  0  0  0  0  0
    7.2710   -0.1460   19.8310 C   0  0  0  0  0  0  0  0  0  0  0  0
    9.0430    0.2380   21.4940 C   0  0  0  0  0  0  0  0  0  0  0  0
    8.9527   -5.2007   26.6599 C   0  0  0  0  0  0  0  0  0  0  0  0
    6.6114   -4.5061   26.4392 C   0  0  0  0  0  0  0  0  0  0  0  0
    8.9052   -4.7829   28.1257 C   0  0  0  0  0  0  0  0  0  0  0  0
    6.6389   -4.1225   27.9194 C   0  0  0  0  0  0  0  0  0  0  0  0
   14.9196   -2.1033   23.2819 C   0  0  0  0  0  0  0  0  0  0  0  0
   10.7220    0.6590   23.1850 C   0  0  0  0  0  0  0  0  0  0  0  0
    9.5820   -0.1080   22.7000 C   0  0  2  0  0  0  0  0  0  0  0  0
   13.2434   -1.5045   24.9090 N   0  0  0  0  0  0  0  0  0  0  0  0
    6.7100    0.3850   17.8100 N   0  0  0  0  0  0  0  0  0  0  0  0
   13.7019   -1.4208   23.6485 N   0  0  0  0  0  0  0  0  0  0  0  0
    7.9774   -4.4013   25.9152 N   0  0  0  0  0  0  0  0  0  0  0  0
    8.0950   -0.7700   20.8440 N   0  0  0  0  0  0  0  0  0  0  0  0
    9.2950    1.3000   20.9480 O   0  0  0  0  0  0  0  0  0  0  0  0
    7.5748   -4.9369   28.6346 O   0  0  0  0  0  0  0  0  0  0  0  0
    3.6208    2.0704   21.6579 H   0  0  0  0  0  0  0  0  0  0  0  0
    2.9857    2.6926   19.3615 H   0  0  0  0  0  0  0  0  0  0  0  0
    5.6664    0.7407   22.0807 H   0  0  0  0  0  0  0  0  0  0  0  0
   10.2684   -2.6719   22.3867 H   0  0  0  0  0  0  0  0  0  0  0  0
    7.8717   -0.0016   24.7596 H   0  0  0  0  0  0  0  0  0  0  0  0
    4.3794    2.0106   17.4221 H   0  0  0  0  0  0  0  0  0  0  0  0
    9.5443   -4.5616   23.7817 H   0  0  0  0  0  0  0  0  0  0  0  0
    7.1921   -1.8821   26.1908 H   0  0  0  0  0  0  0  0  0  0  0  0
   11.5479   -0.6652   25.7811 H   0  0  0  0  0  0  0  0  0  0  0  0
   13.1664   -0.5073   21.7853 H   0  0  0  0  0  0  0  0  0  0  0  0
    8.4172   -0.8135   18.0384 H   0  0  0  0  0  0  0  0  0  0  0  0
    9.9650   -5.0555   26.2691 H   0  0  0  0  0  0  0  0  0  0  0  0
    8.6941   -6.2620   26.5708 H   0  0  0  0  0  0  0  0  0  0  0  0
    6.2612   -5.5365   26.3329 H   0  0  0  0  0  0  0  0  0  0  0  0
    5.9290   -3.8447   25.9017 H   0  0  0  0  0  0  0  0  0  0  0  0
    9.5616   -5.4256   28.7162 H   0  0  0  0  0  0  0  0  0  0  0  0
    9.2362   -3.7495   28.2622 H   0  0  0  0  0  0  0  0  0  0  0  0
    6.8891   -3.0639   28.0552 H   0  0  0  0  0  0  0  0  0  0  0  0
    5.6513   -4.2871   28.3609 H   0  0  0  0  0  0  0  0  0  0  0  0
   15.7545   -1.4186   23.4527 H   0  0  0  0  0  0  0  0  0  0  0  0
   15.0313   -3.0027   23.8939 H   0  0  0  0  0  0  0  0  0  0  0  0
   14.8693   -2.3913   22.2281 H   0  0  0  0  0  0  0  0  0  0  0  0
   10.4369    1.3080   24.0233 H   0  0  0  0  0  0  0  0  0  0  0  0
   11.0815    1.3384   22.3997 H   0  0  0  0  0  0  0  0  0  0  0  0
   10.5413   -0.9955   22.0233 H   0  0  0  0  0  0  0  0  0  0  0  0
    6.6715    0.4865   16.8044 H   0  0  0  0  0  0  0  0  0  0  0  0
    8.0730   -1.6176   21.0751 H   0  0  0  0  0  0  0  0  0  0  0  0
  1  2  1  0  0  0  0
  1  3  2  0  0  0  0
  2  6  2  0  0  0  0
  3 12  1  0  0  0  0
  4  7  2  0  0  0  0
  4 13  1  0  0  0  0
  5  8  1  0  0  0  0
  5 13  2  0  0  0  0
  6 15  1  0  0  0  0
  7 16  1  0  0  0  0
  8 16  2  0  0  0  0
  9 14  1  0  0  0  0
  9 26  2  0  0  0  0
 10 14  2  0  0  0  0
 10 28  1  0  0  0  0
 11 17  2  0  0  0  0
 11 27  1  0  0  0  0
 12 15  2  0  0  0  0
 12 17  1  0  0  0  0
 13 25  1  0  0  0  0
 14 24  1  0  0  0  0
 15 27  1  0  0  0  0
 16 29  1  0  0  0  0
 17 30  1  0  0  0  0
 18 25  1  0  0  0  0
 18 30  1  0  0  0  0
 18 31  2  0  0  0  0
 19 21  1  0  0  0  0
 19 29  1  0  0  0  0
 20 22  1  0  0  0  0
 20 29  1  0  0  0  0
 21 32  1  0  0  0  0
 22 32  1  0  0  0  0
 23 28  1  0  0  0  0
 24 25  1  6  0  0  0
 26 28  1  0  0  0  0
  1 33  1  0  0  0  0
  2 34  1  0  0  0  0
  3 35  1  0  0  0  0
  4 36  1  0  0  0  0
  5 37  1  0  0  0  0
  6 38  1  0  0  0  0
  7 39  1  0  0  0  0
  8 40  1  0  0  0  0
  9 41  1  0  0  0  0
 10 42  1  0  0  0  0
 11 43  1  0  0  0  0
 19 44  1  0  0  0  0
 19 45  1  0  0  0  0
 20 46  1  0  0  0  0
 20 47  1  0  0  0  0
 21 48  1  0  0  0  0
 21 49  1  0  0  0  0
 22 50  1  0  0  0  0
 22 51  1  0  0  0  0
 23 52  1  0  0  0  0
 23 53  1  0  0  0  0
 23 54  1  0  0  0  0
 24 55  1  0  0  0  0
 24 56  1  0  0  0  0
 25 57  1  0  0  0  0
 27 58  1  0  0  0  0
 30 59  1  0  0  0  0
M  END
> <clash_score>
0

> <docking_score>
-7.309950351715088

> <overlap_score>
0.9769434332847595

$$$$
BENZO_307_1
  -OEChem-08222022463D

 59 63  0     1  0  0  0  0  0999 V2000
    4.2460    1.7520   20.8250 C   0  0  0  0  0  0  0  0  0  0  0  0
    3.8860    2.1050   19.5250 C   0  0  0  0  0  0  0  0  0  0  0  0
    5.3890    1.0010   21.0690 C   0  0  0  0  0  0  0  0  0  0  0  0
    9.5890   -2.4950   23.2210 C   0  0  0  0  0  0  0  0  0  0  0  0
    8.2550   -1.0010   24.5520 C   0  0  0  0  0  0  0  0  0  0  0  0
    4.6610    1.7170   18.4380 C   0  0  0  0  0  0  0  0  0  0  0  0
    9.1890   -3.5540   24.0140 C   0  0  0  0  0  0  0  0  0  0  0  0
    7.8700   -2.0610   25.3550 C   0  0  0  0  0  0  0  0  0  0  0  0
   13.2896    0.1553   23.3608 C   0  0  0  0  0  0  0  0  0  0  0  0
   12.2975   -0.5709   21.5378 C   0  0  0  0  0  0  0  0  0  0  0  0
    7.5840   -0.2700   18.5160 C   0  0  0  0  0  0  0  0  0  0  0  0
    6.1460    0.6070   19.9750 C   0  0  0  0  0  0  0  0  0  0  0  0
    9.1280   -1.2090   23.4870 C   0  0  0  0  0  0  0  0  0  0  0  0
   12.0437    0.1027   22.7075 C   0  0  0  0  0  0  0  0  0  0  0  0
    5.7970    0.9500   18.6730 C   0  0  0  0  0  0  0  0  0  0  0  0
    8.3450   -3.3440   25.0980 C   0  0  0  0  0  0  0  0  0  0  0  0
    7.2710   -0.1460   19.8310 C   0  0  0  0  0  0  0  0  0  0  0  0
    9.0430    0.2380   21.4940 C   0  0  0  0  0  0  0  0  0  0  0  0
    8.9527   -5.2007   26.6599 C   0  0  0  0  0  0  0  0  0  0  0  0
    6.6114   -4.5061   26.4392 C   0  0  0  0  0  0  0  0  0  0  0  0
    8.9052   -4.7829   28.1257 C   0  0  0  0  0  0  0  0  0  0  0  0
    6.6389   -4.1225   27.9194 C   0  0  0  0  0  0  0  0  0  0  0  0
   14.3645   -1.5772   20.5410 C   0  0  0  0  0  0  0  0  0  0  0  0
   10.7220    0.6590   23.1850 C   0  0  0  0  0  0  0  0  0  0  0  0
    9.5820   -0.1080   22.7000 C   0  0  1  0  0  0  0  0  0  0  0  0
   14.2626   -0.4379   22.6640 N   0  0  0  0  0  0  0  0  0  0  0  0
    6.7100    0.3850   17.8100 N   0  0  0  0  0  0  0  0  0  0  0  0
   13.6281   -0.8696   21.5608 N   0  0  0  0  0  0  0  0  0  0  0  0
    7.9774   -4.4013   25.9152 N   0  0  0  0  0  0  0  0  0  0  0  0
    8.0950   -0.7700   20.8440 N   0  0  0  0  0  0  0  0  0  0  0  0
    9.2950    1.3000   20.9480 O   0  0  0  0  0  0  0  0  0  0  0  0
    7.5748   -4.9369   28.6346 O   0  0  0  0  0  0  0  0  0  0  0  0
    3.6208    2.0704   21.6579 H   0  0  0  0  0  0  0  0  0  0  0  0
    2.9857    2.6926   19.3615 H   0  0  0  0  0  0  0  0  0  0  0  0
    5.6664    0.7407   22.0807 H   0  0  0  0  0  0  0  0  0  0  0  0
   10.2684   -2.6719   22.3867 H   0  0  0  0  0  0  0  0  0  0  0  0
    7.8717   -0.0016   24.7596 H   0  0  0  0  0  0  0  0  0  0  0  0
    4.3794    2.0106   17.4221 H   0  0  0  0  0  0  0  0  0  0  0  0
    9.5443   -4.5616   23.7817 H   0  0  0  0  0  0  0  0  0  0  0  0
    7.1921   -1.8821   26.1908 H   0  0  0  0  0  0  0  0  0  0  0  0
   13.5314    0.5997   24.3159 H   0  0  0  0  0  0  0  0  0  0  0  0
   11.6602   -0.8572   20.7121 H   0  0  0  0  0  0  0  0  0  0  0  0
    8.4172   -0.8135   18.0384 H   0  0  0  0  0  0  0  0  0  0  0  0
    9.9650   -5.0555   26.2691 H   0  0  0  0  0  0  0  0  0  0  0  0
    8.6941   -6.2620   26.5708 H   0  0  0  0  0  0  0  0  0  0  0  0
    6.2612   -5.5365   26.3329 H   0  0  0  0  0  0  0  0  0  0  0  0
    5.9290   -3.8447   25.9017 H   0  0  0  0  0  0  0  0  0  0  0  0
    9.5616   -5.4256   28.7162 H   0  0  0  0  0  0  0  0  0  0  0  0
    9.2362   -3.7495   28.2622 H   0  0  0  0  0  0  0  0  0  0  0  0
    6.8891   -3.0639   28.0552 H   0  0  0  0  0  0  0  0  0  0  0  0
    5.6513   -4.2871   28.3609 H   0  0  0  0  0  0  0  0  0  0  0  0
   14.7472   -0.8411   19.8291 H   0  0  0  0  0  0  0  0  0  0  0  0
   15.1893   -2.1271   21.0029 H   0  0  0  0  0  0  0  0  0  0  0  0
   13.6985   -2.2851   20.0398 H   0  0  0  0  0  0  0  0  0  0  0  0
   10.7266    0.7141   24.2815 H   0  0  0  0  0  0  0  0  0  0  0  0
   10.6502    1.7002   22.8412 H   0  0  0  0  0  0  0  0  0  0  0  0
    8.7027    0.7972   23.4026 H   0  0  0  0  0  0  0  0  0  0  0  0
    6.6715    0.4865   16.8044 H   0  0  0  0  0  0  0  0  0  0  0  0
    8.0730   -1.6176   21.0751 H   0  0  0  0  0  0  0  0  0  0  0  0
  1  2  1  0  0  0  0
  1  3  2  0  0  0  0
  2  6  2  0  0  0  0
  3 12  1  0  0  0  0
  4  7  2  0  0  0  0
  4 13  1  0  0  0  0
  5  8  1  0  0  0  0
  5 13  2  0  0  0  0
  6 15  1  0  0  0  0
  7 16  1  0  0  0  0
  8 16  2  0  0  0  0
  9 14  1  0  0  0  0
  9 26  2  0  0  0  0
 10 14  2  0  0  0  0
 10 28  1  0  0  0  0
 11 17  2  0  0  0  0
 11 27  1  0  0  0  0
 12 15  2  0  0  0  0
 12 17  1  0  0  0  0
 13 25  1  0  0  0  0
 14 24  1  0  0  0  0
 15 27  1  0  0  0  0
 16 29  1  0  0  0  0
 17 30  1  0  0  0  0
 18 25  1  0  0  0  0
 18 30  1  0  0  0  0
 18 31  2  0  0  0  0
 19 21  1  0  0  0  0
 19 29  1  0  0  0  0
 20 22  1  0  0  0  0
 20 29  1  0  0  0  0
 21 32  1  0  0  0  0
 22 32  1  0  0  0  0
 23 28  1  0  0  0  0
 24 25  1  1  0  0  0
 26 28  1  0  0  0  0
  1 33  1  0  0  0  0
  2 34  1  0  0  0  0
  3 35  1  0  0  0  0
  4 36  1  0  0  0  0
  5 37  1  0  0  0  0
  6 38  1  0  0  0  0
  7 39  1  0  0  0  0
  8 40  1  0  0  0  0
  9 41  1  0  0  0  0
 10 42  1  0  0  0  0
 11 43  1  0  0  0  0
 19 44  1  0  0  0  0
 19 45  1  0  0  0  0
 20 46  1  0  0  0  0
 20 47  1  0  0  0  0
 21 48  1  0  0  0  0
 21 49  1  0  0  0  0
 22 50  1  0  0  0  0
 22 51  1  0  0  0  0
 23 52  1  0  0  0  0
 23 53  1  0  0  0  0
 23 54  1  0  0  0  0
 24 55  1  0  0  0  0
 24 56  1  0  0  0  0
 25 57  1  0  0  0  0
 27 58  1  0  0  0  0
 30 59  1  0  0  0  0
M  END
> <clash_score>
0

> <docking_score>
-8.784943580627441

> <overlap_score>
0.9544111490249634

$$$$
BENZO_311_1
  -OEChem-08222022463D

 52 55  0     1  0  0  0  0  0999 V2000
    9.5890   -2.4950   23.2210 C   0  0  0  0  0  0  0  0  0  0  0  0
    8.2550   -1.0010   24.5520 C   0  0  0  0  0  0  0  0  0  0  0  0
    9.1890   -3.5540   24.0140 C   0  0  0  0  0  0  0  0  0  0  0  0
    7.8700   -2.0610   25.3550 C   0  0  0  0  0  0  0  0  0  0  0  0
   13.2896    0.1553   23.3608 C   0  0  0  0  0  0  0  0  0  0  0  0
   12.2975   -0.5709   21.5378 C   0  0  0  0  0  0  0  0  0  0  0  0
    9.1280   -1.2090   23.4870 C   0  0  0  0  0  0  0  0  0  0  0  0
   12.0437    0.1027   22.7075 C   0  0  0  0  0  0  0  0  0  0  0  0
    8.3450   -3.3440   25.0980 C   0  0  0  0  0  0  0  0  0  0  0  0
    5.7970    0.9500   18.6730 C   0  0  0  0  0  0  0  0  0  0  0  0
    7.2710   -0.1460   19.8310 C   0  0  0  0  0  0  0  0  0  0  0  0
    4.6610    1.7170   18.4380 C   0  0  0  0  0  0  0  0  0  0  0  0
    3.8860    2.1050   19.5250 C   0  0  0  0  0  0  0  0  0  0  0  0
    4.2460    1.7520   20.8250 C   0  0  0  0  0  0  0  0  0  0  0  0
    5.3890    1.0010   21.0690 C   0  0  0  0  0  0  0  0  0  0  0  0
    9.0430    0.2380   21.4940 C   0  0  0  0  0  0  0  0  0  0  0  0
   14.3645   -1.5772   20.5410 C   0  0  0  0  0  0  0  0  0  0  0  0
    7.2615   -5.5559   25.3797 C   0  0  0  0  0  0  0  0  0  0  0  0
    8.3042   -4.4052   27.3386 C   0  0  0  0  0  0  0  0  0  0  0  0
   10.7220    0.6590   23.1850 C   0  0  0  0  0  0  0  0  0  0  0  0
    9.5820   -0.1080   22.7000 C   0  0  1  0  0  0  0  0  0  0  0  0
   14.2626   -0.4379   22.6640 N   0  0  0  0  0  0  0  0  0  0  0  0
    6.7100    0.3850   17.8100 N   0  0  0  0  0  0  0  0  0  0  0  0
    7.5840   -0.2700   18.5160 N   0  0  0  0  0  0  0  0  0  0  0  0
   13.6281   -0.8696   21.5608 N   0  0  0  0  0  0  0  0  0  0  0  0
    6.1460    0.6070   19.9750 N   0  0  0  0  0  0  0  0  0  0  0  0
    8.0950   -0.7700   20.8440 N   0  0  0  0  0  0  0  0  0  0  0  0
    7.9717   -4.4175   25.9277 N   0  0  0  0  0  0  0  0  0  0  0  0
    9.2950    1.3000   20.9480 O   0  0  0  0  0  0  0  0  0  0  0  0
   10.2684   -2.6719   22.3867 H   0  0  0  0  0  0  0  0  0  0  0  0
    7.8717   -0.0016   24.7596 H   0  0  0  0  0  0  0  0  0  0  0  0
    9.5443   -4.5616   23.7817 H   0  0  0  0  0  0  0  0  0  0  0  0
    7.1921   -1.8821   26.1908 H   0  0  0  0  0  0  0  0  0  0  0  0
   13.5314    0.5997   24.3159 H   0  0  0  0  0  0  0  0  0  0  0  0
   11.6602   -0.8572   20.7121 H   0  0  0  0  0  0  0  0  0  0  0  0
    4.3710    2.0145   17.4451 H   0  0  0  0  0  0  0  0  0  0  0  0
    2.9929    2.6891   19.3400 H   0  0  0  0  0  0  0  0  0  0  0  0
    3.6320    2.0596   21.6814 H   0  0  0  0  0  0  0  0  0  0  0  0
    5.6863    0.7288   22.0575 H   0  0  0  0  0  0  0  0  0  0  0  0
   14.7472   -0.8411   19.8291 H   0  0  0  0  0  0  0  0  0  0  0  0
   15.1893   -2.1271   21.0028 H   0  0  0  0  0  0  0  0  0  0  0  0
   13.6985   -2.2851   20.0398 H   0  0  0  0  0  0  0  0  0  0  0  0
    7.0604   -6.2833   26.1801 H   0  0  0  0  0  0  0  0  0  0  0  0
    6.3097   -5.2187   24.9433 H   0  0  0  0  0  0  0  0  0  0  0  0
    7.8751   -6.0299   24.5994 H   0  0  0  0  0  0  0  0  0  0  0  0
    7.9291   -5.3245   27.8122 H   0  0  0  0  0  0  0  0  0  0  0  0
    9.3964   -4.3510   27.4573 H   0  0  0  0  0  0  0  0  0  0  0  0
    7.8394   -3.5306   27.8170 H   0  0  0  0  0  0  0  0  0  0  0  0
   10.7266    0.7141   24.2815 H   0  0  0  0  0  0  0  0  0  0  0  0
   10.6502    1.7003   22.8412 H   0  0  0  0  0  0  0  0  0  0  0  0
    8.7027    0.7972   23.4026 H   0  0  0  0  0  0  0  0  0  0  0  0
    8.0706   -1.6189   21.0730 H   0  0  0  0  0  0  0  0  0  0  0  0
  1  3  2  0  0  0  0
  1  7  1  0  0  0  0
  2  4  1  0  0  0  0
  2  7  2  0  0  0  0
  3  9  1  0  0  0  0
  4  9  2  0  0  0  0
  5  8  1  0  0  0  0
  5 22  2  0  0  0  0
  6  8  2  0  0  0  0
  6 25  1  0  0  0  0
  7 21  1  0  0  0  0
  8 20  1  0  0  0  0
  9 28  1  0  0  0  0
 10 12  1  0  0  0  0
 10 23  2  0  0  0  0
 10 26  1  0  0  0  0
 11 24  2  0  0  0  0
 11 26  1  0  0  0  0
 11 27  1  0  0  0  0
 12 13  2  0  0  0  0
 13 14  1  0  0  0  0
 14 15  2  0  0  0  0
 15 26  1  0  0  0  0
 16 21  1  0  0  0  0
 16 27  1  0  0  0  0
 16 29  2  0  0  0  0
 17 25  1  0  0  0  0
 18 28  1  0  0  0  0
 19 28  1  0  0  0  0
 20 21  1  1  0  0  0
 22 25  1  0  0  0  0
 23 24  1  0  0  0  0
  1 30  1  0  0  0  0
  2 31  1  0  0  0  0
  3 32  1  0  0  0  0
  4 33  1  0  0  0  0
  5 34  1  0  0  0  0
  6 35  1  0  0  0  0
 12 36  1  0  0  0  0
 13 37  1  0  0  0  0
 14 38  1  0  0  0  0
 15 39  1  0  0  0  0
 17 40  1  0  0  0  0
 17 41  1  0  0  0  0
 17 42  1  0  0  0  0
 18 43  1  0  0  0  0
 18 44  1  0  0  0  0
 18 45  1  0  0  0  0
 19 46  1  0  0  0  0
 19 47  1  0  0  0  0
 19 48  1  0  0  0  0
 20 49  1  0  0  0  0
 20 50  1  0  0  0  0
 21 51  1  0  0  0  0
 27 52  1  0  0  0  0
M  END
> <clash_score>
0

> <docking_score>
-8.408878326416016

> <overlap_score>
0.9069583415985107

$$$$
BENZO_311_2
  -OEChem-08222022463D

 52 55  0     1  0  0  0  0  0999 V2000
    9.5890   -2.4950   23.2210 C   0  0  0  0  0  0  0  0  0  0  0  0
    8.2550   -1.0010   24.5520 C   0  0  0  0  0  0  0  0  0  0  0  0
    9.1890   -3.5540   24.0140 C   0  0  0  0  0  0  0  0  0  0  0  0
    7.8700   -2.0610   25.3550 C   0  0  0  0  0  0  0  0  0  0  0  0
   12.1294   -0.7684   24.8759 C   0  0  0  0  0  0  0  0  0  0  0  0
   12.9208   -0.6622   22.8272 C   0  0  0  0  0  0  0  0  0  0  0  0
    9.1280   -1.2090   23.4870 C   0  0  0  0  0  0  0  0  0  0  0  0
   11.8786   -0.2190   23.6043 C   0  0  0  0  0  0  0  0  0  0  0  0
    8.3450   -3.3440   25.0980 C   0  0  0  0  0  0  0  0  0  0  0  0
    5.7970    0.9500   18.6730 C   0  0  0  0  0  0  0  0  0  0  0  0
    7.2710   -0.1460   19.8310 C   0  0  0  0  0  0  0  0  0  0  0  0
    4.6610    1.7170   18.4380 C   0  0  0  0  0  0  0  0  0  0  0  0
    3.8860    2.1050   19.5250 C   0  0  0  0  0  0  0  0  0  0  0  0
    4.2460    1.7520   20.8250 C   0  0  0  0  0  0  0  0  0  0  0  0
    5.3890    1.0010   21.0690 C   0  0  0  0  0  0  0  0  0  0  0  0
    9.0430    0.2380   21.4940 C   0  0  0  0  0  0  0  0  0  0  0  0
   14.9196   -2.1033   23.2819 C   0  0  0  0  0  0  0  0  0  0  0  0
    7.2615   -5.5559   25.3797 C   0  0  0  0  0  0  0  0  0  0  0  0
    8.3042   -4.4052   27.3386 C   0  0  0  0  0  0  0  0  0  0  0  0
   10.7220    0.6590   23.1850 C   0  0  0  0  0  0  0  0  0  0  0  0
    9.5820   -0.1080   22.7000 C   0  0  2  0  0  0  0  0  0  0  0  0
   13.2434   -1.5045   24.9090 N   0  0  0  0  0  0  0  0  0  0  0  0
    6.7100    0.3850   17.8100 N   0  0  0  0  0  0  0  0  0  0  0  0
    7.5840   -0.2700   18.5160 N   0  0  0  0  0  0  0  0  0  0  0  0
   13.7018   -1.4208   23.6485 N   0  0  0  0  0  0  0  0  0  0  0  0
    6.1460    0.6070   19.9750 N   0  0  0  0  0  0  0  0  0  0  0  0
    8.0950   -0.7700   20.8440 N   0  0  0  0  0  0  0  0  0  0  0  0
    7.9717   -4.4175   25.9277 N   0  0  0  0  0  0  0  0  0  0  0  0
    9.2950    1.3000   20.9480 O   0  0  0  0  0  0  0  0  0  0  0  0
   10.2684   -2.6719   22.3867 H   0  0  0  0  0  0  0  0  0  0  0  0
    7.8717   -0.0016   24.7596 H   0  0  0  0  0  0  0  0  0  0  0  0
    9.5443   -4.5616   23.7817 H   0  0  0  0  0  0  0  0  0  0  0  0
    7.1921   -1.8821   26.1908 H   0  0  0  0  0  0  0  0  0  0  0  0
   11.5479   -0.6652   25.7811 H   0  0  0  0  0  0  0  0  0  0  0  0
   13.1664   -0.5073   21.7853 H   0  0  0  0  0  0  0  0  0  0  0  0
    4.3710    2.0145   17.4451 H   0  0  0  0  0  0  0  0  0  0  0  0
    2.9929    2.6891   19.3400 H   0  0  0  0  0  0  0  0  0  0  0  0
    3.6320    2.0596   21.6814 H   0  0  0  0  0  0  0  0  0  0  0  0
    5.6863    0.7288   22.0575 H   0  0  0  0  0  0  0  0  0  0  0  0
   15.7545   -1.4186   23.4527 H   0  0  0  0  0  0  0  0  0  0  0  0
   15.0313   -3.0027   23.8939 H   0  0  0  0  0  0  0  0  0  0  0  0
   14.8692   -2.3913   22.2281 H   0  0  0  0  0  0  0  0  0  0  0  0
    7.0604   -6.2833   26.1801 H   0  0  0  0  0  0  0  0  0  0  0  0
    6.3097   -5.2187   24.9433 H   0  0  0  0  0  0  0  0  0  0  0  0
    7.8751   -6.0299   24.5994 H   0  0  0  0  0  0  0  0  0  0  0  0
    7.9291   -5.3245   27.8122 H   0  0  0  0  0  0  0  0  0  0  0  0
    9.3964   -4.3510   27.4573 H   0  0  0  0  0  0  0  0  0  0  0  0
    7.8394   -3.5306   27.8170 H   0  0  0  0  0  0  0  0  0  0  0  0
   10.4369    1.3080   24.0233 H   0  0  0  0  0  0  0  0  0  0  0  0
   11.0815    1.3384   22.3997 H   0  0  0  0  0  0  0  0  0  0  0  0
   10.5413   -0.9955   22.0233 H   0  0  0  0  0  0  0  0  0  0  0  0
    8.0706   -1.6189   21.0730 H   0  0  0  0  0  0  0  0  0  0  0  0
  1  3  2  0  0  0  0
  1  7  1  0  0  0  0
  2  4  1  0  0  0  0
  2  7  2  0  0  0  0
  3  9  1  0  0  0  0
  4  9  2  0  0  0  0
  5  8  1  0  0  0  0
  5 22  2  0  0  0  0
  6  8  2  0  0  0  0
  6 25  1  0  0  0  0
  7 21  1  0  0  0  0
  8 20  1  0  0  0  0
  9 28  1  0  0  0  0
 10 12  1  0  0  0  0
 10 23  2  0  0  0  0
 10 26  1  0  0  0  0
 11 24  2  0  0  0  0
 11 26  1  0  0  0  0
 11 27  1  0  0  0  0
 12 13  2  0  0  0  0
 13 14  1  0  0  0  0
 14 15  2  0  0  0  0
 15 26  1  0  0  0  0
 16 21  1  0  0  0  0
 16 27  1  0  0  0  0
 16 29  2  0  0  0  0
 17 25  1  0  0  0  0
 18 28  1  0  0  0  0
 19 28  1  0  0  0  0
 20 21  1  6  0  0  0
 22 25  1  0  0  0  0
 23 24  1  0  0  0  0
  1 30  1  0  0  0  0
  2 31  1  0  0  0  0
  3 32  1  0  0  0  0
  4 33  1  0  0  0  0
  5 34  1  0  0  0  0
  6 35  1  0  0  0  0
 12 36  1  0  0  0  0
 13 37  1  0  0  0  0
 14 38  1  0  0  0  0
 15 39  1  0  0  0  0
 17 40  1  0  0  0  0
 17 41  1  0  0  0  0
 17 42  1  0  0  0  0
 18 43  1  0  0  0  0
 18 44  1  0  0  0  0
 18 45  1  0  0  0  0
 19 46  1  0  0  0  0
 19 47  1  0  0  0  0
 19 48  1  0  0  0  0
 20 49  1  0  0  0  0
 20 50  1  0  0  0  0
 21 51  1  0  0  0  0
 27 52  1  0  0  0  0
M  END
> <clash_score>
0

> <docking_score>
-6.933893203735352

> <overlap_score>
0.9296136498451233

$$$$
BENZO_310_2
  -OEChem-08222022463D

 52 55  0     1  0  0  0  0  0999 V2000
   13.0334   -1.4852   25.3072 C   0  0  0  0  0  0  0  0  0  0  0  0
   11.9669   -0.6740   24.9199 C   0  0  0  0  0  0  0  0  0  0  0  0
    9.5890   -2.4950   23.2210 C   0  0  0  0  0  0  0  0  0  0  0  0
    8.2550   -1.0010   24.5520 C   0  0  0  0  0  0  0  0  0  0  0  0
    9.1890   -3.5540   24.0140 C   0  0  0  0  0  0  0  0  0  0  0  0
    7.8700   -2.0610   25.3550 C   0  0  0  0  0  0  0  0  0  0  0  0
   14.0118   -1.8413   24.3790 C   0  0  0  0  0  0  0  0  0  0  0  0
   12.8570   -0.5751   22.6760 C   0  0  0  0  0  0  0  0  0  0  0  0
    9.1280   -1.2090   23.4870 C   0  0  0  0  0  0  0  0  0  0  0  0
   11.8786   -0.2190   23.6043 C   0  0  0  0  0  0  0  0  0  0  0  0
    8.3450   -3.3440   25.0980 C   0  0  0  0  0  0  0  0  0  0  0  0
   13.9235   -1.3863   23.0634 C   0  0  0  0  0  0  0  0  0  0  0  0
    5.7970    0.9500   18.6730 C   0  0  0  0  0  0  0  0  0  0  0  0
    7.2710   -0.1460   19.8310 C   0  0  0  0  0  0  0  0  0  0  0  0
    4.6610    1.7170   18.4380 C   0  0  0  0  0  0  0  0  0  0  0  0
    3.8860    2.1050   19.5250 C   0  0  0  0  0  0  0  0  0  0  0  0
    4.2460    1.7520   20.8250 C   0  0  0  0  0  0  0  0  0  0  0  0
    5.3890    1.0010   21.0690 C   0  0  0  0  0  0  0  0  0  0  0  0
    9.0430    0.2380   21.4940 C   0  0  0  0  0  0  0  0  0  0  0  0
    7.2615   -5.5559   25.3797 C   0  0  0  0  0  0  0  0  0  0  0  0
    8.3042   -4.4052   27.3386 C   0  0  0  0  0  0  0  0  0  0  0  0
   10.7220    0.6590   23.1850 C   0  0  0  0  0  0  0  0  0  0  0  0
    9.5820   -0.1080   22.7000 C   0  0  2  0  0  0  0  0  0  0  0  0
    6.7100    0.3850   17.8100 N   0  0  0  0  0  0  0  0  0  0  0  0
    7.5840   -0.2700   18.5160 N   0  0  0  0  0  0  0  0  0  0  0  0
    6.1460    0.6070   19.9750 N   0  0  0  0  0  0  0  0  0  0  0  0
    8.0950   -0.7700   20.8440 N   0  0  0  0  0  0  0  0  0  0  0  0
    7.9717   -4.4175   25.9277 N   0  0  0  0  0  0  0  0  0  0  0  0
    9.2950    1.3000   20.9480 O   0  0  0  0  0  0  0  0  0  0  0  0
   15.1303   -1.8270   21.9183 Cl  0  0  0  0  0  0  0  0  0  0  0  0
   13.1017   -1.8394   26.3318 H   0  0  0  0  0  0  0  0  0  0  0  0
   11.2091   -0.4015   25.6498 H   0  0  0  0  0  0  0  0  0  0  0  0
   10.2684   -2.6719   22.3867 H   0  0  0  0  0  0  0  0  0  0  0  0
    7.8717   -0.0016   24.7596 H   0  0  0  0  0  0  0  0  0  0  0  0
    9.5443   -4.5616   23.7817 H   0  0  0  0  0  0  0  0  0  0  0  0
    7.1921   -1.8821   26.1908 H   0  0  0  0  0  0  0  0  0  0  0  0
   14.8373   -2.4744   24.6949 H   0  0  0  0  0  0  0  0  0  0  0  0
   12.7839   -0.2174   21.6515 H   0  0  0  0  0  0  0  0  0  0  0  0
    4.3710    2.0145   17.4451 H   0  0  0  0  0  0  0  0  0  0  0  0
    2.9929    2.6891   19.3400 H   0  0  0  0  0  0  0  0  0  0  0  0
    3.6320    2.0596   21.6814 H   0  0  0  0  0  0  0  0  0  0  0  0
    5.6863    0.7288   22.0575 H   0  0  0  0  0  0  0  0  0  0  0  0
    7.0604   -6.2833   26.1801 H   0  0  0  0  0  0  0  0  0  0  0  0
    6.3097   -5.2187   24.9433 H   0  0  0  0  0  0  0  0  0  0  0  0
    7.8751   -6.0299   24.5994 H   0  0  0  0  0  0  0  0  0  0  0  0
    7.9291   -5.3245   27.8122 H   0  0  0  0  0  0  0  0  0  0  0  0
    9.3964   -4.3510   27.4573 H   0  0  0  0  0  0  0  0  0  0  0  0
    7.8394   -3.5306   27.8170 H   0  0  0  0  0  0  0  0  0  0  0  0
   10.4369    1.3080   24.0233 H   0  0  0  0  0  0  0  0  0  0  0  0
   11.0815    1.3384   22.3997 H   0  0  0  0  0  0  0  0  0  0  0  0
   10.5413   -0.9955   22.0233 H   0  0  0  0  0  0  0  0  0  0  0  0
    8.0706   -1.6189   21.0730 H   0  0  0  0  0  0  0  0  0  0  0  0
  1  2  2  0  0  0  0
  1  7  1  0  0  0  0
  2 10  1  0  0  0  0
  3  5  2  0  0  0  0
  3  9  1  0  0  0  0
  4  6  1  0  0  0  0
  4  9  2  0  0  0  0
  5 11  1  0  0  0  0
  6 11  2  0  0  0  0
  7 12  2  0  0  0  0
  8 10  2  0  0  0  0
  8 12  1  0  0  0  0
  9 23  1  0  0  0  0
 10 22  1  0  0  0  0
 11 28  1  0  0  0  0
 12 30  1  0  0  0  0
 13 15  1  0  0  0  0
 13 24  2  0  0  0  0
 13 26  1  0  0  0  0
 14 25  2  0  0  0  0
 14 26  1  0  0  0  0
 14 27  1  0  0  0  0
 15 16  2  0  0  0  0
 16 17  1  0  0  0  0
 17 18  2  0  0  0  0
 18 26  1  0  0  0  0
 19 23  1  0  0  0  0
 19 27  1  0  0  0  0
 19 29  2  0  0  0  0
 20 28  1  0  0  0  0
 21 28  1  0  0  0  0
 22 23  1  6  0  0  0
 24 25  1  0  0  0  0
  1 31  1  0  0  0  0
  2 32  1  0  0  0  0
  3 33  1  0  0  0  0
  4 34  1  0  0  0  0
  5 35  1  0  0  0  0
  6 36  1  0  0  0  0
  7 37  1  0  0  0  0
  8 38  1  0  0  0  0
 15 39  1  0  0  0  0
 16 40  1  0  0  0  0
 17 41  1  0  0  0  0
 18 42  1  0  0  0  0
 20 43  1  0  0  0  0
 20 44  1  0  0  0  0
 20 45  1  0  0  0  0
 21 46  1  0  0  0  0
 21 47  1  0  0  0  0
 21 48  1  0  0  0  0
 22 49  1  0  0  0  0
 22 50  1  0  0  0  0
 23 51  1  0  0  0  0
 27 52  1  0  0  0  0
M  END
> <clash_score>
0

> <docking_score>
-6.9846038818359375

> <overlap_score>
0.934041440486908

$$$$
BENZO_310_1
  -OEChem-08222022463D

 52 55  0     1  0  0  0  0  0999 V2000
   13.8165    0.0398   21.0674 C   0  0  0  0  0  0  0  0  0  0  0  0
   12.5963    0.5519   21.5081 C   0  0  0  0  0  0  0  0  0  0  0  0
    9.5890   -2.4950   23.2210 C   0  0  0  0  0  0  0  0  0  0  0  0
    8.2550   -1.0010   24.5520 C   0  0  0  0  0  0  0  0  0  0  0  0
    9.1890   -3.5540   24.0140 C   0  0  0  0  0  0  0  0  0  0  0  0
    7.8700   -2.0610   25.3550 C   0  0  0  0  0  0  0  0  0  0  0  0
   14.4843   -0.9216   21.8261 C   0  0  0  0  0  0  0  0  0  0  0  0
   12.7115   -0.8586   23.4663 C   0  0  0  0  0  0  0  0  0  0  0  0
    9.1280   -1.2090   23.4870 C   0  0  0  0  0  0  0  0  0  0  0  0
   12.0437    0.1027   22.7075 C   0  0  0  0  0  0  0  0  0  0  0  0
    8.3450   -3.3440   25.0980 C   0  0  0  0  0  0  0  0  0  0  0  0
   13.9318   -1.3708   23.0255 C   0  0  0  0  0  0  0  0  0  0  0  0
    5.7970    0.9500   18.6730 C   0  0  0  0  0  0  0  0  0  0  0  0
    7.2710   -0.1460   19.8310 C   0  0  0  0  0  0  0  0  0  0  0  0
    4.6610    1.7170   18.4380 C   0  0  0  0  0  0  0  0  0  0  0  0
    3.8860    2.1050   19.5250 C   0  0  0  0  0  0  0  0  0  0  0  0
    4.2460    1.7520   20.8250 C   0  0  0  0  0  0  0  0  0  0  0  0
    5.3890    1.0010   21.0690 C   0  0  0  0  0  0  0  0  0  0  0  0
    9.0430    0.2380   21.4940 C   0  0  0  0  0  0  0  0  0  0  0  0
    7.2615   -5.5559   25.3797 C   0  0  0  0  0  0  0  0  0  0  0  0
    8.3042   -4.4052   27.3386 C   0  0  0  0  0  0  0  0  0  0  0  0
   10.7220    0.6590   23.1850 C   0  0  0  0  0  0  0  0  0  0  0  0
    9.5820   -0.1080   22.7000 C   0  0  1  0  0  0  0  0  0  0  0  0
    6.7100    0.3850   17.8100 N   0  0  0  0  0  0  0  0  0  0  0  0
    7.5840   -0.2700   18.5160 N   0  0  0  0  0  0  0  0  0  0  0  0
    6.1460    0.6070   19.9750 N   0  0  0  0  0  0  0  0  0  0  0  0
    8.0950   -0.7700   20.8440 N   0  0  0  0  0  0  0  0  0  0  0  0
    7.9717   -4.4175   25.9277 N   0  0  0  0  0  0  0  0  0  0  0  0
    9.2950    1.3000   20.9480 O   0  0  0  0  0  0  0  0  0  0  0  0
   14.7567   -2.5560   23.9617 Cl  0  0  0  0  0  0  0  0  0  0  0  0
   14.2465    0.3899   20.1334 H   0  0  0  0  0  0  0  0  0  0  0  0
   12.0830    1.3007   20.9105 H   0  0  0  0  0  0  0  0  0  0  0  0
   10.2684   -2.6719   22.3867 H   0  0  0  0  0  0  0  0  0  0  0  0
    7.8717   -0.0016   24.7596 H   0  0  0  0  0  0  0  0  0  0  0  0
    9.5443   -4.5616   23.7817 H   0  0  0  0  0  0  0  0  0  0  0  0
    7.1921   -1.8821   26.1908 H   0  0  0  0  0  0  0  0  0  0  0  0
   15.4348   -1.3117   21.4704 H   0  0  0  0  0  0  0  0  0  0  0  0
   12.2763   -1.2059   24.4005 H   0  0  0  0  0  0  0  0  0  0  0  0
    4.3710    2.0145   17.4451 H   0  0  0  0  0  0  0  0  0  0  0  0
    2.9929    2.6891   19.3400 H   0  0  0  0  0  0  0  0  0  0  0  0
    3.6320    2.0596   21.6814 H   0  0  0  0  0  0  0  0  0  0  0  0
    5.6863    0.7288   22.0575 H   0  0  0  0  0  0  0  0  0  0  0  0
    7.0604   -6.2833   26.1801 H   0  0  0  0  0  0  0  0  0  0  0  0
    6.3097   -5.2187   24.9433 H   0  0  0  0  0  0  0  0  0  0  0  0
    7.8751   -6.0299   24.5994 H   0  0  0  0  0  0  0  0  0  0  0  0
    7.9291   -5.3245   27.8122 H   0  0  0  0  0  0  0  0  0  0  0  0
    9.3964   -4.3510   27.4573 H   0  0  0  0  0  0  0  0  0  0  0  0
    7.8394   -3.5306   27.8170 H   0  0  0  0  0  0  0  0  0  0  0  0
   10.7266    0.7141   24.2815 H   0  0  0  0  0  0  0  0  0  0  0  0
   10.6502    1.7003   22.8412 H   0  0  0  0  0  0  0  0  0  0  0  0
    8.7027    0.7972   23.4026 H   0  0  0  0  0  0  0  0  0  0  0  0
    8.0706   -1.6189   21.0730 H   0  0  0  0  0  0  0  0  0  0  0  0
  1  2  2  0  0  0  0
  1  7  1  0  0  0  0
  2 10  1  0  0  0  0
  3  5  2  0  0  0  0
  3  9  1  0  0  0  0
  4  6  1  0  0  0  0
  4  9  2  0  0  0  0
  5 11  1  0  0  0  0
  6 11  2  0  0  0  0
  7 12  2  0  0  0  0
  8 10  2  0  0  0  0
  8 12  1  0  0  0  0
  9 23  1  0  0  0  0
 10 22  1  0  0  0  0
 11 28  1  0  0  0  0
 12 30  1  0  0  0  0
 13 15  1  0  0  0  0
 13 24  2  0  0  0  0
 13 26  1  0  0  0  0
 14 25  2  0  0  0  0
 14 26  1  0  0  0  0
 14 27  1  0  0  0  0
 15 16  2  0  0  0  0
 16 17  1  0  0  0  0
 17 18  2  0  0  0  0
 18 26  1  0  0  0  0
 19 23  1  0  0  0  0
 19 27  1  0  0  0  0
 19 29  2  0  0  0  0
 20 28  1  0  0  0  0
 21 28  1  0  0  0  0
 22 23  1  1  0  0  0
 24 25  1  0  0  0  0
  1 31  1  0  0  0  0
  2 32  1  0  0  0  0
  3 33  1  0  0  0  0
  4 34  1  0  0  0  0
  5 35  1  0  0  0  0
  6 36  1  0  0  0  0
  7 37  1  0  0  0  0
  8 38  1  0  0  0  0
 15 39  1  0  0  0  0
 16 40  1  0  0  0  0
 17 41  1  0  0  0  0
 18 42  1  0  0  0  0
 20 43  1  0  0  0  0
 20 44  1  0  0  0  0
 20 45  1  0  0  0  0
 21 46  1  0  0  0  0
 21 47  1  0  0  0  0
 21 48  1  0  0  0  0
 22 49  1  0  0  0  0
 22 50  1  0  0  0  0
 23 51  1  0  0  0  0
 27 52  1  0  0  0  0
M  END
> <clash_score>
0

> <docking_score>
-6.464322090148926

> <overlap_score>
0.9217532873153687

$$$$
BENZO_313_1
  -OEChem-08222022463D

 54 57  0     1  0  0  0  0  0999 V2000
   14.4830   -0.9237   21.8248 C   0  0  0  0  0  0  0  0  0  0  0  0
   13.9310   -1.3719   23.0248 C   0  0  0  0  0  0  0  0  0  0  0  0
   13.8154    0.0379   21.0662 C   0  0  0  0  0  0  0  0  0  0  0  0
   12.7114   -0.8588   23.4661 C   0  0  0  0  0  0  0  0  0  0  0  0
   12.5958    0.5510   21.5075 C   0  0  0  0  0  0  0  0  0  0  0  0
    9.5890   -2.4950   23.2210 C   0  0  0  0  0  0  0  0  0  0  0  0
    8.2550   -1.0010   24.5520 C   0  0  0  0  0  0  0  0  0  0  0  0
    9.1890   -3.5540   24.0140 C   0  0  0  0  0  0  0  0  0  0  0  0
    7.8700   -2.0610   25.3550 C   0  0  0  0  0  0  0  0  0  0  0  0
   12.0437    0.1027   22.7075 C   0  0  0  0  0  0  0  0  0  0  0  0
    9.1280   -1.2090   23.4870 C   0  0  0  0  0  0  0  0  0  0  0  0
    8.3450   -3.3440   25.0980 C   0  0  0  0  0  0  0  0  0  0  0  0
    5.7970    0.9500   18.6730 C   0  0  0  0  0  0  0  0  0  0  0  0
    7.2710   -0.1460   19.8310 C   0  0  0  0  0  0  0  0  0  0  0  0
    4.6610    1.7170   18.4380 C   0  0  0  0  0  0  0  0  0  0  0  0
    3.8860    2.1050   19.5250 C   0  0  0  0  0  0  0  0  0  0  0  0
    4.2460    1.7520   20.8250 C   0  0  0  0  0  0  0  0  0  0  0  0
    5.3890    1.0010   21.0690 C   0  0  0  0  0  0  0  0  0  0  0  0
    8.2013   -4.5561   27.2978 C   0  0  0  0  0  0  0  0  0  0  0  0
    9.0430    0.2380   21.4940 C   0  0  0  0  0  0  0  0  0  0  0  0
    7.8866   -6.0874   29.2882 C   0  0  0  0  0  0  0  0  0  0  0  0
   10.7220    0.6590   23.1850 C   0  0  0  0  0  0  0  0  0  0  0  0
    7.6334   -5.8726   27.8068 C   0  0  0  0  0  0  0  0  0  0  0  0
    9.5820   -0.1080   22.7000 C   0  0  1  0  0  0  0  0  0  0  0  0
    6.7100    0.3850   17.8100 N   0  0  0  0  0  0  0  0  0  0  0  0
    7.5840   -0.2700   18.5160 N   0  0  0  0  0  0  0  0  0  0  0  0
    6.1460    0.6070   19.9750 N   0  0  0  0  0  0  0  0  0  0  0  0
    7.9771   -4.4057   25.9197 N   0  0  0  0  0  0  0  0  0  0  0  0
    8.0950   -0.7700   20.8440 N   0  0  0  0  0  0  0  0  0  0  0  0
    8.7722   -3.7637   28.0399 O   0  0  0  0  0  0  0  0  0  0  0  0
    9.2950    1.3000   20.9480 O   0  0  0  0  0  0  0  0  0  0  0  0
   15.4334   -1.3223   21.4820 H   0  0  0  0  0  0  0  0  0  0  0  0
   14.4512   -2.1198   23.6162 H   0  0  0  0  0  0  0  0  0  0  0  0
   14.2454    0.3879   20.1325 H   0  0  0  0  0  0  0  0  0  0  0  0
   12.2887   -1.2141   24.4023 H   0  0  0  0  0  0  0  0  0  0  0  0
   12.0827    1.2998   20.9098 H   0  0  0  0  0  0  0  0  0  0  0  0
   10.2695   -2.6718   22.3873 H   0  0  0  0  0  0  0  0  0  0  0  0
    7.8712   -0.0014   24.7587 H   0  0  0  0  0  0  0  0  0  0  0  0
    9.5431   -4.5618   23.7801 H   0  0  0  0  0  0  0  0  0  0  0  0
    7.1923   -1.8823   26.1912 H   0  0  0  0  0  0  0  0  0  0  0  0
    4.3710    2.0145   17.4451 H   0  0  0  0  0  0  0  0  0  0  0  0
    2.9929    2.6891   19.3400 H   0  0  0  0  0  0  0  0  0  0  0  0
    3.6320    2.0596   21.6814 H   0  0  0  0  0  0  0  0  0  0  0  0
    5.6863    0.7288   22.0575 H   0  0  0  0  0  0  0  0  0  0  0  0
    8.9592   -6.0819   29.5087 H   0  0  0  0  0  0  0  0  0  0  0  0
    7.4764   -7.0498   29.6093 H   0  0  0  0  0  0  0  0  0  0  0  0
    7.4171   -5.2990   29.8857 H   0  0  0  0  0  0  0  0  0  0  0  0
   10.7266    0.7141   24.2815 H   0  0  0  0  0  0  0  0  0  0  0  0
   10.6502    1.7003   22.8412 H   0  0  0  0  0  0  0  0  0  0  0  0
    6.5542   -5.8827   27.6154 H   0  0  0  0  0  0  0  0  0  0  0  0
    8.0873   -6.6908   27.2359 H   0  0  0  0  0  0  0  0  0  0  0  0
    8.7027    0.7972   23.4026 H   0  0  0  0  0  0  0  0  0  0  0  0
    7.4775   -5.1796   25.4664 H   0  0  0  0  0  0  0  0  0  0  0  0
    8.0706   -1.6189   21.0730 H   0  0  0  0  0  0  0  0  0  0  0  0
  1  2  1  0  0  0  0
  1  3  2  0  0  0  0
  2  4  2  0  0  0  0
  3  5  1  0  0  0  0
  4 10  1  0  0  0  0
  5 10  2  0  0  0  0
  6  8  2  0  0  0  0
  6 11  1  0  0  0  0
  7  9  1  0  0  0  0
  7 11  2  0  0  0  0
  8 12  1  0  0  0  0
  9 12  2  0  0  0  0
 10 22  1  0  0  0  0
 11 24  1  0  0  0  0
 12 28  1  0  0  0  0
 13 15  1  0  0  0  0
 13 25  2  0  0  0  0
 13 27  1  0  0  0  0
 14 26  2  0  0  0  0
 14 27  1  0  0  0  0
 14 29  1  0  0  0  0
 15 16  2  0  0  0  0
 16 17  1  0  0  0  0
 17 18  2  0  0  0  0
 18 27  1  0  0  0  0
 19 23  1  0  0  0  0
 19 28  1  0  0  0  0
 19 30  2  0  0  0  0
 20 24  1  0  0  0  0
 20 29  1  0  0  0  0
 20 31  2  0  0  0  0
 21 23  1  0  0  0  0
 22 24  1  1  0  0  0
 25 26  1  0  0  0  0
  1 32  1  0  0  0  0
  2 33  1  0  0  0  0
  3 34  1  0  0  0  0
  4 35  1  0  0  0  0
  5 36  1  0  0  0  0
  6 37  1  0  0  0  0
  7 38  1  0  0  0  0
  8 39  1  0  0  0  0
  9 40  1  0  0  0  0
 15 41  1  0  0  0  0
 16 42  1  0  0  0  0
 17 43  1  0  0  0  0
 18 44  1  0  0  0  0
 21 45  1  0  0  0  0
 21 46  1  0  0  0  0
 21 47  1  0  0  0  0
 22 48  1  0  0  0  0
 22 49  1  0  0  0  0
 23 50  1  0  0  0  0
 23 51  1  0  0  0  0
 24 52  1  0  0  0  0
 28 53  1  0  0  0  0
 29 54  1  0  0  0  0
M  END
> <clash_score>
0

> <docking_score>
-7.297090530395508

> <overlap_score>
0.9701030254364014

$$$$
BENZO_313_2
  -OEChem-08222022463D

 54 57  0     1  0  0  0  0  0999 V2000
   14.0137   -1.8398   24.3768 C   0  0  0  0  0  0  0  0  0  0  0  0
   13.0361   -1.4844   25.3061 C   0  0  0  0  0  0  0  0  0  0  0  0
   13.9239   -1.3848   23.0613 C   0  0  0  0  0  0  0  0  0  0  0  0
   11.9686   -0.6740   24.9198 C   0  0  0  0  0  0  0  0  0  0  0  0
   12.8563   -0.5744   22.6750 C   0  0  0  0  0  0  0  0  0  0  0  0
    9.5890   -2.4950   23.2210 C   0  0  0  0  0  0  0  0  0  0  0  0
    8.2550   -1.0010   24.5520 C   0  0  0  0  0  0  0  0  0  0  0  0
    9.1890   -3.5540   24.0140 C   0  0  0  0  0  0  0  0  0  0  0  0
    7.8700   -2.0610   25.3550 C   0  0  0  0  0  0  0  0  0  0  0  0
   11.8786   -0.2190   23.6043 C   0  0  0  0  0  0  0  0  0  0  0  0
    9.1280   -1.2090   23.4870 C   0  0  0  0  0  0  0  0  0  0  0  0
    8.3450   -3.3440   25.0980 C   0  0  0  0  0  0  0  0  0  0  0  0
    5.7970    0.9500   18.6730 C   0  0  0  0  0  0  0  0  0  0  0  0
    7.2710   -0.1460   19.8310 C   0  0  0  0  0  0  0  0  0  0  0  0
    4.6610    1.7170   18.4380 C   0  0  0  0  0  0  0  0  0  0  0  0
    3.8860    2.1050   19.5250 C   0  0  0  0  0  0  0  0  0  0  0  0
    4.2460    1.7520   20.8250 C   0  0  0  0  0  0  0  0  0  0  0  0
    5.3890    1.0010   21.0690 C   0  0  0  0  0  0  0  0  0  0  0  0
    7.6593   -4.3764   27.2873 C   0  0  0  0  0  0  0  0  0  0  0  0
    9.0430    0.2380   21.4940 C   0  0  0  0  0  0  0  0  0  0  0  0
    8.4366   -6.7643   27.6026 C   0  0  0  0  0  0  0  0  0  0  0  0
   10.7220    0.6590   23.1850 C   0  0  0  0  0  0  0  0  0  0  0  0
    7.3105   -5.7656   27.8005 C   0  0  0  0  0  0  0  0  0  0  0  0
    9.5820   -0.1080   22.7000 C   0  0  2  0  0  0  0  0  0  0  0  0
    6.7100    0.3850   17.8100 N   0  0  0  0  0  0  0  0  0  0  0  0
    7.5840   -0.2700   18.5160 N   0  0  0  0  0  0  0  0  0  0  0  0
    6.1460    0.6070   19.9750 N   0  0  0  0  0  0  0  0  0  0  0  0
    7.9771   -4.4057   25.9197 N   0  0  0  0  0  0  0  0  0  0  0  0
    8.0950   -0.7700   20.8440 N   0  0  0  0  0  0  0  0  0  0  0  0
    7.6481   -3.3912   28.0178 O   0  0  0  0  0  0  0  0  0  0  0  0
    9.2950    1.3000   20.9480 O   0  0  0  0  0  0  0  0  0  0  0  0
   14.8456   -2.4698   24.6781 H   0  0  0  0  0  0  0  0  0  0  0  0
   13.1065   -1.8377   26.3307 H   0  0  0  0  0  0  0  0  0  0  0  0
   14.6854   -1.6605   22.3378 H   0  0  0  0  0  0  0  0  0  0  0  0
   11.2114   -0.4022   25.6506 H   0  0  0  0  0  0  0  0  0  0  0  0
   12.7944   -0.2247   21.6479 H   0  0  0  0  0  0  0  0  0  0  0  0
   10.2695   -2.6718   22.3873 H   0  0  0  0  0  0  0  0  0  0  0  0
    7.8712   -0.0014   24.7587 H   0  0  0  0  0  0  0  0  0  0  0  0
    9.5431   -4.5618   23.7801 H   0  0  0  0  0  0  0  0  0  0  0  0
    7.1923   -1.8823   26.1912 H   0  0  0  0  0  0  0  0  0  0  0  0
    4.3710    2.0145   17.4451 H   0  0  0  0  0  0  0  0  0  0  0  0
    2.9929    2.6891   19.3400 H   0  0  0  0  0  0  0  0  0  0  0  0
    3.6320    2.0596   21.6814 H   0  0  0  0  0  0  0  0  0  0  0  0
    5.6863    0.7288   22.0575 H   0  0  0  0  0  0  0  0  0  0  0  0
    8.6972   -6.8584   26.5433 H   0  0  0  0  0  0  0  0  0  0  0  0
    8.1397   -7.7513   27.9706 H   0  0  0  0  0  0  0  0  0  0  0  0
    9.3367   -6.4542   28.1435 H   0  0  0  0  0  0  0  0  0  0  0  0
   10.4369    1.3080   24.0233 H   0  0  0  0  0  0  0  0  0  0  0  0
   11.0815    1.3384   22.3997 H   0  0  0  0  0  0  0  0  0  0  0  0
    7.0709   -5.6917   28.8675 H   0  0  0  0  0  0  0  0  0  0  0  0
    6.4147   -6.1156   27.2747 H   0  0  0  0  0  0  0  0  0  0  0  0
   10.5413   -0.9955   22.0233 H   0  0  0  0  0  0  0  0  0  0  0  0
    7.9296   -5.3298   25.4748 H   0  0  0  0  0  0  0  0  0  0  0  0
    8.0706   -1.6189   21.0730 H   0  0  0  0  0  0  0  0  0  0  0  0
  1  2  1  0  0  0  0
  1  3  2  0  0  0  0
  2  4  2  0  0  0  0
  3  5  1  0  0  0  0
  4 10  1  0  0  0  0
  5 10  2  0  0  0  0
  6  8  2  0  0  0  0
  6 11  1  0  0  0  0
  7  9  1  0  0  0  0
  7 11  2  0  0  0  0
  8 12  1  0  0  0  0
  9 12  2  0  0  0  0
 10 22  1  0  0  0  0
 11 24  1  0  0  0  0
 12 28  1  0  0  0  0
 13 15  1  0  0  0  0
 13 25  2  0  0  0  0
 13 27  1  0  0  0  0
 14 26  2  0  0  0  0
 14 27  1  0  0  0  0
 14 29  1  0  0  0  0
 15 16  2  0  0  0  0
 16 17  1  0  0  0  0
 17 18  2  0  0  0  0
 18 27  1  0  0  0  0
 19 23  1  0  0  0  0
 19 28  1  0  0  0  0
 19 30  2  0  0  0  0
 20 24  1  0  0  0  0
 20 29  1  0  0  0  0
 20 31  2  0  0  0  0
 21 23  1  0  0  0  0
 22 24  1  6  0  0  0
 25 26  1  0  0  0  0
  1 32  1  0  0  0  0
  2 33  1  0  0  0  0
  3 34  1  0  0  0  0
  4 35  1  0  0  0  0
  5 36  1  0  0  0  0
  6 37  1  0  0  0  0
  7 38  1  0  0  0  0
  8 39  1  0  0  0  0
  9 40  1  0  0  0  0
 15 41  1  0  0  0  0
 16 42  1  0  0  0  0
 17 43  1  0  0  0  0
 18 44  1  0  0  0  0
 21 45  1  0  0  0  0
 21 46  1  0  0  0  0
 21 47  1  0  0  0  0
 22 48  1  0  0  0  0
 22 49  1  0  0  0  0
 23 50  1  0  0  0  0
 23 51  1  0  0  0  0
 24 52  1  0  0  0  0
 28 53  1  0  0  0  0
 29 54  1  0  0  0  0
M  END
> <clash_score>
0

> <docking_score>
-7.630961894989014

> <overlap_score>
0.9671335220336914

$$$$
BENZO_312_1
  -OEChem-08222022463D

 51 54  0     1  0  0  0  0  0999 V2000
    9.5890   -2.4950   23.2210 C   0  0  0  0  0  0  0  0  0  0  0  0
    8.2550   -1.0010   24.5520 C   0  0  0  0  0  0  0  0  0  0  0  0
    9.1890   -3.5540   24.0140 C   0  0  0  0  0  0  0  0  0  0  0  0
    7.8700   -2.0610   25.3550 C   0  0  0  0  0  0  0  0  0  0  0  0
   13.1058   -0.2791   23.5772 C   0  0  0  0  0  0  0  0  0  0  0  0
   14.1974   -0.7534   22.8836 C   0  0  0  0  0  0  0  0  0  0  0  0
   12.3642   -0.0940   21.3822 C   0  0  0  0  0  0  0  0  0  0  0  0
    9.1280   -1.2090   23.4870 C   0  0  0  0  0  0  0  0  0  0  0  0
   12.0437    0.1027   22.7075 C   0  0  0  0  0  0  0  0  0  0  0  0
    8.3450   -3.3440   25.0980 C   0  0  0  0  0  0  0  0  0  0  0  0
    5.7970    0.9500   18.6730 C   0  0  0  0  0  0  0  0  0  0  0  0
    7.2710   -0.1460   19.8310 C   0  0  0  0  0  0  0  0  0  0  0  0
    4.6610    1.7170   18.4380 C   0  0  0  0  0  0  0  0  0  0  0  0
    3.8860    2.1050   19.5250 C   0  0  0  0  0  0  0  0  0  0  0  0
    4.2460    1.7520   20.8250 C   0  0  0  0  0  0  0  0  0  0  0  0
    5.3890    1.0010   21.0690 C   0  0  0  0  0  0  0  0  0  0  0  0
    8.2013   -4.5561   27.2978 C   0  0  0  0  0  0  0  0  0  0  0  0
    9.0430    0.2380   21.4940 C   0  0  0  0  0  0  0  0  0  0  0  0
    7.8866   -6.0874   29.2882 C   0  0  0  0  0  0  0  0  0  0  0  0
   10.7220    0.6590   23.1850 C   0  0  0  0  0  0  0  0  0  0  0  0
    7.6334   -5.8726   27.8068 C   0  0  0  0  0  0  0  0  0  0  0  0
    9.5820   -0.1080   22.7000 C   0  0  1  0  0  0  0  0  0  0  0  0
    6.7100    0.3850   17.8100 N   0  0  0  0  0  0  0  0  0  0  0  0
    7.5840   -0.2700   18.5160 N   0  0  0  0  0  0  0  0  0  0  0  0
    6.1460    0.6070   19.9750 N   0  0  0  0  0  0  0  0  0  0  0  0
    7.9771   -4.4057   25.9197 N   0  0  0  0  0  0  0  0  0  0  0  0
    8.0950   -0.7700   20.8440 N   0  0  0  0  0  0  0  0  0  0  0  0
    8.7722   -3.7637   28.0399 O   0  0  0  0  0  0  0  0  0  0  0  0
    9.2950    1.3000   20.9480 O   0  0  0  0  0  0  0  0  0  0  0  0
   13.9398   -0.7369   21.1908 S   0  0  0  0  0  0  0  0  0  0  0  0
   10.2695   -2.6718   22.3873 H   0  0  0  0  0  0  0  0  0  0  0  0
    7.8712   -0.0014   24.7587 H   0  0  0  0  0  0  0  0  0  0  0  0
    9.5431   -4.5618   23.7801 H   0  0  0  0  0  0  0  0  0  0  0  0
    7.1923   -1.8823   26.1912 H   0  0  0  0  0  0  0  0  0  0  0  0
   13.0750   -0.2107   24.6573 H   0  0  0  0  0  0  0  0  0  0  0  0
   15.1341   -1.1080   23.2899 H   0  0  0  0  0  0  0  0  0  0  0  0
   11.7521    0.1087   20.5143 H   0  0  0  0  0  0  0  0  0  0  0  0
    4.3710    2.0145   17.4451 H   0  0  0  0  0  0  0  0  0  0  0  0
    2.9929    2.6891   19.3400 H   0  0  0  0  0  0  0  0  0  0  0  0
    3.6320    2.0596   21.6814 H   0  0  0  0  0  0  0  0  0  0  0  0
    5.6863    0.7288   22.0575 H   0  0  0  0  0  0  0  0  0  0  0  0
    8.9592   -6.0819   29.5087 H   0  0  0  0  0  0  0  0  0  0  0  0
    7.4764   -7.0498   29.6093 H   0  0  0  0  0  0  0  0  0  0  0  0
    7.4171   -5.2990   29.8857 H   0  0  0  0  0  0  0  0  0  0  0  0
   10.7266    0.7141   24.2815 H   0  0  0  0  0  0  0  0  0  0  0  0
   10.6502    1.7003   22.8412 H   0  0  0  0  0  0  0  0  0  0  0  0
    6.5542   -5.8827   27.6154 H   0  0  0  0  0  0  0  0  0  0  0  0
    8.0873   -6.6908   27.2359 H   0  0  0  0  0  0  0  0  0  0  0  0
    8.7027    0.7972   23.4026 H   0  0  0  0  0  0  0  0  0  0  0  0
    7.4775   -5.1796   25.4664 H   0  0  0  0  0  0  0  0  0  0  0  0
    8.0706   -1.6189   21.0730 H   0  0  0  0  0  0  0  0  0  0  0  0
  1  3  2  0  0  0  0
  1  8  1  0  0  0  0
  2  4  1  0  0  0  0
  2  8  2  0  0  0  0
  3 10  1  0  0  0  0
  4 10  2  0  0  0  0
  5  6  2  0  0  0  0
  5  9  1  0  0  0  0
  6 30  1  0  0  0  0
  7  9  2  0  0  0  0
  7 30  1  0  0  0  0
  8 22  1  0  0  0  0
  9 20  1  0  0  0  0
 10 26  1  0  0  0  0
 11 13  1  0  0  0  0
 11 23  2  0  0  0  0
 11 25  1  0  0  0  0
 12 24  2  0  0  0  0
 12 25  1  0  0  0  0
 12 27  1  0  0  0  0
 13 14  2  0  0  0  0
 14 15  1  0  0  0  0
 15 16  2  0  0  0  0
 16 25  1  0  0  0  0
 17 21  1  0  0  0  0
 17 26  1  0  0  0  0
 17 28  2  0  0  0  0
 18 22  1  0  0  0  0
 18 27  1  0  0  0  0
 18 29  2  0  0  0  0
 19 21  1  0  0  0  0
 20 22  1  1  0  0  0
 23 24  1  0  0  0  0
  1 31  1  0  0  0  0
  2 32  1  0  0  0  0
  3 33  1  0  0  0  0
  4 34  1  0  0  0  0
  5 35  1  0  0  0  0
  6 36  1  0  0  0  0
  7 37  1  0  0  0  0
 13 38  1  0  0  0  0
 14 39  1  0  0  0  0
 15 40  1  0  0  0  0
 16 41  1  0  0  0  0
 19 42  1  0  0  0  0
 19 43  1  0  0  0  0
 19 44  1  0  0  0  0
 20 45  1  0  0  0  0
 20 46  1  0  0  0  0
 21 47  1  0  0  0  0
 21 48  1  0  0  0  0
 22 49  1  0  0  0  0
 26 50  1  0  0  0  0
 27 51  1  0  0  0  0
M  END
> <clash_score>
0

> <docking_score>
-7.356232643127441

> <overlap_score>
0.9602608680725098

$$$$
BENZO_312_2
  -OEChem-08222022463D

 51 54  0     1  0  0  0  0  0999 V2000
    9.5890   -2.4950   23.2210 C   0  0  0  0  0  0  0  0  0  0  0  0
    8.2550   -1.0010   24.5520 C   0  0  0  0  0  0  0  0  0  0  0  0
    9.1890   -3.5540   24.0140 C   0  0  0  0  0  0  0  0  0  0  0  0
    7.8700   -2.0610   25.3550 C   0  0  0  0  0  0  0  0  0  0  0  0
   12.0393    0.1762   25.3640 C   0  0  0  0  0  0  0  0  0  0  0  0
   12.9049   -0.7459   25.9099 C   0  0  0  0  0  0  0  0  0  0  0  0
   12.2520   -1.3384   23.6137 C   0  0  0  0  0  0  0  0  0  0  0  0
    9.1280   -1.2090   23.4870 C   0  0  0  0  0  0  0  0  0  0  0  0
   11.6609   -0.1670   24.0339 C   0  0  0  0  0  0  0  0  0  0  0  0
    8.3450   -3.3440   25.0980 C   0  0  0  0  0  0  0  0  0  0  0  0
    5.7970    0.9500   18.6730 C   0  0  0  0  0  0  0  0  0  0  0  0
    7.2710   -0.1460   19.8310 C   0  0  0  0  0  0  0  0  0  0  0  0
    4.6610    1.7170   18.4380 C   0  0  0  0  0  0  0  0  0  0  0  0
    3.8860    2.1050   19.5250 C   0  0  0  0  0  0  0  0  0  0  0  0
    4.2460    1.7520   20.8250 C   0  0  0  0  0  0  0  0  0  0  0  0
    5.3890    1.0010   21.0690 C   0  0  0  0  0  0  0  0  0  0  0  0
    7.1409   -4.3822   27.0477 C   0  0  0  0  0  0  0  0  0  0  0  0
    9.0430    0.2380   21.4940 C   0  0  0  0  0  0  0  0  0  0  0  0
    8.0778   -6.0689   28.6857 C   0  0  0  0  0  0  0  0  0  0  0  0
   10.7220    0.6590   23.1850 C   0  0  0  0  0  0  0  0  0  0  0  0
    7.0016   -5.7690   27.6578 C   0  0  0  0  0  0  0  0  0  0  0  0
    9.5820   -0.1080   22.7000 C   0  0  2  0  0  0  0  0  0  0  0  0
    6.7100    0.3850   17.8100 N   0  0  0  0  0  0  0  0  0  0  0  0
    7.5840   -0.2700   18.5160 N   0  0  0  0  0  0  0  0  0  0  0  0
    6.1460    0.6070   19.9750 N   0  0  0  0  0  0  0  0  0  0  0  0
    7.9771   -4.4057   25.9197 N   0  0  0  0  0  0  0  0  0  0  0  0
    8.0950   -0.7700   20.8440 N   0  0  0  0  0  0  0  0  0  0  0  0
    6.5731   -3.4033   27.5208 O   0  0  0  0  0  0  0  0  0  0  0  0
    9.2950    1.3000   20.9480 O   0  0  0  0  0  0  0  0  0  0  0  0
   13.2582   -2.0191   24.8206 S   0  0  0  0  0  0  0  0  0  0  0  0
   10.2695   -2.6718   22.3873 H   0  0  0  0  0  0  0  0  0  0  0  0
    7.8712   -0.0014   24.7587 H   0  0  0  0  0  0  0  0  0  0  0  0
    9.5431   -4.5618   23.7801 H   0  0  0  0  0  0  0  0  0  0  0  0
    7.1923   -1.8823   26.1912 H   0  0  0  0  0  0  0  0  0  0  0  0
   11.6967    1.0541   25.8970 H   0  0  0  0  0  0  0  0  0  0  0  0
   13.3474   -0.7326   26.8960 H   0  0  0  0  0  0  0  0  0  0  0  0
   12.1448   -1.8296   22.6565 H   0  0  0  0  0  0  0  0  0  0  0  0
    4.3710    2.0145   17.4451 H   0  0  0  0  0  0  0  0  0  0  0  0
    2.9929    2.6891   19.3400 H   0  0  0  0  0  0  0  0  0  0  0  0
    3.6320    2.0596   21.6814 H   0  0  0  0  0  0  0  0  0  0  0  0
    5.6863    0.7288   22.0575 H   0  0  0  0  0  0  0  0  0  0  0  0
    9.0761   -6.0014   28.2409 H   0  0  0  0  0  0  0  0  0  0  0  0
    7.9501   -7.0787   29.0876 H   0  0  0  0  0  0  0  0  0  0  0  0
    8.0333   -5.3606   29.5196 H   0  0  0  0  0  0  0  0  0  0  0  0
   10.3958    1.5383   23.7557 H   0  0  0  0  0  0  0  0  0  0  0  0
   11.2964    1.0584   22.3376 H   0  0  0  0  0  0  0  0  0  0  0  0
    6.0150   -5.8436   28.1294 H   0  0  0  0  0  0  0  0  0  0  0  0
    7.0495   -6.5099   26.8514 H   0  0  0  0  0  0  0  0  0  0  0  0
   10.5413   -0.9955   22.0233 H   0  0  0  0  0  0  0  0  0  0  0  0
    8.3622   -5.3252   25.6744 H   0  0  0  0  0  0  0  0  0  0  0  0
    8.0706   -1.6189   21.0730 H   0  0  0  0  0  0  0  0  0  0  0  0
  1  3  2  0  0  0  0
  1  8  1  0  0  0  0
  2  4  1  0  0  0  0
  2  8  2  0  0  0  0
  3 10  1  0  0  0  0
  4 10  2  0  0  0  0
  5  6  2  0  0  0  0
  5  9  1  0  0  0  0
  6 30  1  0  0  0  0
  7  9  2  0  0  0  0
  7 30  1  0  0  0  0
  8 22  1  0  0  0  0
  9 20  1  0  0  0  0
 10 26  1  0  0  0  0
 11 13  1  0  0  0  0
 11 23  2  0  0  0  0
 11 25  1  0  0  0  0
 12 24  2  0  0  0  0
 12 25  1  0  0  0  0
 12 27  1  0  0  0  0
 13 14  2  0  0  0  0
 14 15  1  0  0  0  0
 15 16  2  0  0  0  0
 16 25  1  0  0  0  0
 17 21  1  0  0  0  0
 17 26  1  0  0  0  0
 17 28  2  0  0  0  0
 18 22  1  0  0  0  0
 18 27  1  0  0  0  0
 18 29  2  0  0  0  0
 19 21  1  0  0  0  0
 20 22  1  6  0  0  0
 23 24  1  0  0  0  0
  1 31  1  0  0  0  0
  2 32  1  0  0  0  0
  3 33  1  0  0  0  0
  4 34  1  0  0  0  0
  5 35  1  0  0  0  0
  6 36  1  0  0  0  0
  7 37  1  0  0  0  0
 13 38  1  0  0  0  0
 14 39  1  0  0  0  0
 15 40  1  0  0  0  0
 16 41  1  0  0  0  0
 19 42  1  0  0  0  0
 19 43  1  0  0  0  0
 19 44  1  0  0  0  0
 20 45  1  0  0  0  0
 20 46  1  0  0  0  0
 21 47  1  0  0  0  0
 21 48  1  0  0  0  0
 22 49  1  0  0  0  0
 26 50  1  0  0  0  0
 27 51  1  0  0  0  0
M  END
> <clash_score>
0

> <docking_score>
-5.141160488128662

> <overlap_score>
0.8939453363418579

$$$$
BENZO_314_1
  -OEChem-08222022463D

 54 57  0     1  0  0  0  0  0999 V2000
   13.8165    0.0398   21.0674 C   0  0  0  0  0  0  0  0  0  0  0  0
   12.5963    0.5519   21.5081 C   0  0  0  0  0  0  0  0  0  0  0  0
    9.5890   -2.4950   23.2210 C   0  0  0  0  0  0  0  0  0  0  0  0
    8.2550   -1.0010   24.5520 C   0  0  0  0  0  0  0  0  0  0  0  0
    9.1890   -3.5540   24.0140 C   0  0  0  0  0  0  0  0  0  0  0  0
    7.8700   -2.0610   25.3550 C   0  0  0  0  0  0  0  0  0  0  0  0
   14.4843   -0.9216   21.8261 C   0  0  0  0  0  0  0  0  0  0  0  0
   12.7115   -0.8586   23.4663 C   0  0  0  0  0  0  0  0  0  0  0  0
    9.1280   -1.2090   23.4870 C   0  0  0  0  0  0  0  0  0  0  0  0
   12.0437    0.1027   22.7075 C   0  0  0  0  0  0  0  0  0  0  0  0
    8.3450   -3.3440   25.0980 C   0  0  0  0  0  0  0  0  0  0  0  0
   13.9318   -1.3708   23.0255 C   0  0  0  0  0  0  0  0  0  0  0  0
    5.7970    0.9500   18.6730 C   0  0  0  0  0  0  0  0  0  0  0  0
    7.2710   -0.1460   19.8310 C   0  0  0  0  0  0  0  0  0  0  0  0
    4.6610    1.7170   18.4380 C   0  0  0  0  0  0  0  0  0  0  0  0
    3.8860    2.1050   19.5250 C   0  0  0  0  0  0  0  0  0  0  0  0
    4.2460    1.7520   20.8250 C   0  0  0  0  0  0  0  0  0  0  0  0
    5.3890    1.0010   21.0690 C   0  0  0  0  0  0  0  0  0  0  0  0
    8.2013   -4.5561   27.2978 C   0  0  0  0  0  0  0  0  0  0  0  0
    9.0430    0.2380   21.4940 C   0  0  0  0  0  0  0  0  0  0  0  0
    7.8866   -6.0874   29.2882 C   0  0  0  0  0  0  0  0  0  0  0  0
   10.7220    0.6590   23.1850 C   0  0  0  0  0  0  0  0  0  0  0  0
    7.6334   -5.8726   27.8068 C   0  0  0  0  0  0  0  0  0  0  0  0
    9.5820   -0.1080   22.7000 C   0  0  1  0  0  0  0  0  0  0  0  0
    6.7100    0.3850   17.8100 N   0  0  0  0  0  0  0  0  0  0  0  0
    7.5840   -0.2700   18.5160 N   0  0  0  0  0  0  0  0  0  0  0  0
    6.1460    0.6070   19.9750 N   0  0  0  0  0  0  0  0  0  0  0  0
    7.9771   -4.4057   25.9197 N   0  0  0  0  0  0  0  0  0  0  0  0
    8.0950   -0.7700   20.8440 N   0  0  0  0  0  0  0  0  0  0  0  0
    8.7722   -3.7637   28.0399 O   0  0  0  0  0  0  0  0  0  0  0  0
    9.2950    1.3000   20.9480 O   0  0  0  0  0  0  0  0  0  0  0  0
   14.7567   -2.5560   23.9617 Cl  0  0  0  0  0  0  0  0  0  0  0  0
   14.2465    0.3899   20.1334 H   0  0  0  0  0  0  0  0  0  0  0  0
   12.0830    1.3007   20.9105 H   0  0  0  0  0  0  0  0  0  0  0  0
   10.2695   -2.6718   22.3873 H   0  0  0  0  0  0  0  0  0  0  0  0
    7.8712   -0.0014   24.7587 H   0  0  0  0  0  0  0  0  0  0  0  0
    9.5431   -4.5618   23.7801 H   0  0  0  0  0  0  0  0  0  0  0  0
    7.1923   -1.8823   26.1912 H   0  0  0  0  0  0  0  0  0  0  0  0
   15.4348   -1.3117   21.4704 H   0  0  0  0  0  0  0  0  0  0  0  0
   12.2763   -1.2059   24.4005 H   0  0  0  0  0  0  0  0  0  0  0  0
    4.3710    2.0145   17.4451 H   0  0  0  0  0  0  0  0  0  0  0  0
    2.9929    2.6891   19.3400 H   0  0  0  0  0  0  0  0  0  0  0  0
    3.6320    2.0596   21.6814 H   0  0  0  0  0  0  0  0  0  0  0  0
    5.6863    0.7288   22.0575 H   0  0  0  0  0  0  0  0  0  0  0  0
    8.9592   -6.0819   29.5087 H   0  0  0  0  0  0  0  0  0  0  0  0
    7.4764   -7.0498   29.6093 H   0  0  0  0  0  0  0  0  0  0  0  0
    7.4171   -5.2990   29.8857 H   0  0  0  0  0  0  0  0  0  0  0  0
   10.7266    0.7141   24.2815 H   0  0  0  0  0  0  0  0  0  0  0  0
   10.6502    1.7003   22.8412 H   0  0  0  0  0  0  0  0  0  0  0  0
    6.5542   -5.8827   27.6154 H   0  0  0  0  0  0  0  0  0  0  0  0
    8.0873   -6.6908   27.2359 H   0  0  0  0  0  0  0  0  0  0  0  0
    8.7027    0.7972   23.4026 H   0  0  0  0  0  0  0  0  0  0  0  0
    7.4775   -5.1796   25.4664 H   0  0  0  0  0  0  0  0  0  0  0  0
    8.0706   -1.6189   21.0730 H   0  0  0  0  0  0  0  0  0  0  0  0
  1  2  2  0  0  0  0
  1  7  1  0  0  0  0
  2 10  1  0  0  0  0
  3  5  2  0  0  0  0
  3  9  1  0  0  0  0
  4  6  1  0  0  0  0
  4  9  2  0  0  0  0
  5 11  1  0  0  0  0
  6 11  2  0  0  0  0
  7 12  2  0  0  0  0
  8 10  2  0  0  0  0
  8 12  1  0  0  0  0
  9 24  1  0  0  0  0
 10 22  1  0  0  0  0
 11 28  1  0  0  0  0
 12 32  1  0  0  0  0
 13 15  1  0  0  0  0
 13 25  2  0  0  0  0
 13 27  1  0  0  0  0
 14 26  2  0  0  0  0
 14 27  1  0  0  0  0
 14 29  1  0  0  0  0
 15 16  2  0  0  0  0
 16 17  1  0  0  0  0
 17 18  2  0  0  0  0
 18 27  1  0  0  0  0
 19 23  1  0  0  0  0
 19 28  1  0  0  0  0
 19 30  2  0  0  0  0
 20 24  1  0  0  0  0
 20 29  1  0  0  0  0
 20 31  2  0  0  0  0
 21 23  1  0  0  0  0
 22 24  1  1  0  0  0
 25 26  1  0  0  0  0
  1 33  1  0  0  0  0
  2 34  1  0  0  0  0
  3 35  1  0  0  0  0
  4 36  1  0  0  0  0
  5 37  1  0  0  0  0
  6 38  1  0  0  0  0
  7 39  1  0  0  0  0
  8 40  1  0  0  0  0
 15 41  1  0  0  0  0
 16 42  1  0  0  0  0
 17 43  1  0  0  0  0
 18 44  1  0  0  0  0
 21 45  1  0  0  0  0
 21 46  1  0  0  0  0
 21 47  1  0  0  0  0
 22 48  1  0  0  0  0
 22 49  1  0  0  0  0
 23 50  1  0  0  0  0
 23 51  1  0  0  0  0
 24 52  1  0  0  0  0
 28 53  1  0  0  0  0
 29 54  1  0  0  0  0
M  END
> <clash_score>
0

> <docking_score>
-6.744294166564941

> <overlap_score>
0.9780052304267883

$$$$
BENZO_315_2
  -OEChem-08222022463D

 54 57  0     1  0  0  0  0  0999 V2000
    9.5890   -2.4950   23.2210 C   0  0  0  0  0  0  0  0  0  0  0  0
    8.2550   -1.0010   24.5520 C   0  0  0  0  0  0  0  0  0  0  0  0
    9.1890   -3.5540   24.0140 C   0  0  0  0  0  0  0  0  0  0  0  0
    7.8700   -2.0610   25.3550 C   0  0  0  0  0  0  0  0  0  0  0  0
   12.1294   -0.7684   24.8759 C   0  0  0  0  0  0  0  0  0  0  0  0
   12.9208   -0.6622   22.8272 C   0  0  0  0  0  0  0  0  0  0  0  0
    9.1280   -1.2090   23.4870 C   0  0  0  0  0  0  0  0  0  0  0  0
   11.8786   -0.2190   23.6043 C   0  0  0  0  0  0  0  0  0  0  0  0
    8.3450   -3.3440   25.0980 C   0  0  0  0  0  0  0  0  0  0  0  0
    5.7970    0.9500   18.6730 C   0  0  0  0  0  0  0  0  0  0  0  0
    7.2710   -0.1460   19.8310 C   0  0  0  0  0  0  0  0  0  0  0  0
    4.6610    1.7170   18.4380 C   0  0  0  0  0  0  0  0  0  0  0  0
    3.8860    2.1050   19.5250 C   0  0  0  0  0  0  0  0  0  0  0  0
    4.2460    1.7520   20.8250 C   0  0  0  0  0  0  0  0  0  0  0  0
    5.3890    1.0010   21.0690 C   0  0  0  0  0  0  0  0  0  0  0  0
    7.6593   -4.3764   27.2873 C   0  0  0  0  0  0  0  0  0  0  0  0
    9.0430    0.2380   21.4940 C   0  0  0  0  0  0  0  0  0  0  0  0
    8.4366   -6.7643   27.6026 C   0  0  0  0  0  0  0  0  0  0  0  0
   14.9196   -2.1033   23.2819 C   0  0  0  0  0  0  0  0  0  0  0  0
   10.7220    0.6590   23.1850 C   0  0  0  0  0  0  0  0  0  0  0  0
    7.3105   -5.7656   27.8005 C   0  0  0  0  0  0  0  0  0  0  0  0
    9.5820   -0.1080   22.7000 C   0  0  2  0  0  0  0  0  0  0  0  0
   13.2434   -1.5045   24.9090 N   0  0  0  0  0  0  0  0  0  0  0  0
    6.7100    0.3850   17.8100 N   0  0  0  0  0  0  0  0  0  0  0  0
    7.5840   -0.2700   18.5160 N   0  0  0  0  0  0  0  0  0  0  0  0
   13.7018   -1.4208   23.6485 N   0  0  0  0  0  0  0  0  0  0  0  0
    6.1460    0.6070   19.9750 N   0  0  0  0  0  0  0  0  0  0  0  0
    7.9771   -4.4057   25.9197 N   0  0  0  0  0  0  0  0  0  0  0  0
    8.0950   -0.7700   20.8440 N   0  0  0  0  0  0  0  0  0  0  0  0
    7.6481   -3.3912   28.0178 O   0  0  0  0  0  0  0  0  0  0  0  0
    9.2950    1.3000   20.9480 O   0  0  0  0  0  0  0  0  0  0  0  0
   10.2695   -2.6718   22.3873 H   0  0  0  0  0  0  0  0  0  0  0  0
    7.8712   -0.0014   24.7587 H   0  0  0  0  0  0  0  0  0  0  0  0
    9.5431   -4.5618   23.7801 H   0  0  0  0  0  0  0  0  0  0  0  0
    7.1923   -1.8823   26.1912 H   0  0  0  0  0  0  0  0  0  0  0  0
   11.5479   -0.6652   25.7811 H   0  0  0  0  0  0  0  0  0  0  0  0
   13.1664   -0.5073   21.7853 H   0  0  0  0  0  0  0  0  0  0  0  0
    4.3710    2.0145   17.4451 H   0  0  0  0  0  0  0  0  0  0  0  0
    2.9929    2.6891   19.3400 H   0  0  0  0  0  0  0  0  0  0  0  0
    3.6320    2.0596   21.6814 H   0  0  0  0  0  0  0  0  0  0  0  0
    5.6863    0.7288   22.0575 H   0  0  0  0  0  0  0  0  0  0  0  0
    8.6972   -6.8584   26.5433 H   0  0  0  0  0  0  0  0  0  0  0  0
    8.1397   -7.7513   27.9706 H   0  0  0  0  0  0  0  0  0  0  0  0
    9.3367   -6.4542   28.1435 H   0  0  0  0  0  0  0  0  0  0  0  0
   15.7545   -1.4186   23.4527 H   0  0  0  0  0  0  0  0  0  0  0  0
   15.0313   -3.0027   23.8939 H   0  0  0  0  0  0  0  0  0  0  0  0
   14.8692   -2.3913   22.2281 H   0  0  0  0  0  0  0  0  0  0  0  0
   10.4369    1.3080   24.0233 H   0  0  0  0  0  0  0  0  0  0  0  0
   11.0815    1.3384   22.3997 H   0  0  0  0  0  0  0  0  0  0  0  0
    7.0709   -5.6917   28.8675 H   0  0  0  0  0  0  0  0  0  0  0  0
    6.4147   -6.1156   27.2747 H   0  0  0  0  0  0  0  0  0  0  0  0
   10.5413   -0.9955   22.0233 H   0  0  0  0  0  0  0  0  0  0  0  0
    7.9296   -5.3298   25.4748 H   0  0  0  0  0  0  0  0  0  0  0  0
    8.0706   -1.6189   21.0730 H   0  0  0  0  0  0  0  0  0  0  0  0
  1  3  2  0  0  0  0
  1  7  1  0  0  0  0
  2  4  1  0  0  0  0
  2  7  2  0  0  0  0
  3  9  1  0  0  0  0
  4  9  2  0  0  0  0
  5  8  1  0  0  0  0
  5 23  2  0  0  0  0
  6  8  2  0  0  0  0
  6 26  1  0  0  0  0
  7 22  1  0  0  0  0
  8 20  1  0  0  0  0
  9 28  1  0  0  0  0
 10 12  1  0  0  0  0
 10 24  2  0  0  0  0
 10 27  1  0  0  0  0
 11 25  2  0  0  0  0
 11 27  1  0  0  0  0
 11 29  1  0  0  0  0
 12 13  2  0  0  0  0
 13 14  1  0  0  0  0
 14 15  2  0  0  0  0
 15 27  1  0  0  0  0
 16 21  1  0  0  0  0
 16 28  1  0  0  0  0
 16 30  2  0  0  0  0
 17 22  1  0  0  0  0
 17 29  1  0  0  0  0
 17 31  2  0  0  0  0
 18 21  1  0  0  0  0
 19 26  1  0  0  0  0
 20 22  1  6  0  0  0
 23 26  1  0  0  0  0
 24 25  1  0  0  0  0
  1 32  1  0  0  0  0
  2 33  1  0  0  0  0
  3 34  1  0  0  0  0
  4 35  1  0  0  0  0
  5 36  1  0  0  0  0
  6 37  1  0  0  0  0
 12 38  1  0  0  0  0
 13 39  1  0  0  0  0
 14 40  1  0  0  0  0
 15 41  1  0  0  0  0
 18 42  1  0  0  0  0
 18 43  1  0  0  0  0
 18 44  1  0  0  0  0
 19 45  1  0  0  0  0
 19 46  1  0  0  0  0
 19 47  1  0  0  0  0
 20 48  1  0  0  0  0
 20 49  1  0  0  0  0
 21 50  1  0  0  0  0
 21 51  1  0  0  0  0
 22 52  1  0  0  0  0
 28 53  1  0  0  0  0
 29 54  1  0  0  0  0
M  END
> <clash_score>
0

> <docking_score>
-6.701144695281982

> <overlap_score>
0.9687265157699585

$$$$
BENZO_316_2
  -OEChem-08222022463D

 56 60  0     1  0  0  0  0  0999 V2000
    9.5890   -2.4950   23.2210 C   0  0  0  0  0  0  0  0  0  0  0  0
    8.2550   -1.0010   24.5520 C   0  0  0  0  0  0  0  0  0  0  0  0
    9.1890   -3.5540   24.0140 C   0  0  0  0  0  0  0  0  0  0  0  0
    7.8700   -2.0610   25.3550 C   0  0  0  0  0  0  0  0  0  0  0  0
   13.1119   -0.2538   23.5994 C   0  0  0  0  0  0  0  0  0  0  0  0
   14.2134   -0.7202   22.9163 C   0  0  0  0  0  0  0  0  0  0  0  0
   12.3853   -0.0855   21.3980 C   0  0  0  0  0  0  0  0  0  0  0  0
    9.1280   -1.2090   23.4870 C   0  0  0  0  0  0  0  0  0  0  0  0
   12.0528    0.1138   22.7200 C   0  0  0  0  0  0  0  0  0  0  0  0
    8.3450   -3.3440   25.0980 C   0  0  0  0  0  0  0  0  0  0  0  0
    5.7970    0.9500   18.6730 C   0  0  0  0  0  0  0  0  0  0  0  0
    7.2710   -0.1460   19.8310 C   0  0  0  0  0  0  0  0  0  0  0  0
    4.6610    1.7170   18.4380 C   0  0  0  0  0  0  0  0  0  0  0  0
    3.8860    2.1050   19.5250 C   0  0  0  0  0  0  0  0  0  0  0  0
    4.2460    1.7520   20.8250 C   0  0  0  0  0  0  0  0  0  0  0  0
    5.3890    1.0010   21.0690 C   0  0  0  0  0  0  0  0  0  0  0  0
    9.0430    0.2380   21.4940 C   0  0  0  0  0  0  0  0  0  0  0  0
    7.9496   -4.9537   28.7345 C   0  0  0  0  0  0  0  0  0  0  0  0
    6.8919   -4.0607   28.0818 C   0  0  0  0  0  0  0  0  0  0  0  0
    9.2470   -4.9693   27.9230 C   0  0  0  0  0  0  0  0  0  0  0  0
    6.6889   -4.4385   26.6147 C   0  0  0  0  0  0  0  0  0  0  0  0
    8.9871   -5.3207   26.4549 C   0  0  0  0  0  0  0  0  0  0  0  0
   10.7220    0.6590   23.1850 C   0  0  0  0  0  0  0  0  0  0  0  0
    9.5820   -0.1080   22.7000 C   0  0  2  0  0  0  0  0  0  0  0  0
    6.7100    0.3850   17.8100 N   0  0  0  0  0  0  0  0  0  0  0  0
    7.5840   -0.2700   18.5160 N   0  0  0  0  0  0  0  0  0  0  0  0
    6.1460    0.6070   19.9750 N   0  0  0  0  0  0  0  0  0  0  0  0
    7.9769   -4.4027   25.9163 N   0  0  0  0  0  0  0  0  0  0  0  0
    8.0950   -0.7700   20.8440 N   0  0  0  0  0  0  0  0  0  0  0  0
    9.2950    1.3000   20.9480 O   0  0  0  0  0  0  0  0  0  0  0  0
   13.9685   -0.7136   21.2215 S   0  0  0  0  0  0  0  0  0  0  0  0
   10.2684   -2.6719   22.3867 H   0  0  0  0  0  0  0  0  0  0  0  0
    7.8717   -0.0016   24.7596 H   0  0  0  0  0  0  0  0  0  0  0  0
    9.5443   -4.5616   23.7817 H   0  0  0  0  0  0  0  0  0  0  0  0
    7.1921   -1.8821   26.1908 H   0  0  0  0  0  0  0  0  0  0  0  0
   13.0722   -0.1810   24.6790 H   0  0  0  0  0  0  0  0  0  0  0  0
   15.1504   -1.0638   23.3312 H   0  0  0  0  0  0  0  0  0  0  0  0
   11.7779    0.1074   20.5246 H   0  0  0  0  0  0  0  0  0  0  0  0
    4.3710    2.0145   17.4451 H   0  0  0  0  0  0  0  0  0  0  0  0
    2.9929    2.6891   19.3400 H   0  0  0  0  0  0  0  0  0  0  0  0
    3.6320    2.0596   21.6814 H   0  0  0  0  0  0  0  0  0  0  0  0
    5.6863    0.7288   22.0575 H   0  0  0  0  0  0  0  0  0  0  0  0
    8.1558   -4.5961   29.7550 H   0  0  0  0  0  0  0  0  0  0  0  0
    7.5611   -5.9778   28.8324 H   0  0  0  0  0  0  0  0  0  0  0  0
    5.9459   -4.1594   28.6209 H   0  0  0  0  0  0  0  0  0  0  0  0
    7.2011   -3.0160   28.1536 H   0  0  0  0  0  0  0  0  0  0  0  0
    9.7290   -3.9880   27.9846 H   0  0  0  0  0  0  0  0  0  0  0  0
    9.9437   -5.6964   28.3562 H   0  0  0  0  0  0  0  0  0  0  0  0
    6.2543   -5.4402   26.5659 H   0  0  0  0  0  0  0  0  0  0  0  0
    5.9909   -3.7397   26.1451 H   0  0  0  0  0  0  0  0  0  0  0  0
    9.9128   -5.2367   25.8843 H   0  0  0  0  0  0  0  0  0  0  0  0
    8.6365   -6.3517   26.3987 H   0  0  0  0  0  0  0  0  0  0  0  0
   10.7177    0.7189   24.2812 H   0  0  0  0  0  0  0  0  0  0  0  0
   10.6426    1.6980   22.8361 H   0  0  0  0  0  0  0  0  0  0  0  0
    8.7036    0.8022   23.4008 H   0  0  0  0  0  0  0  0  0  0  0  0
    8.0917   -1.6083   21.0911 H   0  0  0  0  0  0  0  0  0  0  0  0
  1  3  2  0  0  0  0
  1  8  1  0  0  0  0
  2  4  1  0  0  0  0
  2  8  2  0  0  0  0
  3 10  1  0  0  0  0
  4 10  2  0  0  0  0
  5  6  2  0  0  0  0
  5  9  1  0  0  0  0
  6 31  1  0  0  0  0
  7  9  2  0  0  0  0
  7 31  1  0  0  0  0
  8 24  1  0  0  0  0
  9 23  1  0  0  0  0
 10 28  1  0  0  0  0
 11 13  1  0  0  0  0
 11 25  2  0  0  0  0
 11 27  1  0  0  0  0
 12 26  2  0  0  0  0
 12 27  1  0  0  0  0
 12 29  1  0  0  0  0
 13 14  2  0  0  0  0
 14 15  1  0  0  0  0
 15 16  2  0  0  0  0
 16 27  1  0  0  0  0
 17 24  1  6  0  0  0
 17 29  1  0  0  0  0
 17 30  2  0  0  0  0
 18 19  1  0  0  0  0
 18 20  1  0  0  0  0
 19 21  1  0  0  0  0
 20 22  1  0  0  0  0
 21 28  1  0  0  0  0
 22 28  1  0  0  0  0
 23 24  1  0  0  0  0
 25 26  1  0  0  0  0
  1 32  1  0  0  0  0
  2 33  1  0  0  0  0
  3 34  1  0  0  0  0
  4 35  1  0  0  0  0
  5 36  1  0  0  0  0
  6 37  1  0  0  0  0
  7 38  1  0  0  0  0
 13 39  1  0  0  0  0
 14 40  1  0  0  0  0
 15 41  1  0  0  0  0
 16 42  1  0  0  0  0
 18 43  1  0  0  0  0
 18 44  1  0  0  0  0
 19 45  1  0  0  0  0
 19 46  1  0  0  0  0
 20 47  1  0  0  0  0
 20 48  1  0  0  0  0
 21 49  1  0  0  0  0
 21 50  1  0  0  0  0
 22 51  1  0  0  0  0
 22 52  1  0  0  0  0
 23 53  1  0  0  0  0
 23 54  1  0  0  0  0
 24 55  1  0  0  0  0
 29 56  1  0  0  0  0
M  END
> <clash_score>
0

> <docking_score>
-7.5693359375

> <overlap_score>
0.946659505367279

$$$$
BENZO_316_1
  -OEChem-08222022463D

 56 60  0     1  0  0  0  0  0999 V2000
    9.5890   -2.4950   23.2210 C   0  0  0  0  0  0  0  0  0  0  0  0
    8.2550   -1.0010   24.5520 C   0  0  0  0  0  0  0  0  0  0  0  0
    9.1890   -3.5540   24.0140 C   0  0  0  0  0  0  0  0  0  0  0  0
    7.8700   -2.0610   25.3550 C   0  0  0  0  0  0  0  0  0  0  0  0
   12.0564    0.2022   25.3592 C   0  0  0  0  0  0  0  0  0  0  0  0
   12.9336   -0.7085   25.9059 C   0  0  0  0  0  0  0  0  0  0  0  0
   12.2727   -1.3216   23.6174 C   0  0  0  0  0  0  0  0  0  0  0  0
    9.1280   -1.2090   23.4870 C   0  0  0  0  0  0  0  0  0  0  0  0
   11.6734   -0.1530   24.0335 C   0  0  0  0  0  0  0  0  0  0  0  0
    8.3450   -3.3440   25.0980 C   0  0  0  0  0  0  0  0  0  0  0  0
    5.7970    0.9500   18.6730 C   0  0  0  0  0  0  0  0  0  0  0  0
    7.2710   -0.1460   19.8310 C   0  0  0  0  0  0  0  0  0  0  0  0
    4.6610    1.7170   18.4380 C   0  0  0  0  0  0  0  0  0  0  0  0
    3.8860    2.1050   19.5250 C   0  0  0  0  0  0  0  0  0  0  0  0
    4.2460    1.7520   20.8250 C   0  0  0  0  0  0  0  0  0  0  0  0
    5.3890    1.0010   21.0690 C   0  0  0  0  0  0  0  0  0  0  0  0
    9.0430    0.2380   21.4940 C   0  0  0  0  0  0  0  0  0  0  0  0
    7.9496   -4.9537   28.7345 C   0  0  0  0  0  0  0  0  0  0  0  0
    6.8919   -4.0607   28.0818 C   0  0  0  0  0  0  0  0  0  0  0  0
    9.2470   -4.9693   27.9230 C   0  0  0  0  0  0  0  0  0  0  0  0
    6.6889   -4.4385   26.6147 C   0  0  0  0  0  0  0  0  0  0  0  0
    8.9871   -5.3207   26.4549 C   0  0  0  0  0  0  0  0  0  0  0  0
   10.7220    0.6590   23.1850 C   0  0  0  0  0  0  0  0  0  0  0  0
    9.5820   -0.1080   22.7000 C   0  0  1  0  0  0  0  0  0  0  0  0
    6.7100    0.3850   17.8100 N   0  0  0  0  0  0  0  0  0  0  0  0
    7.5840   -0.2700   18.5160 N   0  0  0  0  0  0  0  0  0  0  0  0
    6.1460    0.6070   19.9750 N   0  0  0  0  0  0  0  0  0  0  0  0
    7.9769   -4.4027   25.9163 N   0  0  0  0  0  0  0  0  0  0  0  0
    8.0950   -0.7700   20.8440 N   0  0  0  0  0  0  0  0  0  0  0  0
    9.2950    1.3000   20.9480 O   0  0  0  0  0  0  0  0  0  0  0  0
   13.2921   -1.9853   24.8226 S   0  0  0  0  0  0  0  0  0  0  0  0
   10.2684   -2.6719   22.3867 H   0  0  0  0  0  0  0  0  0  0  0  0
    7.8717   -0.0016   24.7596 H   0  0  0  0  0  0  0  0  0  0  0  0
    9.5443   -4.5616   23.7817 H   0  0  0  0  0  0  0  0  0  0  0  0
    7.1921   -1.8821   26.1908 H   0  0  0  0  0  0  0  0  0  0  0  0
   11.7089    1.0804   25.8886 H   0  0  0  0  0  0  0  0  0  0  0  0
   13.3816   -0.6847   26.8892 H   0  0  0  0  0  0  0  0  0  0  0  0
   12.1644   -1.8199   22.6640 H   0  0  0  0  0  0  0  0  0  0  0  0
    4.3710    2.0145   17.4451 H   0  0  0  0  0  0  0  0  0  0  0  0
    2.9929    2.6891   19.3400 H   0  0  0  0  0  0  0  0  0  0  0  0
    3.6320    2.0596   21.6814 H   0  0  0  0  0  0  0  0  0  0  0  0
    5.6863    0.7288   22.0575 H   0  0  0  0  0  0  0  0  0  0  0  0
    8.1558   -4.5961   29.7550 H   0  0  0  0  0  0  0  0  0  0  0  0
    7.5611   -5.9778   28.8324 H   0  0  0  0  0  0  0  0  0  0  0  0
    5.9459   -4.1594   28.6209 H   0  0  0  0  0  0  0  0  0  0  0  0
    7.2011   -3.0160   28.1536 H   0  0  0  0  0  0  0  0  0  0  0  0
    9.7290   -3.9880   27.9846 H   0  0  0  0  0  0  0  0  0  0  0  0
    9.9437   -5.6964   28.3562 H   0  0  0  0  0  0  0  0  0  0  0  0
    6.2543   -5.4402   26.5659 H   0  0  0  0  0  0  0  0  0  0  0  0
    5.9909   -3.7397   26.1451 H   0  0  0  0  0  0  0  0  0  0  0  0
    9.9128   -5.2367   25.8843 H   0  0  0  0  0  0  0  0  0  0  0  0
    8.6365   -6.3517   26.3987 H   0  0  0  0  0  0  0  0  0  0  0  0
   10.3911    1.5389   23.7520 H   0  0  0  0  0  0  0  0  0  0  0  0
   11.2877    1.0581   22.3316 H   0  0  0  0  0  0  0  0  0  0  0  0
   10.5438   -0.9939   22.0202 H   0  0  0  0  0  0  0  0  0  0  0  0
    8.0917   -1.6083   21.0911 H   0  0  0  0  0  0  0  0  0  0  0  0
  1  3  2  0  0  0  0
  1  8  1  0  0  0  0
  2  4  1  0  0  0  0
  2  8  2  0  0  0  0
  3 10  1  0  0  0  0
  4 10  2  0  0  0  0
  5  6  2  0  0  0  0
  5  9  1  0  0  0  0
  6 31  1  0  0  0  0
  7  9  2  0  0  0  0
  7 31  1  0  0  0  0
  8 24  1  0  0  0  0
  9 23  1  0  0  0  0
 10 28  1  0  0  0  0
 11 13  1  0  0  0  0
 11 25  2  0  0  0  0
 11 27  1  0  0  0  0
 12 26  2  0  0  0  0
 12 27  1  0  0  0  0
 12 29  1  0  0  0  0
 13 14  2  0  0  0  0
 14 15  1  0  0  0  0
 15 16  2  0  0  0  0
 16 27  1  0  0  0  0
 17 24  1  1  0  0  0
 17 29  1  0  0  0  0
 17 30  2  0  0  0  0
 18 19  1  0  0  0  0
 18 20  1  0  0  0  0
 19 21  1  0  0  0  0
 20 22  1  0  0  0  0
 21 28  1  0  0  0  0
 22 28  1  0  0  0  0
 23 24  1  0  0  0  0
 25 26  1  0  0  0  0
  1 32  1  0  0  0  0
  2 33  1  0  0  0  0
  3 34  1  0  0  0  0
  4 35  1  0  0  0  0
  5 36  1  0  0  0  0
  6 37  1  0  0  0  0
  7 38  1  0  0  0  0
 13 39  1  0  0  0  0
 14 40  1  0  0  0  0
 15 41  1  0  0  0  0
 16 42  1  0  0  0  0
 18 43  1  0  0  0  0
 18 44  1  0  0  0  0
 19 45  1  0  0  0  0
 19 46  1  0  0  0  0
 20 47  1  0  0  0  0
 20 48  1  0  0  0  0
 21 49  1  0  0  0  0
 21 50  1  0  0  0  0
 22 51  1  0  0  0  0
 22 52  1  0  0  0  0
 23 53  1  0  0  0  0
 23 54  1  0  0  0  0
 24 55  1  0  0  0  0
 29 56  1  0  0  0  0
M  END
> <clash_score>
0

> <docking_score>
-6.220544815063477

> <overlap_score>
0.9137670397758484

$$$$
BENZO_317_1
  -OEChem-08222022463D

 59 63  0     1  0  0  0  0  0999 V2000
   14.0446   -1.7964   24.3813 C   0  0  0  0  0  0  0  0  0  0  0  0
   13.0634   -1.4503   25.3102 C   0  0  0  0  0  0  0  0  0  0  0  0
   13.9484   -1.3461   23.0646 C   0  0  0  0  0  0  0  0  0  0  0  0
   11.9858   -0.6540   24.9225 C   0  0  0  0  0  0  0  0  0  0  0  0
   12.8708   -0.5498   22.6769 C   0  0  0  0  0  0  0  0  0  0  0  0
    9.5890   -2.4950   23.2210 C   0  0  0  0  0  0  0  0  0  0  0  0
    8.2550   -1.0010   24.5520 C   0  0  0  0  0  0  0  0  0  0  0  0
    9.1890   -3.5540   24.0140 C   0  0  0  0  0  0  0  0  0  0  0  0
    7.8700   -2.0610   25.3550 C   0  0  0  0  0  0  0  0  0  0  0  0
   11.8895   -0.2037   23.6058 C   0  0  0  0  0  0  0  0  0  0  0  0
    9.1280   -1.2090   23.4870 C   0  0  0  0  0  0  0  0  0  0  0  0
    8.3450   -3.3440   25.0980 C   0  0  0  0  0  0  0  0  0  0  0  0
    5.7970    0.9500   18.6730 C   0  0  0  0  0  0  0  0  0  0  0  0
    7.2710   -0.1460   19.8310 C   0  0  0  0  0  0  0  0  0  0  0  0
    4.6610    1.7170   18.4380 C   0  0  0  0  0  0  0  0  0  0  0  0
    3.8860    2.1050   19.5250 C   0  0  0  0  0  0  0  0  0  0  0  0
    4.2460    1.7520   20.8250 C   0  0  0  0  0  0  0  0  0  0  0  0
    5.3890    1.0010   21.0690 C   0  0  0  0  0  0  0  0  0  0  0  0
    9.0430    0.2380   21.4940 C   0  0  0  0  0  0  0  0  0  0  0  0
    7.9496   -4.9537   28.7345 C   0  0  0  0  0  0  0  0  0  0  0  0
    6.8919   -4.0607   28.0818 C   0  0  0  0  0  0  0  0  0  0  0  0
    9.2470   -4.9693   27.9230 C   0  0  0  0  0  0  0  0  0  0  0  0
    6.6889   -4.4385   26.6147 C   0  0  0  0  0  0  0  0  0  0  0  0
    8.9871   -5.3207   26.4549 C   0  0  0  0  0  0  0  0  0  0  0  0
   10.7220    0.6590   23.1850 C   0  0  0  0  0  0  0  0  0  0  0  0
    9.5820   -0.1080   22.7000 C   0  0  1  0  0  0  0  0  0  0  0  0
    6.7100    0.3850   17.8100 N   0  0  0  0  0  0  0  0  0  0  0  0
    7.5840   -0.2700   18.5160 N   0  0  0  0  0  0  0  0  0  0  0  0
    6.1460    0.6070   19.9750 N   0  0  0  0  0  0  0  0  0  0  0  0
    7.9769   -4.4027   25.9163 N   0  0  0  0  0  0  0  0  0  0  0  0
    8.0950   -0.7700   20.8440 N   0  0  0  0  0  0  0  0  0  0  0  0
    9.2950    1.3000   20.9480 O   0  0  0  0  0  0  0  0  0  0  0  0
   14.8843   -2.4154   24.6836 H   0  0  0  0  0  0  0  0  0  0  0  0
   13.1388   -1.8000   26.3358 H   0  0  0  0  0  0  0  0  0  0  0  0
   14.7127   -1.6145   22.3413 H   0  0  0  0  0  0  0  0  0  0  0  0
   11.2259   -0.3895   25.6531 H   0  0  0  0  0  0  0  0  0  0  0  0
   12.8039   -0.2037   21.6488 H   0  0  0  0  0  0  0  0  0  0  0  0
   10.2684   -2.6719   22.3867 H   0  0  0  0  0  0  0  0  0  0  0  0
    7.8717   -0.0016   24.7596 H   0  0  0  0  0  0  0  0  0  0  0  0
    9.5443   -4.5616   23.7817 H   0  0  0  0  0  0  0  0  0  0  0  0
    7.1921   -1.8821   26.1908 H   0  0  0  0  0  0  0  0  0  0  0  0
    4.3710    2.0145   17.4451 H   0  0  0  0  0  0  0  0  0  0  0  0
    2.9929    2.6891   19.3400 H   0  0  0  0  0  0  0  0  0  0  0  0
    3.6320    2.0596   21.6814 H   0  0  0  0  0  0  0  0  0  0  0  0
    5.6863    0.7288   22.0575 H   0  0  0  0  0  0  0  0  0  0  0  0
    8.1558   -4.5961   29.7550 H   0  0  0  0  0  0  0  0  0  0  0  0
    7.5611   -5.9778   28.8324 H   0  0  0  0  0  0  0  0  0  0  0  0
    5.9459   -4.1594   28.6209 H   0  0  0  0  0  0  0  0  0  0  0  0
    7.2011   -3.0160   28.1536 H   0  0  0  0  0  0  0  0  0  0  0  0
    9.7290   -3.9880   27.9846 H   0  0  0  0  0  0  0  0  0  0  0  0
    9.9437   -5.6964   28.3562 H   0  0  0  0  0  0  0  0  0  0  0  0
    6.2543   -5.4402   26.5659 H   0  0  0  0  0  0  0  0  0  0  0  0
    5.9909   -3.7397   26.1451 H   0  0  0  0  0  0  0  0  0  0  0  0
    9.9128   -5.2367   25.8843 H   0  0  0  0  0  0  0  0  0  0  0  0
    8.6365   -6.3517   26.3987 H   0  0  0  0  0  0  0  0  0  0  0  0
   10.4315    1.3089   24.0208 H   0  0  0  0  0  0  0  0  0  0  0  0
   11.0719    1.3385   22.3955 H   0  0  0  0  0  0  0  0  0  0  0  0
   10.5438   -0.9939   22.0202 H   0  0  0  0  0  0  0  0  0  0  0  0
    8.0917   -1.6083   21.0911 H   0  0  0  0  0  0  0  0  0  0  0  0
  1  2  1  0  0  0  0
  1  3  2  0  0  0  0
  2  4  2  0  0  0  0
  3  5  1  0  0  0  0
  4 10  1  0  0  0  0
  5 10  2  0  0  0  0
  6  8  2  0  0  0  0
  6 11  1  0  0  0  0
  7  9  1  0  0  0  0
  7 11  2  0  0  0  0
  8 12  1  0  0  0  0
  9 12  2  0  0  0  0
 10 25  1  0  0  0  0
 11 26  1  0  0  0  0
 12 30  1  0  0  0  0
 13 15  1  0  0  0  0
 13 27  2  0  0  0  0
 13 29  1  0  0  0  0
 14 28  2  0  0  0  0
 14 29  1  0  0  0  0
 14 31  1  0  0  0  0
 15 16  2  0  0  0  0
 16 17  1  0  0  0  0
 17 18  2  0  0  0  0
 18 29  1  0  0  0  0
 19 26  1  1  0  0  0
 19 31  1  0  0  0  0
 19 32  2  0  0  0  0
 20 21  1  0  0  0  0
 20 22  1  0  0  0  0
 21 23  1  0  0  0  0
 22 24  1  0  0  0  0
 23 30  1  0  0  0  0
 24 30  1  0  0  0  0
 25 26  1  0  0  0  0
 27 28  1  0  0  0  0
  1 33  1  0  0  0  0
  2 34  1  0  0  0  0
  3 35  1  0  0  0  0
  4 36  1  0  0  0  0
  5 37  1  0  0  0  0
  6 38  1  0  0  0  0
  7 39  1  0  0  0  0
  8 40  1  0  0  0  0
  9 41  1  0  0  0  0
 15 42  1  0  0  0  0
 16 43  1  0  0  0  0
 17 44  1  0  0  0  0
 18 45  1  0  0  0  0
 20 46  1  0  0  0  0
 20 47  1  0  0  0  0
 21 48  1  0  0  0  0
 21 49  1  0  0  0  0
 22 50  1  0  0  0  0
 22 51  1  0  0  0  0
 23 52  1  0  0  0  0
 23 53  1  0  0  0  0
 24 54  1  0  0  0  0
 24 55  1  0  0  0  0
 25 56  1  0  0  0  0
 25 57  1  0  0  0  0
 26 58  1  0  0  0  0
 31 59  1  0  0  0  0
M  END
> <clash_score>
0

> <docking_score>
-8.412179946899414

> <overlap_score>
0.9715715050697327

$$$$
BENZO_314_2
  -OEChem-08222022463D

 54 57  0     1  0  0  0  0  0999 V2000
   13.0334   -1.4852   25.3072 C   0  0  0  0  0  0  0  0  0  0  0  0
   11.9669   -0.6740   24.9199 C   0  0  0  0  0  0  0  0  0  0  0  0
    9.5890   -2.4950   23.2210 C   0  0  0  0  0  0  0  0  0  0  0  0
    8.2550   -1.0010   24.5520 C   0  0  0  0  0  0  0  0  0  0  0  0
    9.1890   -3.5540   24.0140 C   0  0  0  0  0  0  0  0  0  0  0  0
    7.8700   -2.0610   25.3550 C   0  0  0  0  0  0  0  0  0  0  0  0
   14.0118   -1.8413   24.3790 C   0  0  0  0  0  0  0  0  0  0  0  0
   12.8570   -0.5751   22.6760 C   0  0  0  0  0  0  0  0  0  0  0  0
    9.1280   -1.2090   23.4870 C   0  0  0  0  0  0  0  0  0  0  0  0
   11.8786   -0.2190   23.6043 C   0  0  0  0  0  0  0  0  0  0  0  0
    8.3450   -3.3440   25.0980 C   0  0  0  0  0  0  0  0  0  0  0  0
   13.9235   -1.3863   23.0634 C   0  0  0  0  0  0  0  0  0  0  0  0
    5.7970    0.9500   18.6730 C   0  0  0  0  0  0  0  0  0  0  0  0
    7.2710   -0.1460   19.8310 C   0  0  0  0  0  0  0  0  0  0  0  0
    4.6610    1.7170   18.4380 C   0  0  0  0  0  0  0  0  0  0  0  0
    3.8860    2.1050   19.5250 C   0  0  0  0  0  0  0  0  0  0  0  0
    4.2460    1.7520   20.8250 C   0  0  0  0  0  0  0  0  0  0  0  0
    5.3890    1.0010   21.0690 C   0  0  0  0  0  0  0  0  0  0  0  0
    7.6593   -4.3764   27.2873 C   0  0  0  0  0  0  0  0  0  0  0  0
    9.0430    0.2380   21.4940 C   0  0  0  0  0  0  0  0  0  0  0  0
    8.4366   -6.7643   27.6026 C   0  0  0  0  0  0  0  0  0  0  0  0
   10.7220    0.6590   23.1850 C   0  0  0  0  0  0  0  0  0  0  0  0
    7.3105   -5.7656   27.8005 C   0  0  0  0  0  0  0  0  0  0  0  0
    9.5820   -0.1080   22.7000 C   0  0  2  0  0  0  0  0  0  0  0  0
    6.7100    0.3850   17.8100 N   0  0  0  0  0  0  0  0  0  0  0  0
    7.5840   -0.2700   18.5160 N   0  0  0  0  0  0  0  0  0  0  0  0
    6.1460    0.6070   19.9750 N   0  0  0  0  0  0  0  0  0  0  0  0
    7.9771   -4.4057   25.9197 N   0  0  0  0  0  0  0  0  0  0  0  0
    8.0950   -0.7700   20.8440 N   0  0  0  0  0  0  0  0  0  0  0  0
    7.6481   -3.3912   28.0178 O   0  0  0  0  0  0  0  0  0  0  0  0
    9.2950    1.3000   20.9480 O   0  0  0  0  0  0  0  0  0  0  0  0
   15.1303   -1.8270   21.9183 Cl  0  0  0  0  0  0  0  0  0  0  0  0
   13.1017   -1.8394   26.3318 H   0  0  0  0  0  0  0  0  0  0  0  0
   11.2091   -0.4015   25.6498 H   0  0  0  0  0  0  0  0  0  0  0  0
   10.2695   -2.6718   22.3873 H   0  0  0  0  0  0  0  0  0  0  0  0
    7.8712   -0.0014   24.7587 H   0  0  0  0  0  0  0  0  0  0  0  0
    9.5431   -4.5618   23.7801 H   0  0  0  0  0  0  0  0  0  0  0  0
    7.1923   -1.8823   26.1912 H   0  0  0  0  0  0  0  0  0  0  0  0
   14.8373   -2.4744   24.6949 H   0  0  0  0  0  0  0  0  0  0  0  0
   12.7839   -0.2174   21.6515 H   0  0  0  0  0  0  0  0  0  0  0  0
    4.3710    2.0145   17.4451 H   0  0  0  0  0  0  0  0  0  0  0  0
    2.9929    2.6891   19.3400 H   0  0  0  0  0  0  0  0  0  0  0  0
    3.6320    2.0596   21.6814 H   0  0  0  0  0  0  0  0  0  0  0  0
    5.6863    0.7288   22.0575 H   0  0  0  0  0  0  0  0  0  0  0  0
    8.6972   -6.8584   26.5433 H   0  0  0  0  0  0  0  0  0  0  0  0
    8.1397   -7.7513   27.9706 H   0  0  0  0  0  0  0  0  0  0  0  0
    9.3367   -6.4542   28.1435 H   0  0  0  0  0  0  0  0  0  0  0  0
   10.4369    1.3080   24.0233 H   0  0  0  0  0  0  0  0  0  0  0  0
   11.0815    1.3384   22.3997 H   0  0  0  0  0  0  0  0  0  0  0  0
    7.0709   -5.6917   28.8675 H   0  0  0  0  0  0  0  0  0  0  0  0
    6.4147   -6.1156   27.2747 H   0  0  0  0  0  0  0  0  0  0  0  0
   10.5413   -0.9955   22.0233 H   0  0  0  0  0  0  0  0  0  0  0  0
    7.9296   -5.3298   25.4748 H   0  0  0  0  0  0  0  0  0  0  0  0
    8.0706   -1.6189   21.0730 H   0  0  0  0  0  0  0  0  0  0  0  0
  1  2  2  0  0  0  0
  1  7  1  0  0  0  0
  2 10  1  0  0  0  0
  3  5  2  0  0  0  0
  3  9  1  0  0  0  0
  4  6  1  0  0  0  0
  4  9  2  0  0  0  0
  5 11  1  0  0  0  0
  6 11  2  0  0  0  0
  7 12  2  0  0  0  0
  8 10  2  0  0  0  0
  8 12  1  0  0  0  0
  9 24  1  0  0  0  0
 10 22  1  0  0  0  0
 11 28  1  0  0  0  0
 12 32  1  0  0  0  0
 13 15  1  0  0  0  0
 13 25  2  0  0  0  0
 13 27  1  0  0  0  0
 14 26  2  0  0  0  0
 14 27  1  0  0  0  0
 14 29  1  0  0  0  0
 15 16  2  0  0  0  0
 16 17  1  0  0  0  0
 17 18  2  0  0  0  0
 18 27  1  0  0  0  0
 19 23  1  0  0  0  0
 19 28  1  0  0  0  0
 19 30  2  0  0  0  0
 20 24  1  0  0  0  0
 20 29  1  0  0  0  0
 20 31  2  0  0  0  0
 21 23  1  0  0  0  0
 22 24  1  6  0  0  0
 25 26  1  0  0  0  0
  1 33  1  0  0  0  0
  2 34  1  0  0  0  0
  3 35  1  0  0  0  0
  4 36  1  0  0  0  0
  5 37  1  0  0  0  0
  6 38  1  0  0  0  0
  7 39  1  0  0  0  0
  8 40  1  0  0  0  0
 15 41  1  0  0  0  0
 16 42  1  0  0  0  0
 17 43  1  0  0  0  0
 18 44  1  0  0  0  0
 21 45  1  0  0  0  0
 21 46  1  0  0  0  0
 21 47  1  0  0  0  0
 22 48  1  0  0  0  0
 22 49  1  0  0  0  0
 23 50  1  0  0  0  0
 23 51  1  0  0  0  0
 24 52  1  0  0  0  0
 28 53  1  0  0  0  0
 29 54  1  0  0  0  0
M  END
> <clash_score>
0

> <docking_score>
-6.751853942871094

> <overlap_score>
0.9731013178825378

$$$$
BENZO_315_1
  -OEChem-08222022463D

 54 57  0     1  0  0  0  0  0999 V2000
    9.5890   -2.4950   23.2210 C   0  0  0  0  0  0  0  0  0  0  0  0
    8.2550   -1.0010   24.5520 C   0  0  0  0  0  0  0  0  0  0  0  0
    9.1890   -3.5540   24.0140 C   0  0  0  0  0  0  0  0  0  0  0  0
    7.8700   -2.0610   25.3550 C   0  0  0  0  0  0  0  0  0  0  0  0
   13.3358    0.5881   22.9844 C   0  0  0  0  0  0  0  0  0  0  0  0
   12.2530   -0.9934   21.9068 C   0  0  0  0  0  0  0  0  0  0  0  0
    9.1280   -1.2090   23.4870 C   0  0  0  0  0  0  0  0  0  0  0  0
   12.0437    0.1027   22.7075 C   0  0  0  0  0  0  0  0  0  0  0  0
    8.3450   -3.3440   25.0980 C   0  0  0  0  0  0  0  0  0  0  0  0
    5.7970    0.9500   18.6730 C   0  0  0  0  0  0  0  0  0  0  0  0
    7.2710   -0.1460   19.8310 C   0  0  0  0  0  0  0  0  0  0  0  0
    4.6610    1.7170   18.4380 C   0  0  0  0  0  0  0  0  0  0  0  0
    3.8860    2.1050   19.5250 C   0  0  0  0  0  0  0  0  0  0  0  0
    4.2460    1.7520   20.8250 C   0  0  0  0  0  0  0  0  0  0  0  0
    5.3890    1.0010   21.0690 C   0  0  0  0  0  0  0  0  0  0  0  0
    7.6593   -4.3764   27.2873 C   0  0  0  0  0  0  0  0  0  0  0  0
    9.0430    0.2380   21.4940 C   0  0  0  0  0  0  0  0  0  0  0  0
    6.9938   -5.7803   29.2852 C   0  0  0  0  0  0  0  0  0  0  0  0
   14.3107   -2.0972   20.9977 C   0  0  0  0  0  0  0  0  0  0  0  0
   10.7220    0.6590   23.1850 C   0  0  0  0  0  0  0  0  0  0  0  0
    7.3105   -5.7656   27.8005 C   0  0  0  0  0  0  0  0  0  0  0  0
    9.5820   -0.1080   22.7000 C   0  0  1  0  0  0  0  0  0  0  0  0
   14.2950   -0.1401   22.4067 N   0  0  0  0  0  0  0  0  0  0  0  0
    6.7100    0.3850   17.8100 N   0  0  0  0  0  0  0  0  0  0  0  0
    7.5840   -0.2700   18.5160 N   0  0  0  0  0  0  0  0  0  0  0  0
   13.6051   -1.0943   21.7588 N   0  0  0  0  0  0  0  0  0  0  0  0
    6.1460    0.6070   19.9750 N   0  0  0  0  0  0  0  0  0  0  0  0
    7.9771   -4.4057   25.9197 N   0  0  0  0  0  0  0  0  0  0  0  0
    8.0950   -0.7700   20.8440 N   0  0  0  0  0  0  0  0  0  0  0  0
    7.6481   -3.3912   28.0178 O   0  0  0  0  0  0  0  0  0  0  0  0
    9.2950    1.3000   20.9480 O   0  0  0  0  0  0  0  0  0  0  0  0
   10.2695   -2.6718   22.3873 H   0  0  0  0  0  0  0  0  0  0  0  0
    7.8712   -0.0014   24.7587 H   0  0  0  0  0  0  0  0  0  0  0  0
    9.5431   -4.5618   23.7801 H   0  0  0  0  0  0  0  0  0  0  0  0
    7.1923   -1.8823   26.1912 H   0  0  0  0  0  0  0  0  0  0  0  0
   13.6211    1.4413   23.5835 H   0  0  0  0  0  0  0  0  0  0  0  0
   11.5720   -1.6937   21.4423 H   0  0  0  0  0  0  0  0  0  0  0  0
    4.3710    2.0145   17.4451 H   0  0  0  0  0  0  0  0  0  0  0  0
    2.9929    2.6891   19.3400 H   0  0  0  0  0  0  0  0  0  0  0  0
    3.6320    2.0596   21.6814 H   0  0  0  0  0  0  0  0  0  0  0  0
    5.6863    0.7288   22.0575 H   0  0  0  0  0  0  0  0  0  0  0  0
    7.8426   -5.4138   29.8720 H   0  0  0  0  0  0  0  0  0  0  0  0
    6.7636   -6.7979   29.6157 H   0  0  0  0  0  0  0  0  0  0  0  0
    6.1311   -5.1444   29.5096 H   0  0  0  0  0  0  0  0  0  0  0  0
   14.4286   -1.7247   19.9767 H   0  0  0  0  0  0  0  0  0  0  0  0
   15.2879   -2.2795   21.4534 H   0  0  0  0  0  0  0  0  0  0  0  0
   13.7343   -3.0265   21.0026 H   0  0  0  0  0  0  0  0  0  0  0  0
   10.7266    0.7141   24.2815 H   0  0  0  0  0  0  0  0  0  0  0  0
   10.6502    1.7003   22.8412 H   0  0  0  0  0  0  0  0  0  0  0  0
    6.4455   -6.1365   27.2387 H   0  0  0  0  0  0  0  0  0  0  0  0
    8.1568   -6.4327   27.6005 H   0  0  0  0  0  0  0  0  0  0  0  0
    8.7027    0.7972   23.4026 H   0  0  0  0  0  0  0  0  0  0  0  0
    7.9296   -5.3298   25.4748 H   0  0  0  0  0  0  0  0  0  0  0  0
    8.0706   -1.6189   21.0730 H   0  0  0  0  0  0  0  0  0  0  0  0
  1  3  2  0  0  0  0
  1  7  1  0  0  0  0
  2  4  1  0  0  0  0
  2  7  2  0  0  0  0
  3  9  1  0  0  0  0
  4  9  2  0  0  0  0
  5  8  1  0  0  0  0
  5 23  2  0  0  0  0
  6  8  2  0  0  0  0
  6 26  1  0  0  0  0
  7 22  1  0  0  0  0
  8 20  1  0  0  0  0
  9 28  1  0  0  0  0
 10 12  1  0  0  0  0
 10 24  2  0  0  0  0
 10 27  1  0  0  0  0
 11 25  2  0  0  0  0
 11 27  1  0  0  0  0
 11 29  1  0  0  0  0
 12 13  2  0  0  0  0
 13 14  1  0  0  0  0
 14 15  2  0  0  0  0
 15 27  1  0  0  0  0
 16 21  1  0  0  0  0
 16 28  1  0  0  0  0
 16 30  2  0  0  0  0
 17 22  1  0  0  0  0
 17 29  1  0  0  0  0
 17 31  2  0  0  0  0
 18 21  1  0  0  0  0
 19 26  1  0  0  0  0
 20 22  1  1  0  0  0
 23 26  1  0  0  0  0
 24 25  1  0  0  0  0
  1 32  1  0  0  0  0
  2 33  1  0  0  0  0
  3 34  1  0  0  0  0
  4 35  1  0  0  0  0
  5 36  1  0  0  0  0
  6 37  1  0  0  0  0
 12 38  1  0  0  0  0
 13 39  1  0  0  0  0
 14 40  1  0  0  0  0
 15 41  1  0  0  0  0
 18 42  1  0  0  0  0
 18 43  1  0  0  0  0
 18 44  1  0  0  0  0
 19 45  1  0  0  0  0
 19 46  1  0  0  0  0
 19 47  1  0  0  0  0
 20 48  1  0  0  0  0
 20 49  1  0  0  0  0
 21 50  1  0  0  0  0
 21 51  1  0  0  0  0
 22 52  1  0  0  0  0
 28 53  1  0  0  0  0
 29 54  1  0  0  0  0
M  END
> <clash_score>
0

> <docking_score>
-9.417309761047363

> <overlap_score>
0.946826159954071

$$$$
BENZO_317_2
  -OEChem-08222022463D

 59 63  0     1  0  0  0  0  0999 V2000
   14.5084   -0.8935   21.8609 C   0  0  0  0  0  0  0  0  0  0  0  0
   14.4162   -0.2303   23.0845 C   0  0  0  0  0  0  0  0  0  0  0  0
   13.3727   -1.0531   21.0668 C   0  0  0  0  0  0  0  0  0  0  0  0
   13.1884    0.2733   23.5141 C   0  0  0  0  0  0  0  0  0  0  0  0
   12.1449   -0.5495   21.4964 C   0  0  0  0  0  0  0  0  0  0  0  0
    9.5890   -2.4950   23.2210 C   0  0  0  0  0  0  0  0  0  0  0  0
    8.2550   -1.0010   24.5520 C   0  0  0  0  0  0  0  0  0  0  0  0
    9.1890   -3.5540   24.0140 C   0  0  0  0  0  0  0  0  0  0  0  0
    7.8700   -2.0610   25.3550 C   0  0  0  0  0  0  0  0  0  0  0  0
   12.0528    0.1138   22.7200 C   0  0  0  0  0  0  0  0  0  0  0  0
    9.1280   -1.2090   23.4870 C   0  0  0  0  0  0  0  0  0  0  0  0
    8.3450   -3.3440   25.0980 C   0  0  0  0  0  0  0  0  0  0  0  0
    5.7970    0.9500   18.6730 C   0  0  0  0  0  0  0  0  0  0  0  0
    7.2710   -0.1460   19.8310 C   0  0  0  0  0  0  0  0  0  0  0  0
    4.6610    1.7170   18.4380 C   0  0  0  0  0  0  0  0  0  0  0  0
    3.8860    2.1050   19.5250 C   0  0  0  0  0  0  0  0  0  0  0  0
    4.2460    1.7520   20.8250 C   0  0  0  0  0  0  0  0  0  0  0  0
    5.3890    1.0010   21.0690 C   0  0  0  0  0  0  0  0  0  0  0  0
    9.0430    0.2380   21.4940 C   0  0  0  0  0  0  0  0  0  0  0  0
    7.9496   -4.9537   28.7345 C   0  0  0  0  0  0  0  0  0  0  0  0
    6.8919   -4.0607   28.0818 C   0  0  0  0  0  0  0  0  0  0  0  0
    9.2470   -4.9693   27.9230 C   0  0  0  0  0  0  0  0  0  0  0  0
    6.6889   -4.4385   26.6147 C   0  0  0  0  0  0  0  0  0  0  0  0
    8.9871   -5.3207   26.4549 C   0  0  0  0  0  0  0  0  0  0  0  0
   10.7220    0.6590   23.1850 C   0  0  0  0  0  0  0  0  0  0  0  0
    9.5820   -0.1080   22.7000 C   0  0  2  0  0  0  0  0  0  0  0  0
    6.7100    0.3850   17.8100 N   0  0  0  0  0  0  0  0  0  0  0  0
    7.5840   -0.2700   18.5160 N   0  0  0  0  0  0  0  0  0  0  0  0
    6.1460    0.6070   19.9750 N   0  0  0  0  0  0  0  0  0  0  0  0
    7.9769   -4.4027   25.9163 N   0  0  0  0  0  0  0  0  0  0  0  0
    8.0950   -0.7700   20.8440 N   0  0  0  0  0  0  0  0  0  0  0  0
    9.2950    1.3000   20.9480 O   0  0  0  0  0  0  0  0  0  0  0  0
   15.4647   -1.2844   21.5259 H   0  0  0  0  0  0  0  0  0  0  0  0
   15.3006   -0.1050   23.7024 H   0  0  0  0  0  0  0  0  0  0  0  0
   13.4443   -1.5684   20.1136 H   0  0  0  0  0  0  0  0  0  0  0  0
   13.1260    0.7885   24.4690 H   0  0  0  0  0  0  0  0  0  0  0  0
   11.2654   -0.6786   20.8711 H   0  0  0  0  0  0  0  0  0  0  0  0
   10.2684   -2.6719   22.3867 H   0  0  0  0  0  0  0  0  0  0  0  0
    7.8717   -0.0016   24.7596 H   0  0  0  0  0  0  0  0  0  0  0  0
    9.5443   -4.5616   23.7817 H   0  0  0  0  0  0  0  0  0  0  0  0
    7.1921   -1.8821   26.1908 H   0  0  0  0  0  0  0  0  0  0  0  0
    4.3710    2.0145   17.4451 H   0  0  0  0  0  0  0  0  0  0  0  0
    2.9929    2.6891   19.3400 H   0  0  0  0  0  0  0  0  0  0  0  0
    3.6320    2.0596   21.6814 H   0  0  0  0  0  0  0  0  0  0  0  0
    5.6863    0.7288   22.0575 H   0  0  0  0  0  0  0  0  0  0  0  0
    8.1558   -4.5961   29.7550 H   0  0  0  0  0  0  0  0  0  0  0  0
    7.5611   -5.9778   28.8324 H   0  0  0  0  0  0  0  0  0  0  0  0
    5.9459   -4.1594   28.6209 H   0  0  0  0  0  0  0  0  0  0  0  0
    7.2011   -3.0160   28.1536 H   0  0  0  0  0  0  0  0  0  0  0  0
    9.7290   -3.9880   27.9846 H   0  0  0  0  0  0  0  0  0  0  0  0
    9.9437   -5.6964   28.3562 H   0  0  0  0  0  0  0  0  0  0  0  0
    6.2543   -5.4402   26.5659 H   0  0  0  0  0  0  0  0  0  0  0  0
    5.9909   -3.7397   26.1451 H   0  0  0  0  0  0  0  0  0  0  0  0
    9.9128   -5.2367   25.8843 H   0  0  0  0  0  0  0  0  0  0  0  0
    8.6365   -6.3517   26.3987 H   0  0  0  0  0  0  0  0  0  0  0  0
   10.7177    0.7189   24.2812 H   0  0  0  0  0  0  0  0  0  0  0  0
   10.6426    1.6980   22.8361 H   0  0  0  0  0  0  0  0  0  0  0  0
    8.7036    0.8022   23.4008 H   0  0  0  0  0  0  0  0  0  0  0  0
    8.0917   -1.6083   21.0911 H   0  0  0  0  0  0  0  0  0  0  0  0
  1  2  1  0  0  0  0
  1  3  2  0  0  0  0
  2  4  2  0  0  0  0
  3  5  1  0  0  0  0
  4 10  1  0  0  0  0
  5 10  2  0  0  0  0
  6  8  2  0  0  0  0
  6 11  1  0  0  0  0
  7  9  1  0  0  0  0
  7 11  2  0  0  0  0
  8 12  1  0  0  0  0
  9 12  2  0  0  0  0
 10 25  1  0  0  0  0
 11 26  1  0  0  0  0
 12 30  1  0  0  0  0
 13 15  1  0  0  0  0
 13 27  2  0  0  0  0
 13 29  1  0  0  0  0
 14 28  2  0  0  0  0
 14 29  1  0  0  0  0
 14 31  1  0  0  0  0
 15 16  2  0  0  0  0
 16 17  1  0  0  0  0
 17 18  2  0  0  0  0
 18 29  1  0  0  0  0
 19 26  1  6  0  0  0
 19 31  1  0  0  0  0
 19 32  2  0  0  0  0
 20 21  1  0  0  0  0
 20 22  1  0  0  0  0
 21 23  1  0  0  0  0
 22 24  1  0  0  0  0
 23 30  1  0  0  0  0
 24 30  1  0  0  0  0
 25 26  1  0  0  0  0
 27 28  1  0  0  0  0
  1 33  1  0  0  0  0
  2 34  1  0  0  0  0
  3 35  1  0  0  0  0
  4 36  1  0  0  0  0
  5 37  1  0  0  0  0
  6 38  1  0  0  0  0
  7 39  1  0  0  0  0
  8 40  1  0  0  0  0
  9 41  1  0  0  0  0
 15 42  1  0  0  0  0
 16 43  1  0  0  0  0
 17 44  1  0  0  0  0
 18 45  1  0  0  0  0
 20 46  1  0  0  0  0
 20 47  1  0  0  0  0
 21 48  1  0  0  0  0
 21 49  1  0  0  0  0
 22 50  1  0  0  0  0
 22 51  1  0  0  0  0
 23 52  1  0  0  0  0
 23 53  1  0  0  0  0
 24 54  1  0  0  0  0
 24 55  1  0  0  0  0
 25 56  1  0  0  0  0
 25 57  1  0  0  0  0
 26 58  1  0  0  0  0
 31 59  1  0  0  0  0
M  END
> <clash_score>
0

> <docking_score>
-7.788979530334473

> <overlap_score>
0.9501305818557739

$$$$
BENZO_321_1
  -OEChem-08222022463D

 47 50  0     1  0  0  0  0  0999 V2000
   14.4830   -0.9237   21.8248 C   0  0  0  0  0  0  0  0  0  0  0  0
   13.9310   -1.3719   23.0248 C   0  0  0  0  0  0  0  0  0  0  0  0
   13.8154    0.0379   21.0662 C   0  0  0  0  0  0  0  0  0  0  0  0
   12.7114   -0.8588   23.4661 C   0  0  0  0  0  0  0  0  0  0  0  0
   12.5958    0.5510   21.5075 C   0  0  0  0  0  0  0  0  0  0  0  0
    9.1890   -3.5540   24.0140 C   0  0  0  0  0  0  0  0  0  0  0  0
    7.8700   -2.0610   25.3550 C   0  0  0  0  0  0  0  0  0  0  0  0
    9.5890   -2.4950   23.2210 C   0  0  0  0  0  0  0  0  0  0  0  0
    8.2550   -1.0010   24.5520 C   0  0  0  0  0  0  0  0  0  0  0  0
    8.3450   -3.3440   25.0980 C   0  0  0  0  0  0  0  0  0  0  0  0
   12.0437    0.1027   22.7075 C   0  0  0  0  0  0  0  0  0  0  0  0
    9.1280   -1.2090   23.4870 C   0  0  0  0  0  0  0  0  0  0  0  0
    5.7970    0.9500   18.6730 C   0  0  0  0  0  0  0  0  0  0  0  0
    7.2710   -0.1460   19.8310 C   0  0  0  0  0  0  0  0  0  0  0  0
    4.6610    1.7170   18.4380 C   0  0  0  0  0  0  0  0  0  0  0  0
    3.8860    2.1050   19.5250 C   0  0  0  0  0  0  0  0  0  0  0  0
    4.2460    1.7520   20.8250 C   0  0  0  0  0  0  0  0  0  0  0  0
    5.3890    1.0010   21.0690 C   0  0  0  0  0  0  0  0  0  0  0  0
    9.0430    0.2380   21.4940 C   0  0  0  0  0  0  0  0  0  0  0  0
    7.9517   -4.4787   25.9770 C   0  0  0  0  0  0  0  0  0  0  0  0
   10.7220    0.6590   23.1850 C   0  0  0  0  0  0  0  0  0  0  0  0
    9.5820   -0.1080   22.7000 C   0  0  1  0  0  0  0  0  0  0  0  0
    6.7100    0.3850   17.8100 N   0  0  0  0  0  0  0  0  0  0  0  0
    7.5840   -0.2700   18.5160 N   0  0  0  0  0  0  0  0  0  0  0  0
    6.1460    0.6070   19.9750 N   0  0  0  0  0  0  0  0  0  0  0  0
    8.0950   -0.7700   20.8440 N   0  0  0  0  0  0  0  0  0  0  0  0
    9.2950    1.3000   20.9480 O   0  0  0  0  0  0  0  0  0  0  0  0
   15.4334   -1.3223   21.4820 H   0  0  0  0  0  0  0  0  0  0  0  0
   14.4512   -2.1198   23.6162 H   0  0  0  0  0  0  0  0  0  0  0  0
   14.2454    0.3879   20.1325 H   0  0  0  0  0  0  0  0  0  0  0  0
   12.2887   -1.2141   24.4023 H   0  0  0  0  0  0  0  0  0  0  0  0
   12.0827    1.2998   20.9098 H   0  0  0  0  0  0  0  0  0  0  0  0
    9.5416   -4.5625   23.7818 H   0  0  0  0  0  0  0  0  0  0  0  0
    7.1926   -1.8847   26.1916 H   0  0  0  0  0  0  0  0  0  0  0  0
   10.2688   -2.6720   22.3870 H   0  0  0  0  0  0  0  0  0  0  0  0
    7.8705   -0.0015   24.7579 H   0  0  0  0  0  0  0  0  0  0  0  0
    4.3710    2.0145   17.4451 H   0  0  0  0  0  0  0  0  0  0  0  0
    2.9929    2.6891   19.3400 H   0  0  0  0  0  0  0  0  0  0  0  0
    3.6320    2.0596   21.6814 H   0  0  0  0  0  0  0  0  0  0  0  0
    5.6863    0.7288   22.0575 H   0  0  0  0  0  0  0  0  0  0  0  0
    8.6661   -4.5883   26.8021 H   0  0  0  0  0  0  0  0  0  0  0  0
    6.9508   -4.3263   26.4014 H   0  0  0  0  0  0  0  0  0  0  0  0
    7.9188   -5.4228   25.4175 H   0  0  0  0  0  0  0  0  0  0  0  0
   10.7266    0.7141   24.2815 H   0  0  0  0  0  0  0  0  0  0  0  0
   10.6502    1.7003   22.8412 H   0  0  0  0  0  0  0  0  0  0  0  0
    8.7027    0.7972   23.4026 H   0  0  0  0  0  0  0  0  0  0  0  0
    8.0706   -1.6189   21.0730 H   0  0  0  0  0  0  0  0  0  0  0  0
  1  2  1  0  0  0  0
  1  3  2  0  0  0  0
  2  4  2  0  0  0  0
  3  5  1  0  0  0  0
  4 11  1  0  0  0  0
  5 11  2  0  0  0  0
  6  8  2  0  0  0  0
  6 10  1  0  0  0  0
  7  9  1  0  0  0  0
  7 10  2  0  0  0  0
  8 12  1  0  0  0  0
  9 12  2  0  0  0  0
 10 20  1  0  0  0  0
 11 21  1  0  0  0  0
 12 22  1  0  0  0  0
 13 15  1  0  0  0  0
 13 23  2  0  0  0  0
 13 25  1  0  0  0  0
 14 24  2  0  0  0  0
 14 25  1  0  0  0  0
 14 26  1  0  0  0  0
 15 16  2  0  0  0  0
 16 17  1  0  0  0  0
 17 18  2  0  0  0  0
 18 25  1  0  0  0  0
 19 22  1  0  0  0  0
 19 26  1  0  0  0  0
 19 27  2  0  0  0  0
 21 22  1  1  0  0  0
 23 24  1  0  0  0  0
  1 28  1  0  0  0  0
  2 29  1  0  0  0  0
  3 30  1  0  0  0  0
  4 31  1  0  0  0  0
  5 32  1  0  0  0  0
  6 33  1  0  0  0  0
  7 34  1  0  0  0  0
  8 35  1  0  0  0  0
  9 36  1  0  0  0  0
 15 37  1  0  0  0  0
 16 38  1  0  0  0  0
 17 39  1  0  0  0  0
 18 40  1  0  0  0  0
 20 41  1  0  0  0  0
 20 42  1  0  0  0  0
 20 43  1  0  0  0  0
 21 44  1  0  0  0  0
 21 45  1  0  0  0  0
 22 46  1  0  0  0  0
 26 47  1  0  0  0  0
M  END
> <clash_score>
0

> <docking_score>
-6.755249977111816

> <overlap_score>
0.8690909743309021

$$$$
BENZO_321_2
  -OEChem-08222022463D

 47 50  0     1  0  0  0  0  0999 V2000
   14.0137   -1.8398   24.3768 C   0  0  0  0  0  0  0  0  0  0  0  0
   13.0361   -1.4844   25.3061 C   0  0  0  0  0  0  0  0  0  0  0  0
   13.9239   -1.3848   23.0613 C   0  0  0  0  0  0  0  0  0  0  0  0
   11.9686   -0.6740   24.9198 C   0  0  0  0  0  0  0  0  0  0  0  0
   12.8563   -0.5744   22.6750 C   0  0  0  0  0  0  0  0  0  0  0  0
    9.1890   -3.5540   24.0140 C   0  0  0  0  0  0  0  0  0  0  0  0
    7.8700   -2.0610   25.3550 C   0  0  0  0  0  0  0  0  0  0  0  0
    9.5890   -2.4950   23.2210 C   0  0  0  0  0  0  0  0  0  0  0  0
    8.2550   -1.0010   24.5520 C   0  0  0  0  0  0  0  0  0  0  0  0
    8.3450   -3.3440   25.0980 C   0  0  0  0  0  0  0  0  0  0  0  0
   11.8786   -0.2190   23.6043 C   0  0  0  0  0  0  0  0  0  0  0  0
    9.1280   -1.2090   23.4870 C   0  0  0  0  0  0  0  0  0  0  0  0
    5.7970    0.9500   18.6730 C   0  0  0  0  0  0  0  0  0  0  0  0
    7.2710   -0.1460   19.8310 C   0  0  0  0  0  0  0  0  0  0  0  0
    4.6610    1.7170   18.4380 C   0  0  0  0  0  0  0  0  0  0  0  0
    3.8860    2.1050   19.5250 C   0  0  0  0  0  0  0  0  0  0  0  0
    4.2460    1.7520   20.8250 C   0  0  0  0  0  0  0  0  0  0  0  0
    5.3890    1.0010   21.0690 C   0  0  0  0  0  0  0  0  0  0  0  0
    9.0430    0.2380   21.4940 C   0  0  0  0  0  0  0  0  0  0  0  0
    7.9517   -4.4787   25.9770 C   0  0  0  0  0  0  0  0  0  0  0  0
   10.7220    0.6590   23.1850 C   0  0  0  0  0  0  0  0  0  0  0  0
    9.5820   -0.1080   22.7000 C   0  0  2  0  0  0  0  0  0  0  0  0
    6.7100    0.3850   17.8100 N   0  0  0  0  0  0  0  0  0  0  0  0
    7.5840   -0.2700   18.5160 N   0  0  0  0  0  0  0  0  0  0  0  0
    6.1460    0.6070   19.9750 N   0  0  0  0  0  0  0  0  0  0  0  0
    8.0950   -0.7700   20.8440 N   0  0  0  0  0  0  0  0  0  0  0  0
    9.2950    1.3000   20.9480 O   0  0  0  0  0  0  0  0  0  0  0  0
   14.8456   -2.4698   24.6781 H   0  0  0  0  0  0  0  0  0  0  0  0
   13.1065   -1.8377   26.3307 H   0  0  0  0  0  0  0  0  0  0  0  0
   14.6854   -1.6605   22.3378 H   0  0  0  0  0  0  0  0  0  0  0  0
   11.2114   -0.4022   25.6506 H   0  0  0  0  0  0  0  0  0  0  0  0
   12.7944   -0.2247   21.6479 H   0  0  0  0  0  0  0  0  0  0  0  0
    9.5416   -4.5625   23.7818 H   0  0  0  0  0  0  0  0  0  0  0  0
    7.1926   -1.8847   26.1916 H   0  0  0  0  0  0  0  0  0  0  0  0
   10.2688   -2.6720   22.3870 H   0  0  0  0  0  0  0  0  0  0  0  0
    7.8705   -0.0015   24.7579 H   0  0  0  0  0  0  0  0  0  0  0  0
    4.3710    2.0145   17.4451 H   0  0  0  0  0  0  0  0  0  0  0  0
    2.9929    2.6891   19.3400 H   0  0  0  0  0  0  0  0  0  0  0  0
    3.6320    2.0596   21.6814 H   0  0  0  0  0  0  0  0  0  0  0  0
    5.6863    0.7288   22.0575 H   0  0  0  0  0  0  0  0  0  0  0  0
    8.6661   -4.5883   26.8021 H   0  0  0  0  0  0  0  0  0  0  0  0
    6.9508   -4.3263   26.4014 H   0  0  0  0  0  0  0  0  0  0  0  0
    7.9188   -5.4228   25.4175 H   0  0  0  0  0  0  0  0  0  0  0  0
   10.4369    1.3080   24.0233 H   0  0  0  0  0  0  0  0  0  0  0  0
   11.0815    1.3384   22.3997 H   0  0  0  0  0  0  0  0  0  0  0  0
   10.5413   -0.9955   22.0233 H   0  0  0  0  0  0  0  0  0  0  0  0
    8.0706   -1.6189   21.0730 H   0  0  0  0  0  0  0  0  0  0  0  0
  1  2  1  0  0  0  0
  1  3  2  0  0  0  0
  2  4  2  0  0  0  0
  3  5  1  0  0  0  0
  4 11  1  0  0  0  0
  5 11  2  0  0  0  0
  6  8  2  0  0  0  0
  6 10  1  0  0  0  0
  7  9  1  0  0  0  0
  7 10  2  0  0  0  0
  8 12  1  0  0  0  0
  9 12  2  0  0  0  0
 10 20  1  0  0  0  0
 11 21  1  0  0  0  0
 12 22  1  0  0  0  0
 13 15  1  0  0  0  0
 13 23  2  0  0  0  0
 13 25  1  0  0  0  0
 14 24  2  0  0  0  0
 14 25  1  0  0  0  0
 14 26  1  0  0  0  0
 15 16  2  0  0  0  0
 16 17  1  0  0  0  0
 17 18  2  0  0  0  0
 18 25  1  0  0  0  0
 19 22  1  0  0  0  0
 19 26  1  0  0  0  0
 19 27  2  0  0  0  0
 21 22  1  6  0  0  0
 23 24  1  0  0  0  0
  1 28  1  0  0  0  0
  2 29  1  0  0  0  0
  3 30  1  0  0  0  0
  4 31  1  0  0  0  0
  5 32  1  0  0  0  0
  6 33  1  0  0  0  0
  7 34  1  0  0  0  0
  8 35  1  0  0  0  0
  9 36  1  0  0  0  0
 15 37  1  0  0  0  0
 16 38  1  0  0  0  0
 17 39  1  0  0  0  0
 18 40  1  0  0  0  0
 20 41  1  0  0  0  0
 20 42  1  0  0  0  0
 20 43  1  0  0  0  0
 21 44  1  0  0  0  0
 21 45  1  0  0  0  0
 22 46  1  0  0  0  0
 26 47  1  0  0  0  0
M  END
> <clash_score>
0

> <docking_score>
-7.601841926574707

> <overlap_score>
0.8833890557289124

$$$$
BENZO_320_1
  -OEChem-08222022463D

 44 47  0     1  0  0  0  0  0999 V2000
    9.1890   -3.5540   24.0140 C   0  0  0  0  0  0  0  0  0  0  0  0
    7.8700   -2.0610   25.3550 C   0  0  0  0  0  0  0  0  0  0  0  0
    9.5890   -2.4950   23.2210 C   0  0  0  0  0  0  0  0  0  0  0  0
    8.2550   -1.0010   24.5520 C   0  0  0  0  0  0  0  0  0  0  0  0
   13.1058   -0.2791   23.5772 C   0  0  0  0  0  0  0  0  0  0  0  0
   14.1974   -0.7534   22.8836 C   0  0  0  0  0  0  0  0  0  0  0  0
   12.3642   -0.0940   21.3822 C   0  0  0  0  0  0  0  0  0  0  0  0
    8.3450   -3.3440   25.0980 C   0  0  0  0  0  0  0  0  0  0  0  0
    9.1280   -1.2090   23.4870 C   0  0  0  0  0  0  0  0  0  0  0  0
   12.0437    0.1027   22.7075 C   0  0  0  0  0  0  0  0  0  0  0  0
    5.7970    0.9500   18.6730 C   0  0  0  0  0  0  0  0  0  0  0  0
    7.2710   -0.1460   19.8310 C   0  0  0  0  0  0  0  0  0  0  0  0
    4.6610    1.7170   18.4380 C   0  0  0  0  0  0  0  0  0  0  0  0
    3.8860    2.1050   19.5250 C   0  0  0  0  0  0  0  0  0  0  0  0
    4.2460    1.7520   20.8250 C   0  0  0  0  0  0  0  0  0  0  0  0
    5.3890    1.0010   21.0690 C   0  0  0  0  0  0  0  0  0  0  0  0
    9.0430    0.2380   21.4940 C   0  0  0  0  0  0  0  0  0  0  0  0
    7.9517   -4.4787   25.9770 C   0  0  0  0  0  0  0  0  0  0  0  0
   10.7220    0.6590   23.1850 C   0  0  0  0  0  0  0  0  0  0  0  0
    9.5820   -0.1080   22.7000 C   0  0  1  0  0  0  0  0  0  0  0  0
    6.7100    0.3850   17.8100 N   0  0  0  0  0  0  0  0  0  0  0  0
    7.5840   -0.2700   18.5160 N   0  0  0  0  0  0  0  0  0  0  0  0
    6.1460    0.6070   19.9750 N   0  0  0  0  0  0  0  0  0  0  0  0
    8.0950   -0.7700   20.8440 N   0  0  0  0  0  0  0  0  0  0  0  0
    9.2950    1.3000   20.9480 O   0  0  0  0  0  0  0  0  0  0  0  0
   13.9398   -0.7369   21.1908 S   0  0  0  0  0  0  0  0  0  0  0  0
    9.5416   -4.5625   23.7818 H   0  0  0  0  0  0  0  0  0  0  0  0
    7.1926   -1.8847   26.1916 H   0  0  0  0  0  0  0  0  0  0  0  0
   10.2688   -2.6720   22.3870 H   0  0  0  0  0  0  0  0  0  0  0  0
    7.8705   -0.0015   24.7579 H   0  0  0  0  0  0  0  0  0  0  0  0
   13.0750   -0.2107   24.6573 H   0  0  0  0  0  0  0  0  0  0  0  0
   15.1341   -1.1080   23.2899 H   0  0  0  0  0  0  0  0  0  0  0  0
   11.7521    0.1087   20.5143 H   0  0  0  0  0  0  0  0  0  0  0  0
    4.3710    2.0145   17.4451 H   0  0  0  0  0  0  0  0  0  0  0  0
    2.9929    2.6891   19.3400 H   0  0  0  0  0  0  0  0  0  0  0  0
    3.6320    2.0596   21.6814 H   0  0  0  0  0  0  0  0  0  0  0  0
    5.6863    0.7288   22.0575 H   0  0  0  0  0  0  0  0  0  0  0  0
    8.6661   -4.5883   26.8021 H   0  0  0  0  0  0  0  0  0  0  0  0
    6.9508   -4.3263   26.4014 H   0  0  0  0  0  0  0  0  0  0  0  0
    7.9188   -5.4228   25.4175 H   0  0  0  0  0  0  0  0  0  0  0  0
   10.7266    0.7141   24.2815 H   0  0  0  0  0  0  0  0  0  0  0  0
   10.6502    1.7003   22.8412 H   0  0  0  0  0  0  0  0  0  0  0  0
    8.7027    0.7972   23.4026 H   0  0  0  0  0  0  0  0  0  0  0  0
    8.0706   -1.6189   21.0730 H   0  0  0  0  0  0  0  0  0  0  0  0
  1  3  2  0  0  0  0
  1  8  1  0  0  0  0
  2  4  1  0  0  0  0
  2  8  2  0  0  0  0
  3  9  1  0  0  0  0
  4  9  2  0  0  0  0
  5  6  2  0  0  0  0
  5 10  1  0  0  0  0
  6 26  1  0  0  0  0
  7 10  2  0  0  0  0
  7 26  1  0  0  0  0
  8 18  1  0  0  0  0
  9 20  1  0  0  0  0
 10 19  1  0  0  0  0
 11 13  1  0  0  0  0
 11 21  2  0  0  0  0
 11 23  1  0  0  0  0
 12 22  2  0  0  0  0
 12 23  1  0  0  0  0
 12 24  1  0  0  0  0
 13 14  2  0  0  0  0
 14 15  1  0  0  0  0
 15 16  2  0  0  0  0
 16 23  1  0  0  0  0
 17 20  1  0  0  0  0
 17 24  1  0  0  0  0
 17 25  2  0  0  0  0
 19 20  1  1  0  0  0
 21 22  1  0  0  0  0
  1 27  1  0  0  0  0
  2 28  1  0  0  0  0
  3 29  1  0  0  0  0
  4 30  1  0  0  0  0
  5 31  1  0  0  0  0
  6 32  1  0  0  0  0
  7 33  1  0  0  0  0
 13 34  1  0  0  0  0
 14 35  1  0  0  0  0
 15 36  1  0  0  0  0
 16 37  1  0  0  0  0
 18 38  1  0  0  0  0
 18 39  1  0  0  0  0
 18 40  1  0  0  0  0
 19 41  1  0  0  0  0
 19 42  1  0  0  0  0
 20 43  1  0  0  0  0
 24 44  1  0  0  0  0
M  END
> <clash_score>
0

> <docking_score>
-6.81439208984375

> <overlap_score>
0.8589656352996826

$$$$
BENZO_320_2
  -OEChem-08222022463D

 44 47  0     1  0  0  0  0  0999 V2000
    9.1890   -3.5540   24.0140 C   0  0  0  0  0  0  0  0  0  0  0  0
    7.8700   -2.0610   25.3550 C   0  0  0  0  0  0  0  0  0  0  0  0
    9.5890   -2.4950   23.2210 C   0  0  0  0  0  0  0  0  0  0  0  0
    8.2550   -1.0010   24.5520 C   0  0  0  0  0  0  0  0  0  0  0  0
   12.2697   -1.3786   23.5962 C   0  0  0  0  0  0  0  0  0  0  0  0
   13.0792   -1.9302   24.5647 C   0  0  0  0  0  0  0  0  0  0  0  0
   12.0282    0.1612   25.3205 C   0  0  0  0  0  0  0  0  0  0  0  0
    8.3450   -3.3440   25.0980 C   0  0  0  0  0  0  0  0  0  0  0  0
    9.1280   -1.2090   23.4870 C   0  0  0  0  0  0  0  0  0  0  0  0
   11.6609   -0.1670   24.0339 C   0  0  0  0  0  0  0  0  0  0  0  0
    5.7970    0.9500   18.6730 C   0  0  0  0  0  0  0  0  0  0  0  0
    7.2710   -0.1460   19.8310 C   0  0  0  0  0  0  0  0  0  0  0  0
    4.6610    1.7170   18.4380 C   0  0  0  0  0  0  0  0  0  0  0  0
    3.8860    2.1050   19.5250 C   0  0  0  0  0  0  0  0  0  0  0  0
    4.2460    1.7520   20.8250 C   0  0  0  0  0  0  0  0  0  0  0  0
    5.3890    1.0010   21.0690 C   0  0  0  0  0  0  0  0  0  0  0  0
    9.0430    0.2380   21.4940 C   0  0  0  0  0  0  0  0  0  0  0  0
    7.9517   -4.4787   25.9770 C   0  0  0  0  0  0  0  0  0  0  0  0
   10.7220    0.6590   23.1850 C   0  0  0  0  0  0  0  0  0  0  0  0
    9.5820   -0.1080   22.7000 C   0  0  2  0  0  0  0  0  0  0  0  0
    6.7100    0.3850   17.8100 N   0  0  0  0  0  0  0  0  0  0  0  0
    7.5840   -0.2700   18.5160 N   0  0  0  0  0  0  0  0  0  0  0  0
    6.1460    0.6070   19.9750 N   0  0  0  0  0  0  0  0  0  0  0  0
    8.0950   -0.7700   20.8440 N   0  0  0  0  0  0  0  0  0  0  0  0
    9.2950    1.3000   20.9480 O   0  0  0  0  0  0  0  0  0  0  0  0
   13.1030   -0.9887   25.9949 S   0  0  0  0  0  0  0  0  0  0  0  0
    9.5416   -4.5625   23.7818 H   0  0  0  0  0  0  0  0  0  0  0  0
    7.1926   -1.8847   26.1916 H   0  0  0  0  0  0  0  0  0  0  0  0
   10.2688   -2.6720   22.3870 H   0  0  0  0  0  0  0  0  0  0  0  0
    7.8705   -0.0015   24.7579 H   0  0  0  0  0  0  0  0  0  0  0  0
   12.1237   -1.8267   22.6214 H   0  0  0  0  0  0  0  0  0  0  0  0
   13.6572   -2.8413   24.5012 H   0  0  0  0  0  0  0  0  0  0  0  0
   11.7183    1.0194   25.9006 H   0  0  0  0  0  0  0  0  0  0  0  0
    4.3710    2.0145   17.4451 H   0  0  0  0  0  0  0  0  0  0  0  0
    2.9929    2.6891   19.3400 H   0  0  0  0  0  0  0  0  0  0  0  0
    3.6320    2.0596   21.6814 H   0  0  0  0  0  0  0  0  0  0  0  0
    5.6863    0.7288   22.0575 H   0  0  0  0  0  0  0  0  0  0  0  0
    8.6661   -4.5883   26.8021 H   0  0  0  0  0  0  0  0  0  0  0  0
    6.9508   -4.3263   26.4014 H   0  0  0  0  0  0  0  0  0  0  0  0
    7.9188   -5.4228   25.4175 H   0  0  0  0  0  0  0  0  0  0  0  0
   10.3958    1.5383   23.7557 H   0  0  0  0  0  0  0  0  0  0  0  0
   11.2964    1.0584   22.3376 H   0  0  0  0  0  0  0  0  0  0  0  0
   10.5413   -0.9955   22.0233 H   0  0  0  0  0  0  0  0  0  0  0  0
    8.0706   -1.6189   21.0730 H   0  0  0  0  0  0  0  0  0  0  0  0
  1  3  2  0  0  0  0
  1  8  1  0  0  0  0
  2  4  1  0  0  0  0
  2  8  2  0  0  0  0
  3  9  1  0  0  0  0
  4  9  2  0  0  0  0
  5  6  2  0  0  0  0
  5 10  1  0  0  0  0
  6 26  1  0  0  0  0
  7 10  2  0  0  0  0
  7 26  1  0  0  0  0
  8 18  1  0  0  0  0
  9 20  1  0  0  0  0
 10 19  1  0  0  0  0
 11 13  1  0  0  0  0
 11 21  2  0  0  0  0
 11 23  1  0  0  0  0
 12 22  2  0  0  0  0
 12 23  1  0  0  0  0
 12 24  1  0  0  0  0
 13 14  2  0  0  0  0
 14 15  1  0  0  0  0
 15 16  2  0  0  0  0
 16 23  1  0  0  0  0
 17 20  1  0  0  0  0
 17 24  1  0  0  0  0
 17 25  2  0  0  0  0
 19 20  1  6  0  0  0
 21 22  1  0  0  0  0
  1 27  1  0  0  0  0
  2 28  1  0  0  0  0
  3 29  1  0  0  0  0
  4 30  1  0  0  0  0
  5 31  1  0  0  0  0
  6 32  1  0  0  0  0
  7 33  1  0  0  0  0
 13 34  1  0  0  0  0
 14 35  1  0  0  0  0
 15 36  1  0  0  0  0
 16 37  1  0  0  0  0
 18 38  1  0  0  0  0
 18 39  1  0  0  0  0
 18 40  1  0  0  0  0
 19 41  1  0  0  0  0
 19 42  1  0  0  0  0
 20 43  1  0  0  0  0
 24 44  1  0  0  0  0
M  END
> <clash_score>
0

> <docking_score>
-5.43531608581543

> <overlap_score>
0.8264031410217285

$$$$
BENZO_319_2
  -OEChem-08222022463D

 59 63  0     1  0  0  0  0  0999 V2000
    9.5890   -2.4950   23.2210 C   0  0  0  0  0  0  0  0  0  0  0  0
    8.2550   -1.0010   24.5520 C   0  0  0  0  0  0  0  0  0  0  0  0
    9.1890   -3.5540   24.0140 C   0  0  0  0  0  0  0  0  0  0  0  0
    7.8700   -2.0610   25.3550 C   0  0  0  0  0  0  0  0  0  0  0  0
   12.1478   -0.7466   24.8788 C   0  0  0  0  0  0  0  0  0  0  0  0
   12.9365   -0.6363   22.8292 C   0  0  0  0  0  0  0  0  0  0  0  0
    9.1280   -1.2090   23.4870 C   0  0  0  0  0  0  0  0  0  0  0  0
   11.8895   -0.2037   23.6058 C   0  0  0  0  0  0  0  0  0  0  0  0
    8.3450   -3.3440   25.0980 C   0  0  0  0  0  0  0  0  0  0  0  0
    5.7970    0.9500   18.6730 C   0  0  0  0  0  0  0  0  0  0  0  0
    7.2710   -0.1460   19.8310 C   0  0  0  0  0  0  0  0  0  0  0  0
    4.6610    1.7170   18.4380 C   0  0  0  0  0  0  0  0  0  0  0  0
    3.8860    2.1050   19.5250 C   0  0  0  0  0  0  0  0  0  0  0  0
    4.2460    1.7520   20.8250 C   0  0  0  0  0  0  0  0  0  0  0  0
    5.3890    1.0010   21.0690 C   0  0  0  0  0  0  0  0  0  0  0  0
    9.0430    0.2380   21.4940 C   0  0  0  0  0  0  0  0  0  0  0  0
    7.9496   -4.9537   28.7345 C   0  0  0  0  0  0  0  0  0  0  0  0
    6.8919   -4.0607   28.0818 C   0  0  0  0  0  0  0  0  0  0  0  0
    9.2470   -4.9693   27.9230 C   0  0  0  0  0  0  0  0  0  0  0  0
    6.6889   -4.4385   26.6147 C   0  0  0  0  0  0  0  0  0  0  0  0
    8.9871   -5.3207   26.4549 C   0  0  0  0  0  0  0  0  0  0  0  0
   14.9529   -2.0519   23.2864 C   0  0  0  0  0  0  0  0  0  0  0  0
   10.7220    0.6590   23.1850 C   0  0  0  0  0  0  0  0  0  0  0  0
    9.5820   -0.1080   22.7000 C   0  0  2  0  0  0  0  0  0  0  0  0
   13.2706   -1.4691   24.9131 N   0  0  0  0  0  0  0  0  0  0  0  0
    6.7100    0.3850   17.8100 N   0  0  0  0  0  0  0  0  0  0  0  0
    7.5840   -0.2700   18.5160 N   0  0  0  0  0  0  0  0  0  0  0  0
   13.7272   -1.3833   23.6520 N   0  0  0  0  0  0  0  0  0  0  0  0
    6.1460    0.6070   19.9750 N   0  0  0  0  0  0  0  0  0  0  0  0
    7.9769   -4.4027   25.9163 N   0  0  0  0  0  0  0  0  0  0  0  0
    8.0950   -0.7700   20.8440 N   0  0  0  0  0  0  0  0  0  0  0  0
    9.2950    1.3000   20.9480 O   0  0  0  0  0  0  0  0  0  0  0  0
   10.2684   -2.6719   22.3867 H   0  0  0  0  0  0  0  0  0  0  0  0
    7.8717   -0.0016   24.7596 H   0  0  0  0  0  0  0  0  0  0  0  0
    9.5443   -4.5616   23.7817 H   0  0  0  0  0  0  0  0  0  0  0  0
    7.1921   -1.8821   26.1908 H   0  0  0  0  0  0  0  0  0  0  0  0
   11.5656   -0.6480   25.7841 H   0  0  0  0  0  0  0  0  0  0  0  0
   13.1794   -0.4813   21.7867 H   0  0  0  0  0  0  0  0  0  0  0  0
    4.3710    2.0145   17.4451 H   0  0  0  0  0  0  0  0  0  0  0  0
    2.9929    2.6891   19.3400 H   0  0  0  0  0  0  0  0  0  0  0  0
    3.6320    2.0596   21.6814 H   0  0  0  0  0  0  0  0  0  0  0  0
    5.6863    0.7288   22.0575 H   0  0  0  0  0  0  0  0  0  0  0  0
    8.1558   -4.5961   29.7550 H   0  0  0  0  0  0  0  0  0  0  0  0
    7.5611   -5.9778   28.8324 H   0  0  0  0  0  0  0  0  0  0  0  0
    5.9459   -4.1594   28.6209 H   0  0  0  0  0  0  0  0  0  0  0  0
    7.2011   -3.0160   28.1536 H   0  0  0  0  0  0  0  0  0  0  0  0
    9.7290   -3.9880   27.9846 H   0  0  0  0  0  0  0  0  0  0  0  0
    9.9437   -5.6964   28.3562 H   0  0  0  0  0  0  0  0  0  0  0  0
    6.2543   -5.4402   26.5659 H   0  0  0  0  0  0  0  0  0  0  0  0
    5.9909   -3.7397   26.1451 H   0  0  0  0  0  0  0  0  0  0  0  0
    9.9128   -5.2367   25.8843 H   0  0  0  0  0  0  0  0  0  0  0  0
    8.6365   -6.3517   26.3987 H   0  0  0  0  0  0  0  0  0  0  0  0
   15.7795   -1.3567   23.4548 H   0  0  0  0  0  0  0  0  0  0  0  0
   15.0760   -2.9481   23.9008 H   0  0  0  0  0  0  0  0  0  0  0  0
   14.9053   -2.3433   22.2334 H   0  0  0  0  0  0  0  0  0  0  0  0
   10.4315    1.3089   24.0208 H   0  0  0  0  0  0  0  0  0  0  0  0
   11.0719    1.3385   22.3955 H   0  0  0  0  0  0  0  0  0  0  0  0
   10.5438   -0.9939   22.0202 H   0  0  0  0  0  0  0  0  0  0  0  0
    8.0917   -1.6083   21.0911 H   0  0  0  0  0  0  0  0  0  0  0  0
  1  3  2  0  0  0  0
  1  7  1  0  0  0  0
  2  4  1  0  0  0  0
  2  7  2  0  0  0  0
  3  9  1  0  0  0  0
  4  9  2  0  0  0  0
  5  8  1  0  0  0  0
  5 25  2  0  0  0  0
  6  8  2  0  0  0  0
  6 28  1  0  0  0  0
  7 24  1  0  0  0  0
  8 23  1  0  0  0  0
  9 30  1  0  0  0  0
 10 12  1  0  0  0  0
 10 26  2  0  0  0  0
 10 29  1  0  0  0  0
 11 27  2  0  0  0  0
 11 29  1  0  0  0  0
 11 31  1  0  0  0  0
 12 13  2  0  0  0  0
 13 14  1  0  0  0  0
 14 15  2  0  0  0  0
 15 29  1  0  0  0  0
 16 24  1  0  0  0  0
 16 31  1  0  0  0  0
 16 32  2  0  0  0  0
 17 18  1  0  0  0  0
 17 19  1  0  0  0  0
 18 20  1  0  0  0  0
 19 21  1  0  0  0  0
 20 30  1  0  0  0  0
 21 30  1  0  0  0  0
 22 28  1  0  0  0  0
 23 24  1  6  0  0  0
 25 28  1  0  0  0  0
 26 27  1  0  0  0  0
  1 33  1  0  0  0  0
  2 34  1  0  0  0  0
  3 35  1  0  0  0  0
  4 36  1  0  0  0  0
  5 37  1  0  0  0  0
  6 38  1  0  0  0  0
 12 39  1  0  0  0  0
 13 40  1  0  0  0  0
 14 41  1  0  0  0  0
 15 42  1  0  0  0  0
 17 43  1  0  0  0  0
 17 44  1  0  0  0  0
 18 45  1  0  0  0  0
 18 46  1  0  0  0  0
 19 47  1  0  0  0  0
 19 48  1  0  0  0  0
 20 49  1  0  0  0  0
 20 50  1  0  0  0  0
 21 51  1  0  0  0  0
 21 52  1  0  0  0  0
 22 53  1  0  0  0  0
 22 54  1  0  0  0  0
 22 55  1  0  0  0  0
 23 56  1  0  0  0  0
 23 57  1  0  0  0  0
 24 58  1  0  0  0  0
 31 59  1  0  0  0  0
M  END
> <clash_score>
0

> <docking_score>
-7.4713029861450195

> <overlap_score>
0.9732677340507507

$$$$
BENZO_319_1
  -OEChem-08222022463D

 59 63  0     1  0  0  0  0  0999 V2000
    9.5890   -2.4950   23.2210 C   0  0  0  0  0  0  0  0  0  0  0  0
    8.2550   -1.0010   24.5520 C   0  0  0  0  0  0  0  0  0  0  0  0
    9.1890   -3.5540   24.0140 C   0  0  0  0  0  0  0  0  0  0  0  0
    7.8700   -2.0610   25.3550 C   0  0  0  0  0  0  0  0  0  0  0  0
   13.2924    0.1786   23.3840 C   0  0  0  0  0  0  0  0  0  0  0  0
   12.3227   -0.5596   21.5537 C   0  0  0  0  0  0  0  0  0  0  0  0
    9.1280   -1.2090   23.4870 C   0  0  0  0  0  0  0  0  0  0  0  0
   12.0528    0.1138   22.7200 C   0  0  0  0  0  0  0  0  0  0  0  0
    8.3450   -3.3440   25.0980 C   0  0  0  0  0  0  0  0  0  0  0  0
    5.7970    0.9500   18.6730 C   0  0  0  0  0  0  0  0  0  0  0  0
    7.2710   -0.1460   19.8310 C   0  0  0  0  0  0  0  0  0  0  0  0
    4.6610    1.7170   18.4380 C   0  0  0  0  0  0  0  0  0  0  0  0
    3.8860    2.1050   19.5250 C   0  0  0  0  0  0  0  0  0  0  0  0
    4.2460    1.7520   20.8250 C   0  0  0  0  0  0  0  0  0  0  0  0
    5.3890    1.0010   21.0690 C   0  0  0  0  0  0  0  0  0  0  0  0
    9.0430    0.2380   21.4940 C   0  0  0  0  0  0  0  0  0  0  0  0
    7.9496   -4.9537   28.7345 C   0  0  0  0  0  0  0  0  0  0  0  0
    6.8919   -4.0607   28.0818 C   0  0  0  0  0  0  0  0  0  0  0  0
    9.2470   -4.9693   27.9230 C   0  0  0  0  0  0  0  0  0  0  0  0
    6.6889   -4.4385   26.6147 C   0  0  0  0  0  0  0  0  0  0  0  0
    8.9871   -5.3207   26.4549 C   0  0  0  0  0  0  0  0  0  0  0  0
   14.4073   -1.5491   20.5768 C   0  0  0  0  0  0  0  0  0  0  0  0
   10.7220    0.6590   23.1850 C   0  0  0  0  0  0  0  0  0  0  0  0
    9.5820   -0.1080   22.7000 C   0  0  1  0  0  0  0  0  0  0  0  0
   14.2767   -0.4070   22.6967 N   0  0  0  0  0  0  0  0  0  0  0  0
    6.7100    0.3850   17.8100 N   0  0  0  0  0  0  0  0  0  0  0  0
    7.5840   -0.2700   18.5160 N   0  0  0  0  0  0  0  0  0  0  0  0
   13.6557   -0.8463   21.5888 N   0  0  0  0  0  0  0  0  0  0  0  0
    6.1460    0.6070   19.9750 N   0  0  0  0  0  0  0  0  0  0  0  0
    7.9769   -4.4027   25.9163 N   0  0  0  0  0  0  0  0  0  0  0  0
    8.0950   -0.7700   20.8440 N   0  0  0  0  0  0  0  0  0  0  0  0
    9.2950    1.3000   20.9480 O   0  0  0  0  0  0  0  0  0  0  0  0
   10.2684   -2.6719   22.3867 H   0  0  0  0  0  0  0  0  0  0  0  0
    7.8717   -0.0016   24.7596 H   0  0  0  0  0  0  0  0  0  0  0  0
    9.5443   -4.5616   23.7817 H   0  0  0  0  0  0  0  0  0  0  0  0
    7.1921   -1.8821   26.1908 H   0  0  0  0  0  0  0  0  0  0  0  0
   13.5219    0.6268   24.3404 H   0  0  0  0  0  0  0  0  0  0  0  0
   11.6952   -0.8530   20.7231 H   0  0  0  0  0  0  0  0  0  0  0  0
    4.3710    2.0145   17.4451 H   0  0  0  0  0  0  0  0  0  0  0  0
    2.9929    2.6891   19.3400 H   0  0  0  0  0  0  0  0  0  0  0  0
    3.6320    2.0596   21.6814 H   0  0  0  0  0  0  0  0  0  0  0  0
    5.6863    0.7288   22.0575 H   0  0  0  0  0  0  0  0  0  0  0  0
    8.1558   -4.5961   29.7550 H   0  0  0  0  0  0  0  0  0  0  0  0
    7.5611   -5.9778   28.8324 H   0  0  0  0  0  0  0  0  0  0  0  0
    5.9459   -4.1594   28.6209 H   0  0  0  0  0  0  0  0  0  0  0  0
    7.2011   -3.0160   28.1536 H   0  0  0  0  0  0  0  0  0  0  0  0
    9.7290   -3.9880   27.9846 H   0  0  0  0  0  0  0  0  0  0  0  0
    9.9437   -5.6964   28.3562 H   0  0  0  0  0  0  0  0  0  0  0  0
    6.2543   -5.4402   26.5659 H   0  0  0  0  0  0  0  0  0  0  0  0
    5.9909   -3.7397   26.1451 H   0  0  0  0  0  0  0  0  0  0  0  0
    9.9128   -5.2367   25.8843 H   0  0  0  0  0  0  0  0  0  0  0  0
    8.6365   -6.3517   26.3987 H   0  0  0  0  0  0  0  0  0  0  0  0
   14.7895   -0.8108   19.8669 H   0  0  0  0  0  0  0  0  0  0  0  0
   15.2329   -2.0907   21.0468 H   0  0  0  0  0  0  0  0  0  0  0  0
   13.7520   -2.2637   20.0711 H   0  0  0  0  0  0  0  0  0  0  0  0
   10.7177    0.7189   24.2812 H   0  0  0  0  0  0  0  0  0  0  0  0
   10.6426    1.6980   22.8361 H   0  0  0  0  0  0  0  0  0  0  0  0
    8.7036    0.8022   23.4008 H   0  0  0  0  0  0  0  0  0  0  0  0
    8.0917   -1.6083   21.0911 H   0  0  0  0  0  0  0  0  0  0  0  0
  1  3  2  0  0  0  0
  1  7  1  0  0  0  0
  2  4  1  0  0  0  0
  2  7  2  0  0  0  0
  3  9  1  0  0  0  0
  4  9  2  0  0  0  0
  5  8  1  0  0  0  0
  5 25  2  0  0  0  0
  6  8  2  0  0  0  0
  6 28  1  0  0  0  0
  7 24  1  0  0  0  0
  8 23  1  0  0  0  0
  9 30  1  0  0  0  0
 10 12  1  0  0  0  0
 10 26  2  0  0  0  0
 10 29  1  0  0  0  0
 11 27  2  0  0  0  0
 11 29  1  0  0  0  0
 11 31  1  0  0  0  0
 12 13  2  0  0  0  0
 13 14  1  0  0  0  0
 14 15  2  0  0  0  0
 15 29  1  0  0  0  0
 16 24  1  0  0  0  0
 16 31  1  0  0  0  0
 16 32  2  0  0  0  0
 17 18  1  0  0  0  0
 17 19  1  0  0  0  0
 18 20  1  0  0  0  0
 19 21  1  0  0  0  0
 20 30  1  0  0  0  0
 21 30  1  0  0  0  0
 22 28  1  0  0  0  0
 23 24  1  1  0  0  0
 25 28  1  0  0  0  0
 26 27  1  0  0  0  0
  1 33  1  0  0  0  0
  2 34  1  0  0  0  0
  3 35  1  0  0  0  0
  4 36  1  0  0  0  0
  5 37  1  0  0  0  0
  6 38  1  0  0  0  0
 12 39  1  0  0  0  0
 13 40  1  0  0  0  0
 14 41  1  0  0  0  0
 15 42  1  0  0  0  0
 17 43  1  0  0  0  0
 17 44  1  0  0  0  0
 18 45  1  0  0  0  0
 18 46  1  0  0  0  0
 19 47  1  0  0  0  0
 19 48  1  0  0  0  0
 20 49  1  0  0  0  0
 20 50  1  0  0  0  0
 21 51  1  0  0  0  0
 21 52  1  0  0  0  0
 22 53  1  0  0  0  0
 22 54  1  0  0  0  0
 22 55  1  0  0  0  0
 23 56  1  0  0  0  0
 23 57  1  0  0  0  0
 24 58  1  0  0  0  0
 31 59  1  0  0  0  0
M  END
> <clash_score>
0

> <docking_score>
-8.94160270690918

> <overlap_score>
0.9499579668045044

$$$$
BENZO_318_2
  -OEChem-08222022463D

 59 63  0     1  0  0  0  0  0999 V2000
   13.8403    0.0639   21.0955 C   0  0  0  0  0  0  0  0  0  0  0  0
   12.6117    0.5658   21.5246 C   0  0  0  0  0  0  0  0  0  0  0  0
    9.5890   -2.4950   23.2210 C   0  0  0  0  0  0  0  0  0  0  0  0
    8.2550   -1.0010   24.5520 C   0  0  0  0  0  0  0  0  0  0  0  0
    9.1890   -3.5540   24.0140 C   0  0  0  0  0  0  0  0  0  0  0  0
    7.8700   -2.0610   25.3550 C   0  0  0  0  0  0  0  0  0  0  0  0
   14.5100   -0.8902   21.8617 C   0  0  0  0  0  0  0  0  0  0  0  0
   12.7225   -0.8403   23.4863 C   0  0  0  0  0  0  0  0  0  0  0  0
    9.1280   -1.2090   23.4870 C   0  0  0  0  0  0  0  0  0  0  0  0
   12.0528    0.1138   22.7200 C   0  0  0  0  0  0  0  0  0  0  0  0
    8.3450   -3.3440   25.0980 C   0  0  0  0  0  0  0  0  0  0  0  0
   13.9511   -1.3422   23.0571 C   0  0  0  0  0  0  0  0  0  0  0  0
    5.7970    0.9500   18.6730 C   0  0  0  0  0  0  0  0  0  0  0  0
    7.2710   -0.1460   19.8310 C   0  0  0  0  0  0  0  0  0  0  0  0
    4.6610    1.7170   18.4380 C   0  0  0  0  0  0  0  0  0  0  0  0
    3.8860    2.1050   19.5250 C   0  0  0  0  0  0  0  0  0  0  0  0
    4.2460    1.7520   20.8250 C   0  0  0  0  0  0  0  0  0  0  0  0
    5.3890    1.0010   21.0690 C   0  0  0  0  0  0  0  0  0  0  0  0
    9.0430    0.2380   21.4940 C   0  0  0  0  0  0  0  0  0  0  0  0
    7.9496   -4.9537   28.7345 C   0  0  0  0  0  0  0  0  0  0  0  0
    6.8919   -4.0607   28.0818 C   0  0  0  0  0  0  0  0  0  0  0  0
    9.2470   -4.9693   27.9230 C   0  0  0  0  0  0  0  0  0  0  0  0
    6.6889   -4.4385   26.6147 C   0  0  0  0  0  0  0  0  0  0  0  0
    8.9871   -5.3207   26.4549 C   0  0  0  0  0  0  0  0  0  0  0  0
   10.7220    0.6590   23.1850 C   0  0  0  0  0  0  0  0  0  0  0  0
    9.5820   -0.1080   22.7000 C   0  0  2  0  0  0  0  0  0  0  0  0
    6.7100    0.3850   17.8100 N   0  0  0  0  0  0  0  0  0  0  0  0
    7.5840   -0.2700   18.5160 N   0  0  0  0  0  0  0  0  0  0  0  0
    6.1460    0.6070   19.9750 N   0  0  0  0  0  0  0  0  0  0  0  0
    7.9769   -4.4027   25.9163 N   0  0  0  0  0  0  0  0  0  0  0  0
    8.0950   -0.7700   20.8440 N   0  0  0  0  0  0  0  0  0  0  0  0
    9.2950    1.3000   20.9480 O   0  0  0  0  0  0  0  0  0  0  0  0
   14.7783   -2.5184   24.0025 Cl  0  0  0  0  0  0  0  0  0  0  0  0
   14.2752    0.4162   20.1647 H   0  0  0  0  0  0  0  0  0  0  0  0
   12.0969    1.3090   20.9213 H   0  0  0  0  0  0  0  0  0  0  0  0
   10.2684   -2.6719   22.3867 H   0  0  0  0  0  0  0  0  0  0  0  0
    7.8717   -0.0016   24.7596 H   0  0  0  0  0  0  0  0  0  0  0  0
    9.5443   -4.5616   23.7817 H   0  0  0  0  0  0  0  0  0  0  0  0
    7.1921   -1.8821   26.1908 H   0  0  0  0  0  0  0  0  0  0  0  0
   15.4670   -1.2723   21.5150 H   0  0  0  0  0  0  0  0  0  0  0  0
   12.2822   -1.1898   24.4173 H   0  0  0  0  0  0  0  0  0  0  0  0
    4.3710    2.0145   17.4451 H   0  0  0  0  0  0  0  0  0  0  0  0
    2.9929    2.6891   19.3400 H   0  0  0  0  0  0  0  0  0  0  0  0
    3.6320    2.0596   21.6814 H   0  0  0  0  0  0  0  0  0  0  0  0
    5.6863    0.7288   22.0575 H   0  0  0  0  0  0  0  0  0  0  0  0
    8.1558   -4.5961   29.7550 H   0  0  0  0  0  0  0  0  0  0  0  0
    7.5611   -5.9778   28.8324 H   0  0  0  0  0  0  0  0  0  0  0  0
    5.9459   -4.1594   28.6209 H   0  0  0  0  0  0  0  0  0  0  0  0
    7.2011   -3.0160   28.1536 H   0  0  0  0  0  0  0  0  0  0  0  0
    9.7290   -3.9880   27.9846 H   0  0  0  0  0  0  0  0  0  0  0  0
    9.9437   -5.6964   28.3562 H   0  0  0  0  0  0  0  0  0  0  0  0
    6.2543   -5.4402   26.5659 H   0  0  0  0  0  0  0  0  0  0  0  0
    5.9909   -3.7397   26.1451 H   0  0  0  0  0  0  0  0  0  0  0  0
    9.9128   -5.2367   25.8843 H   0  0  0  0  0  0  0  0  0  0  0  0
    8.6365   -6.3517   26.3987 H   0  0  0  0  0  0  0  0  0  0  0  0
   10.7177    0.7189   24.2812 H   0  0  0  0  0  0  0  0  0  0  0  0
   10.6426    1.6980   22.8361 H   0  0  0  0  0  0  0  0  0  0  0  0
    8.7036    0.8022   23.4008 H   0  0  0  0  0  0  0  0  0  0  0  0
    8.0917   -1.6083   21.0911 H   0  0  0  0  0  0  0  0  0  0  0  0
  1  2  2  0  0  0  0
  1  7  1  0  0  0  0
  2 10  1  0  0  0  0
  3  5  2  0  0  0  0
  3  9  1  0  0  0  0
  4  6  1  0  0  0  0
  4  9  2  0  0  0  0
  5 11  1  0  0  0  0
  6 11  2  0  0  0  0
  7 12  2  0  0  0  0
  8 10  2  0  0  0  0
  8 12  1  0  0  0  0
  9 26  1  0  0  0  0
 10 25  1  0  0  0  0
 11 30  1  0  0  0  0
 12 33  1  0  0  0  0
 13 15  1  0  0  0  0
 13 27  2  0  0  0  0
 13 29  1  0  0  0  0
 14 28  2  0  0  0  0
 14 29  1  0  0  0  0
 14 31  1  0  0  0  0
 15 16  2  0  0  0  0
 16 17  1  0  0  0  0
 17 18  2  0  0  0  0
 18 29  1  0  0  0  0
 19 26  1  6  0  0  0
 19 31  1  0  0  0  0
 19 32  2  0  0  0  0
 20 21  1  0  0  0  0
 20 22  1  0  0  0  0
 21 23  1  0  0  0  0
 22 24  1  0  0  0  0
 23 30  1  0  0  0  0
 24 30  1  0  0  0  0
 25 26  1  0  0  0  0
 27 28  1  0  0  0  0
  1 34  1  0  0  0  0
  2 35  1  0  0  0  0
  3 36  1  0  0  0  0
  4 37  1  0  0  0  0
  5 38  1  0  0  0  0
  6 39  1  0  0  0  0
  7 40  1  0  0  0  0
  8 41  1  0  0  0  0
 15 42  1  0  0  0  0
 16 43  1  0  0  0  0
 17 44  1  0  0  0  0
 18 45  1  0  0  0  0
 20 46  1  0  0  0  0
 20 47  1  0  0  0  0
 21 48  1  0  0  0  0
 21 49  1  0  0  0  0
 22 50  1  0  0  0  0
 22 51  1  0  0  0  0
 23 52  1  0  0  0  0
 23 53  1  0  0  0  0
 24 54  1  0  0  0  0
 24 55  1  0  0  0  0
 25 56  1  0  0  0  0
 25 57  1  0  0  0  0
 26 58  1  0  0  0  0
 31 59  1  0  0  0  0
M  END
> <clash_score>
0

> <docking_score>
-6.900196075439453

> <overlap_score>
0.9647058248519897

$$$$
BENZO_318_1
  -OEChem-08222022463D

 59 63  0     1  0  0  0  0  0999 V2000
   13.0607   -1.4512   25.3114 C   0  0  0  0  0  0  0  0  0  0  0  0
   11.9842   -0.6540   24.9226 C   0  0  0  0  0  0  0  0  0  0  0  0
    9.5890   -2.4950   23.2210 C   0  0  0  0  0  0  0  0  0  0  0  0
    8.2550   -1.0010   24.5520 C   0  0  0  0  0  0  0  0  0  0  0  0
    9.1890   -3.5540   24.0140 C   0  0  0  0  0  0  0  0  0  0  0  0
    7.8700   -2.0610   25.3550 C   0  0  0  0  0  0  0  0  0  0  0  0
   14.0427   -1.7979   24.3834 C   0  0  0  0  0  0  0  0  0  0  0  0
   12.8715   -0.5505   22.6778 C   0  0  0  0  0  0  0  0  0  0  0  0
    9.1280   -1.2090   23.4870 C   0  0  0  0  0  0  0  0  0  0  0  0
   11.8895   -0.2037   23.6058 C   0  0  0  0  0  0  0  0  0  0  0  0
    8.3450   -3.3440   25.0980 C   0  0  0  0  0  0  0  0  0  0  0  0
   13.9481   -1.3476   23.0666 C   0  0  0  0  0  0  0  0  0  0  0  0
    5.7970    0.9500   18.6730 C   0  0  0  0  0  0  0  0  0  0  0  0
    7.2710   -0.1460   19.8310 C   0  0  0  0  0  0  0  0  0  0  0  0
    4.6610    1.7170   18.4380 C   0  0  0  0  0  0  0  0  0  0  0  0
    3.8860    2.1050   19.5250 C   0  0  0  0  0  0  0  0  0  0  0  0
    4.2460    1.7520   20.8250 C   0  0  0  0  0  0  0  0  0  0  0  0
    5.3890    1.0010   21.0690 C   0  0  0  0  0  0  0  0  0  0  0  0
    9.0430    0.2380   21.4940 C   0  0  0  0  0  0  0  0  0  0  0  0
    7.9496   -4.9537   28.7345 C   0  0  0  0  0  0  0  0  0  0  0  0
    6.8919   -4.0607   28.0818 C   0  0  0  0  0  0  0  0  0  0  0  0
    9.2470   -4.9693   27.9230 C   0  0  0  0  0  0  0  0  0  0  0  0
    6.6889   -4.4385   26.6147 C   0  0  0  0  0  0  0  0  0  0  0  0
    8.9871   -5.3207   26.4549 C   0  0  0  0  0  0  0  0  0  0  0  0
   10.7220    0.6590   23.1850 C   0  0  0  0  0  0  0  0  0  0  0  0
    9.5820   -0.1080   22.7000 C   0  0  1  0  0  0  0  0  0  0  0  0
    6.7100    0.3850   17.8100 N   0  0  0  0  0  0  0  0  0  0  0  0
    7.5840   -0.2700   18.5160 N   0  0  0  0  0  0  0  0  0  0  0  0
    6.1460    0.6070   19.9750 N   0  0  0  0  0  0  0  0  0  0  0  0
    7.9769   -4.4027   25.9163 N   0  0  0  0  0  0  0  0  0  0  0  0
    8.0950   -0.7700   20.8440 N   0  0  0  0  0  0  0  0  0  0  0  0
    9.2950    1.3000   20.9480 O   0  0  0  0  0  0  0  0  0  0  0  0
   15.1593   -1.7768   21.9219 Cl  0  0  0  0  0  0  0  0  0  0  0  0
   13.1340   -1.8017   26.3368 H   0  0  0  0  0  0  0  0  0  0  0  0
   11.2236   -0.3888   25.6524 H   0  0  0  0  0  0  0  0  0  0  0  0
   10.2684   -2.6719   22.3867 H   0  0  0  0  0  0  0  0  0  0  0  0
    7.8717   -0.0016   24.7596 H   0  0  0  0  0  0  0  0  0  0  0  0
    9.5443   -4.5616   23.7817 H   0  0  0  0  0  0  0  0  0  0  0  0
    7.1921   -1.8821   26.1908 H   0  0  0  0  0  0  0  0  0  0  0  0
   14.8761   -2.4201   24.7005 H   0  0  0  0  0  0  0  0  0  0  0  0
   12.7934   -0.1965   21.6525 H   0  0  0  0  0  0  0  0  0  0  0  0
    4.3710    2.0145   17.4451 H   0  0  0  0  0  0  0  0  0  0  0  0
    2.9929    2.6891   19.3400 H   0  0  0  0  0  0  0  0  0  0  0  0
    3.6320    2.0596   21.6814 H   0  0  0  0  0  0  0  0  0  0  0  0
    5.6863    0.7288   22.0575 H   0  0  0  0  0  0  0  0  0  0  0  0
    8.1558   -4.5961   29.7550 H   0  0  0  0  0  0  0  0  0  0  0  0
    7.5611   -5.9778   28.8324 H   0  0  0  0  0  0  0  0  0  0  0  0
    5.9459   -4.1594   28.6209 H   0  0  0  0  0  0  0  0  0  0  0  0
    7.2011   -3.0160   28.1536 H   0  0  0  0  0  0  0  0  0  0  0  0
    9.7290   -3.9880   27.9846 H   0  0  0  0  0  0  0  0  0  0  0  0
    9.9437   -5.6964   28.3562 H   0  0  0  0  0  0  0  0  0  0  0  0
    6.2543   -5.4402   26.5659 H   0  0  0  0  0  0  0  0  0  0  0  0
    5.9909   -3.7397   26.1451 H   0  0  0  0  0  0  0  0  0  0  0  0
    9.9128   -5.2367   25.8843 H   0  0  0  0  0  0  0  0  0  0  0  0
    8.6365   -6.3517   26.3987 H   0  0  0  0  0  0  0  0  0  0  0  0
   10.4315    1.3089   24.0208 H   0  0  0  0  0  0  0  0  0  0  0  0
   11.0719    1.3385   22.3955 H   0  0  0  0  0  0  0  0  0  0  0  0
   10.5438   -0.9939   22.0202 H   0  0  0  0  0  0  0  0  0  0  0  0
    8.0917   -1.6083   21.0911 H   0  0  0  0  0  0  0  0  0  0  0  0
  1  2  2  0  0  0  0
  1  7  1  0  0  0  0
  2 10  1  0  0  0  0
  3  5  2  0  0  0  0
  3  9  1  0  0  0  0
  4  6  1  0  0  0  0
  4  9  2  0  0  0  0
  5 11  1  0  0  0  0
  6 11  2  0  0  0  0
  7 12  2  0  0  0  0
  8 10  2  0  0  0  0
  8 12  1  0  0  0  0
  9 26  1  0  0  0  0
 10 25  1  0  0  0  0
 11 30  1  0  0  0  0
 12 33  1  0  0  0  0
 13 15  1  0  0  0  0
 13 27  2  0  0  0  0
 13 29  1  0  0  0  0
 14 28  2  0  0  0  0
 14 29  1  0  0  0  0
 14 31  1  0  0  0  0
 15 16  2  0  0  0  0
 16 17  1  0  0  0  0
 17 18  2  0  0  0  0
 18 29  1  0  0  0  0
 19 26  1  1  0  0  0
 19 31  1  0  0  0  0
 19 32  2  0  0  0  0
 20 21  1  0  0  0  0
 20 22  1  0  0  0  0
 21 23  1  0  0  0  0
 22 24  1  0  0  0  0
 23 30  1  0  0  0  0
 24 30  1  0  0  0  0
 25 26  1  0  0  0  0
 27 28  1  0  0  0  0
  1 34  1  0  0  0  0
  2 35  1  0  0  0  0
  3 36  1  0  0  0  0
  4 37  1  0  0  0  0
  5 38  1  0  0  0  0
  6 39  1  0  0  0  0
  7 40  1  0  0  0  0
  8 41  1  0  0  0  0
 15 42  1  0  0  0  0
 16 43  1  0  0  0  0
 17 44  1  0  0  0  0
 18 45  1  0  0  0  0
 20 46  1  0  0  0  0
 20 47  1  0  0  0  0
 21 48  1  0  0  0  0
 21 49  1  0  0  0  0
 22 50  1  0  0  0  0
 22 51  1  0  0  0  0
 23 52  1  0  0  0  0
 23 53  1  0  0  0  0
 24 54  1  0  0  0  0
 24 55  1  0  0  0  0
 25 56  1  0  0  0  0
 25 57  1  0  0  0  0
 26 58  1  0  0  0  0
 31 59  1  0  0  0  0
M  END
> <clash_score>
0

> <docking_score>
-7.541355133056641

> <overlap_score>
0.9773684144020081

$$$$
BENZO_322_1
  -OEChem-08222022463D

 47 50  0     1  0  0  0  0  0999 V2000
   13.8165    0.0398   21.0674 C   0  0  0  0  0  0  0  0  0  0  0  0
   12.5963    0.5519   21.5081 C   0  0  0  0  0  0  0  0  0  0  0  0
    9.1890   -3.5540   24.0140 C   0  0  0  0  0  0  0  0  0  0  0  0
    7.8700   -2.0610   25.3550 C   0  0  0  0  0  0  0  0  0  0  0  0
    9.5890   -2.4950   23.2210 C   0  0  0  0  0  0  0  0  0  0  0  0
    8.2550   -1.0010   24.5520 C   0  0  0  0  0  0  0  0  0  0  0  0
   14.4843   -0.9216   21.8261 C   0  0  0  0  0  0  0  0  0  0  0  0
   12.7115   -0.8586   23.4663 C   0  0  0  0  0  0  0  0  0  0  0  0
    8.3450   -3.3440   25.0980 C   0  0  0  0  0  0  0  0  0  0  0  0
    9.1280   -1.2090   23.4870 C   0  0  0  0  0  0  0  0  0  0  0  0
   12.0437    0.1027   22.7075 C   0  0  0  0  0  0  0  0  0  0  0  0
   13.9318   -1.3708   23.0255 C   0  0  0  0  0  0  0  0  0  0  0  0
    5.7970    0.9500   18.6730 C   0  0  0  0  0  0  0  0  0  0  0  0
    7.2710   -0.1460   19.8310 C   0  0  0  0  0  0  0  0  0  0  0  0
    4.6610    1.7170   18.4380 C   0  0  0  0  0  0  0  0  0  0  0  0
    3.8860    2.1050   19.5250 C   0  0  0  0  0  0  0  0  0  0  0  0
    4.2460    1.7520   20.8250 C   0  0  0  0  0  0  0  0  0  0  0  0
    5.3890    1.0010   21.0690 C   0  0  0  0  0  0  0  0  0  0  0  0
    9.0430    0.2380   21.4940 C   0  0  0  0  0  0  0  0  0  0  0  0
    7.9517   -4.4787   25.9770 C   0  0  0  0  0  0  0  0  0  0  0  0
   10.7220    0.6590   23.1850 C   0  0  0  0  0  0  0  0  0  0  0  0
    9.5820   -0.1080   22.7000 C   0  0  1  0  0  0  0  0  0  0  0  0
    6.7100    0.3850   17.8100 N   0  0  0  0  0  0  0  0  0  0  0  0
    7.5840   -0.2700   18.5160 N   0  0  0  0  0  0  0  0  0  0  0  0
    6.1460    0.6070   19.9750 N   0  0  0  0  0  0  0  0  0  0  0  0
    8.0950   -0.7700   20.8440 N   0  0  0  0  0  0  0  0  0  0  0  0
    9.2950    1.3000   20.9480 O   0  0  0  0  0  0  0  0  0  0  0  0
   14.7567   -2.5560   23.9617 Cl  0  0  0  0  0  0  0  0  0  0  0  0
   14.2465    0.3899   20.1334 H   0  0  0  0  0  0  0  0  0  0  0  0
   12.0830    1.3007   20.9105 H   0  0  0  0  0  0  0  0  0  0  0  0
    9.5416   -4.5625   23.7818 H   0  0  0  0  0  0  0  0  0  0  0  0
    7.1926   -1.8847   26.1916 H   0  0  0  0  0  0  0  0  0  0  0  0
   10.2688   -2.6720   22.3870 H   0  0  0  0  0  0  0  0  0  0  0  0
    7.8705   -0.0015   24.7579 H   0  0  0  0  0  0  0  0  0  0  0  0
   15.4348   -1.3117   21.4704 H   0  0  0  0  0  0  0  0  0  0  0  0
   12.2763   -1.2059   24.4005 H   0  0  0  0  0  0  0  0  0  0  0  0
    4.3710    2.0145   17.4451 H   0  0  0  0  0  0  0  0  0  0  0  0
    2.9929    2.6891   19.3400 H   0  0  0  0  0  0  0  0  0  0  0  0
    3.6320    2.0596   21.6814 H   0  0  0  0  0  0  0  0  0  0  0  0
    5.6863    0.7288   22.0575 H   0  0  0  0  0  0  0  0  0  0  0  0
    8.6661   -4.5883   26.8021 H   0  0  0  0  0  0  0  0  0  0  0  0
    6.9508   -4.3263   26.4014 H   0  0  0  0  0  0  0  0  0  0  0  0
    7.9188   -5.4228   25.4175 H   0  0  0  0  0  0  0  0  0  0  0  0
   10.7266    0.7141   24.2815 H   0  0  0  0  0  0  0  0  0  0  0  0
   10.6502    1.7003   22.8412 H   0  0  0  0  0  0  0  0  0  0  0  0
    8.7027    0.7972   23.4026 H   0  0  0  0  0  0  0  0  0  0  0  0
    8.0706   -1.6189   21.0730 H   0  0  0  0  0  0  0  0  0  0  0  0
  1  2  2  0  0  0  0
  1  7  1  0  0  0  0
  2 11  1  0  0  0  0
  3  5  2  0  0  0  0
  3  9  1  0  0  0  0
  4  6  1  0  0  0  0
  4  9  2  0  0  0  0
  5 10  1  0  0  0  0
  6 10  2  0  0  0  0
  7 12  2  0  0  0  0
  8 11  2  0  0  0  0
  8 12  1  0  0  0  0
  9 20  1  0  0  0  0
 10 22  1  0  0  0  0
 11 21  1  0  0  0  0
 12 28  1  0  0  0  0
 13 15  1  0  0  0  0
 13 23  2  0  0  0  0
 13 25  1  0  0  0  0
 14 24  2  0  0  0  0
 14 25  1  0  0  0  0
 14 26  1  0  0  0  0
 15 16  2  0  0  0  0
 16 17  1  0  0  0  0
 17 18  2  0  0  0  0
 18 25  1  0  0  0  0
 19 22  1  0  0  0  0
 19 26  1  0  0  0  0
 19 27  2  0  0  0  0
 21 22  1  1  0  0  0
 23 24  1  0  0  0  0
  1 29  1  0  0  0  0
  2 30  1  0  0  0  0
  3 31  1  0  0  0  0
  4 32  1  0  0  0  0
  5 33  1  0  0  0  0
  6 34  1  0  0  0  0
  7 35  1  0  0  0  0
  8 36  1  0  0  0  0
 15 37  1  0  0  0  0
 16 38  1  0  0  0  0
 17 39  1  0  0  0  0
 18 40  1  0  0  0  0
 20 41  1  0  0  0  0
 20 42  1  0  0  0  0
 20 43  1  0  0  0  0
 21 44  1  0  0  0  0
 21 45  1  0  0  0  0
 22 46  1  0  0  0  0
 26 47  1  0  0  0  0
M  END
> <clash_score>
0

> <docking_score>
-6.202454566955566

> <overlap_score>
0.8771752715110779

$$$$
BENZO_323_1
  -OEChem-08222022463D

 47 50  0     1  0  0  0  0  0999 V2000
    9.1890   -3.5540   24.0140 C   0  0  0  0  0  0  0  0  0  0  0  0
    7.8700   -2.0610   25.3550 C   0  0  0  0  0  0  0  0  0  0  0  0
    9.5890   -2.4950   23.2210 C   0  0  0  0  0  0  0  0  0  0  0  0
    8.2550   -1.0010   24.5520 C   0  0  0  0  0  0  0  0  0  0  0  0
   12.7477    0.4352   21.5346 C   0  0  0  0  0  0  0  0  0  0  0  0
   12.8294   -0.8403   23.3239 C   0  0  0  0  0  0  0  0  0  0  0  0
    8.3450   -3.3440   25.0980 C   0  0  0  0  0  0  0  0  0  0  0  0
    9.1280   -1.2090   23.4870 C   0  0  0  0  0  0  0  0  0  0  0  0
   12.0437    0.1027   22.7075 C   0  0  0  0  0  0  0  0  0  0  0  0
    5.7970    0.9500   18.6730 C   0  0  0  0  0  0  0  0  0  0  0  0
    7.2710   -0.1460   19.8310 C   0  0  0  0  0  0  0  0  0  0  0  0
    4.6610    1.7170   18.4380 C   0  0  0  0  0  0  0  0  0  0  0  0
    3.8860    2.1050   19.5250 C   0  0  0  0  0  0  0  0  0  0  0  0
    4.2460    1.7520   20.8250 C   0  0  0  0  0  0  0  0  0  0  0  0
    5.3890    1.0010   21.0690 C   0  0  0  0  0  0  0  0  0  0  0  0
    9.0430    0.2380   21.4940 C   0  0  0  0  0  0  0  0  0  0  0  0
    7.9517   -4.4787   25.9770 C   0  0  0  0  0  0  0  0  0  0  0  0
   15.0234   -1.9028   22.7442 C   0  0  0  0  0  0  0  0  0  0  0  0
   10.7220    0.6590   23.1850 C   0  0  0  0  0  0  0  0  0  0  0  0
    9.5820   -0.1080   22.7000 C   0  0  1  0  0  0  0  0  0  0  0  0
   13.8926   -0.2416   21.4111 N   0  0  0  0  0  0  0  0  0  0  0  0
    6.7100    0.3850   17.8100 N   0  0  0  0  0  0  0  0  0  0  0  0
    7.5840   -0.2700   18.5160 N   0  0  0  0  0  0  0  0  0  0  0  0
   13.9141   -1.0086   22.5144 N   0  0  0  0  0  0  0  0  0  0  0  0
    6.1460    0.6070   19.9750 N   0  0  0  0  0  0  0  0  0  0  0  0
    8.0950   -0.7700   20.8440 N   0  0  0  0  0  0  0  0  0  0  0  0
    9.2950    1.3000   20.9480 O   0  0  0  0  0  0  0  0  0  0  0  0
    9.5416   -4.5625   23.7818 H   0  0  0  0  0  0  0  0  0  0  0  0
    7.1926   -1.8847   26.1916 H   0  0  0  0  0  0  0  0  0  0  0  0
   10.2688   -2.6720   22.3870 H   0  0  0  0  0  0  0  0  0  0  0  0
    7.8705   -0.0015   24.7579 H   0  0  0  0  0  0  0  0  0  0  0  0
   12.4767    1.1426   20.7637 H   0  0  0  0  0  0  0  0  0  0  0  0
   12.7125   -1.3913   24.2472 H   0  0  0  0  0  0  0  0  0  0  0  0
    4.3710    2.0145   17.4451 H   0  0  0  0  0  0  0  0  0  0  0  0
    2.9929    2.6891   19.3400 H   0  0  0  0  0  0  0  0  0  0  0  0
    3.6320    2.0596   21.6814 H   0  0  0  0  0  0  0  0  0  0  0  0
    5.6863    0.7288   22.0575 H   0  0  0  0  0  0  0  0  0  0  0  0
    8.6661   -4.5883   26.8021 H   0  0  0  0  0  0  0  0  0  0  0  0
    6.9508   -4.3263   26.4014 H   0  0  0  0  0  0  0  0  0  0  0  0
    7.9188   -5.4228   25.4175 H   0  0  0  0  0  0  0  0  0  0  0  0
   14.7824   -2.8646   22.2839 H   0  0  0  0  0  0  0  0  0  0  0  0
   15.9289   -1.4818   22.2983 H   0  0  0  0  0  0  0  0  0  0  0  0
   15.1758   -2.0203   23.8207 H   0  0  0  0  0  0  0  0  0  0  0  0
   10.7266    0.7141   24.2815 H   0  0  0  0  0  0  0  0  0  0  0  0
   10.6502    1.7003   22.8412 H   0  0  0  0  0  0  0  0  0  0  0  0
    8.7027    0.7972   23.4026 H   0  0  0  0  0  0  0  0  0  0  0  0
    8.0706   -1.6189   21.0730 H   0  0  0  0  0  0  0  0  0  0  0  0
  1  3  2  0  0  0  0
  1  7  1  0  0  0  0
  2  4  1  0  0  0  0
  2  7  2  0  0  0  0
  3  8  1  0  0  0  0
  4  8  2  0  0  0  0
  5  9  1  0  0  0  0
  5 21  2  0  0  0  0
  6  9  2  0  0  0  0
  6 24  1  0  0  0  0
  7 17  1  0  0  0  0
  8 20  1  0  0  0  0
  9 19  1  0  0  0  0
 10 12  1  0  0  0  0
 10 22  2  0  0  0  0
 10 25  1  0  0  0  0
 11 23  2  0  0  0  0
 11 25  1  0  0  0  0
 11 26  1  0  0  0  0
 12 13  2  0  0  0  0
 13 14  1  0  0  0  0
 14 15  2  0  0  0  0
 15 25  1  0  0  0  0
 16 20  1  0  0  0  0
 16 26  1  0  0  0  0
 16 27  2  0  0  0  0
 18 24  1  0  0  0  0
 19 20  1  1  0  0  0
 21 24  1  0  0  0  0
 22 23  1  0  0  0  0
  1 28  1  0  0  0  0
  2 29  1  0  0  0  0
  3 30  1  0  0  0  0
  4 31  1  0  0  0  0
  5 32  1  0  0  0  0
  6 33  1  0  0  0  0
 12 34  1  0  0  0  0
 13 35  1  0  0  0  0
 14 36  1  0  0  0  0
 15 37  1  0  0  0  0
 17 38  1  0  0  0  0
 17 39  1  0  0  0  0
 17 40  1  0  0  0  0
 18 41  1  0  0  0  0
 18 42  1  0  0  0  0
 18 43  1  0  0  0  0
 19 44  1  0  0  0  0
 19 45  1  0  0  0  0
 20 46  1  0  0  0  0
 26 47  1  0  0  0  0
M  END
> <clash_score>
0

> <docking_score>
-5.5644001960754395

> <overlap_score>
0.8710412383079529

$$$$
BENZO_322_2
  -OEChem-08222022463D

 47 50  0     1  0  0  0  0  0999 V2000
   13.0334   -1.4852   25.3072 C   0  0  0  0  0  0  0  0  0  0  0  0
   11.9669   -0.6740   24.9199 C   0  0  0  0  0  0  0  0  0  0  0  0
    9.1890   -3.5540   24.0140 C   0  0  0  0  0  0  0  0  0  0  0  0
    7.8700   -2.0610   25.3550 C   0  0  0  0  0  0  0  0  0  0  0  0
    9.5890   -2.4950   23.2210 C   0  0  0  0  0  0  0  0  0  0  0  0
    8.2550   -1.0010   24.5520 C   0  0  0  0  0  0  0  0  0  0  0  0
   14.0118   -1.8413   24.3790 C   0  0  0  0  0  0  0  0  0  0  0  0
   12.8570   -0.5751   22.6760 C   0  0  0  0  0  0  0  0  0  0  0  0
    8.3450   -3.3440   25.0980 C   0  0  0  0  0  0  0  0  0  0  0  0
    9.1280   -1.2090   23.4870 C   0  0  0  0  0  0  0  0  0  0  0  0
   11.8786   -0.2190   23.6043 C   0  0  0  0  0  0  0  0  0  0  0  0
   13.9235   -1.3863   23.0634 C   0  0  0  0  0  0  0  0  0  0  0  0
    5.7970    0.9500   18.6730 C   0  0  0  0  0  0  0  0  0  0  0  0
    7.2710   -0.1460   19.8310 C   0  0  0  0  0  0  0  0  0  0  0  0
    4.6610    1.7170   18.4380 C   0  0  0  0  0  0  0  0  0  0  0  0
    3.8860    2.1050   19.5250 C   0  0  0  0  0  0  0  0  0  0  0  0
    4.2460    1.7520   20.8250 C   0  0  0  0  0  0  0  0  0  0  0  0
    5.3890    1.0010   21.0690 C   0  0  0  0  0  0  0  0  0  0  0  0
    9.0430    0.2380   21.4940 C   0  0  0  0  0  0  0  0  0  0  0  0
    7.9517   -4.4787   25.9770 C   0  0  0  0  0  0  0  0  0  0  0  0
   10.7220    0.6590   23.1850 C   0  0  0  0  0  0  0  0  0  0  0  0
    9.5820   -0.1080   22.7000 C   0  0  2  0  0  0  0  0  0  0  0  0
    6.7100    0.3850   17.8100 N   0  0  0  0  0  0  0  0  0  0  0  0
    7.5840   -0.2700   18.5160 N   0  0  0  0  0  0  0  0  0  0  0  0
    6.1460    0.6070   19.9750 N   0  0  0  0  0  0  0  0  0  0  0  0
    8.0950   -0.7700   20.8440 N   0  0  0  0  0  0  0  0  0  0  0  0
    9.2950    1.3000   20.9480 O   0  0  0  0  0  0  0  0  0  0  0  0
   15.1303   -1.8270   21.9183 Cl  0  0  0  0  0  0  0  0  0  0  0  0
   13.1017   -1.8394   26.3318 H   0  0  0  0  0  0  0  0  0  0  0  0
   11.2091   -0.4015   25.6498 H   0  0  0  0  0  0  0  0  0  0  0  0
    9.5416   -4.5625   23.7818 H   0  0  0  0  0  0  0  0  0  0  0  0
    7.1926   -1.8847   26.1916 H   0  0  0  0  0  0  0  0  0  0  0  0
   10.2688   -2.6720   22.3870 H   0  0  0  0  0  0  0  0  0  0  0  0
    7.8705   -0.0015   24.7579 H   0  0  0  0  0  0  0  0  0  0  0  0
   14.8373   -2.4744   24.6949 H   0  0  0  0  0  0  0  0  0  0  0  0
   12.7839   -0.2174   21.6515 H   0  0  0  0  0  0  0  0  0  0  0  0
    4.3710    2.0145   17.4451 H   0  0  0  0  0  0  0  0  0  0  0  0
    2.9929    2.6891   19.3400 H   0  0  0  0  0  0  0  0  0  0  0  0
    3.6320    2.0596   21.6814 H   0  0  0  0  0  0  0  0  0  0  0  0
    5.6863    0.7288   22.0575 H   0  0  0  0  0  0  0  0  0  0  0  0
    8.6661   -4.5883   26.8021 H   0  0  0  0  0  0  0  0  0  0  0  0
    6.9508   -4.3263   26.4014 H   0  0  0  0  0  0  0  0  0  0  0  0
    7.9188   -5.4228   25.4175 H   0  0  0  0  0  0  0  0  0  0  0  0
   10.4369    1.3080   24.0233 H   0  0  0  0  0  0  0  0  0  0  0  0
   11.0815    1.3384   22.3997 H   0  0  0  0  0  0  0  0  0  0  0  0
   10.5413   -0.9955   22.0233 H   0  0  0  0  0  0  0  0  0  0  0  0
    8.0706   -1.6189   21.0730 H   0  0  0  0  0  0  0  0  0  0  0  0
  1  2  2  0  0  0  0
  1  7  1  0  0  0  0
  2 11  1  0  0  0  0
  3  5  2  0  0  0  0
  3  9  1  0  0  0  0
  4  6  1  0  0  0  0
  4  9  2  0  0  0  0
  5 10  1  0  0  0  0
  6 10  2  0  0  0  0
  7 12  2  0  0  0  0
  8 11  2  0  0  0  0
  8 12  1  0  0  0  0
  9 20  1  0  0  0  0
 10 22  1  0  0  0  0
 11 21  1  0  0  0  0
 12 28  1  0  0  0  0
 13 15  1  0  0  0  0
 13 23  2  0  0  0  0
 13 25  1  0  0  0  0
 14 24  2  0  0  0  0
 14 25  1  0  0  0  0
 14 26  1  0  0  0  0
 15 16  2  0  0  0  0
 16 17  1  0  0  0  0
 17 18  2  0  0  0  0
 18 25  1  0  0  0  0
 19 22  1  0  0  0  0
 19 26  1  0  0  0  0
 19 27  2  0  0  0  0
 21 22  1  6  0  0  0
 23 24  1  0  0  0  0
  1 29  1  0  0  0  0
  2 30  1  0  0  0  0
  3 31  1  0  0  0  0
  4 32  1  0  0  0  0
  5 33  1  0  0  0  0
  6 34  1  0  0  0  0
  7 35  1  0  0  0  0
  8 36  1  0  0  0  0
 15 37  1  0  0  0  0
 16 38  1  0  0  0  0
 17 39  1  0  0  0  0
 18 40  1  0  0  0  0
 20 41  1  0  0  0  0
 20 42  1  0  0  0  0
 20 43  1  0  0  0  0
 21 44  1  0  0  0  0
 21 45  1  0  0  0  0
 22 46  1  0  0  0  0
 26 47  1  0  0  0  0
M  END
> <clash_score>
0

> <docking_score>
-6.722735404968262

> <overlap_score>
0.8895041942596436

$$$$
BENZO_323_2
  -OEChem-08222022463D

 47 50  0     1  0  0  0  0  0999 V2000
    9.1890   -3.5540   24.0140 C   0  0  0  0  0  0  0  0  0  0  0  0
    7.8700   -2.0610   25.3550 C   0  0  0  0  0  0  0  0  0  0  0  0
    9.5890   -2.4950   23.2210 C   0  0  0  0  0  0  0  0  0  0  0  0
    8.2550   -1.0010   24.5520 C   0  0  0  0  0  0  0  0  0  0  0  0
   12.1294   -0.7684   24.8759 C   0  0  0  0  0  0  0  0  0  0  0  0
   12.9208   -0.6622   22.8272 C   0  0  0  0  0  0  0  0  0  0  0  0
    8.3450   -3.3440   25.0980 C   0  0  0  0  0  0  0  0  0  0  0  0
    9.1280   -1.2090   23.4870 C   0  0  0  0  0  0  0  0  0  0  0  0
   11.8786   -0.2190   23.6043 C   0  0  0  0  0  0  0  0  0  0  0  0
    5.7970    0.9500   18.6730 C   0  0  0  0  0  0  0  0  0  0  0  0
    7.2710   -0.1460   19.8310 C   0  0  0  0  0  0  0  0  0  0  0  0
    4.6610    1.7170   18.4380 C   0  0  0  0  0  0  0  0  0  0  0  0
    3.8860    2.1050   19.5250 C   0  0  0  0  0  0  0  0  0  0  0  0
    4.2460    1.7520   20.8250 C   0  0  0  0  0  0  0  0  0  0  0  0
    5.3890    1.0010   21.0690 C   0  0  0  0  0  0  0  0  0  0  0  0
    9.0430    0.2380   21.4940 C   0  0  0  0  0  0  0  0  0  0  0  0
    7.9517   -4.4787   25.9770 C   0  0  0  0  0  0  0  0  0  0  0  0
   14.9196   -2.1033   23.2819 C   0  0  0  0  0  0  0  0  0  0  0  0
   10.7220    0.6590   23.1850 C   0  0  0  0  0  0  0  0  0  0  0  0
    9.5820   -0.1080   22.7000 C   0  0  2  0  0  0  0  0  0  0  0  0
   13.2434   -1.5045   24.9090 N   0  0  0  0  0  0  0  0  0  0  0  0
    6.7100    0.3850   17.8100 N   0  0  0  0  0  0  0  0  0  0  0  0
    7.5840   -0.2700   18.5160 N   0  0  0  0  0  0  0  0  0  0  0  0
   13.7018   -1.4208   23.6485 N   0  0  0  0  0  0  0  0  0  0  0  0
    6.1460    0.6070   19.9750 N   0  0  0  0  0  0  0  0  0  0  0  0
    8.0950   -0.7700   20.8440 N   0  0  0  0  0  0  0  0  0  0  0  0
    9.2950    1.3000   20.9480 O   0  0  0  0  0  0  0  0  0  0  0  0
    9.5416   -4.5625   23.7818 H   0  0  0  0  0  0  0  0  0  0  0  0
    7.1926   -1.8847   26.1916 H   0  0  0  0  0  0  0  0  0  0  0  0
   10.2688   -2.6720   22.3870 H   0  0  0  0  0  0  0  0  0  0  0  0
    7.8705   -0.0015   24.7579 H   0  0  0  0  0  0  0  0  0  0  0  0
   11.5479   -0.6652   25.7811 H   0  0  0  0  0  0  0  0  0  0  0  0
   13.1664   -0.5073   21.7853 H   0  0  0  0  0  0  0  0  0  0  0  0
    4.3710    2.0145   17.4451 H   0  0  0  0  0  0  0  0  0  0  0  0
    2.9929    2.6891   19.3400 H   0  0  0  0  0  0  0  0  0  0  0  0
    3.6320    2.0596   21.6814 H   0  0  0  0  0  0  0  0  0  0  0  0
    5.6863    0.7288   22.0575 H   0  0  0  0  0  0  0  0  0  0  0  0
    8.6661   -4.5883   26.8021 H   0  0  0  0  0  0  0  0  0  0  0  0
    6.9508   -4.3263   26.4014 H   0  0  0  0  0  0  0  0  0  0  0  0
    7.9188   -5.4228   25.4175 H   0  0  0  0  0  0  0  0  0  0  0  0
   15.7545   -1.4186   23.4527 H   0  0  0  0  0  0  0  0  0  0  0  0
   15.0313   -3.0027   23.8939 H   0  0  0  0  0  0  0  0  0  0  0  0
   14.8692   -2.3913   22.2281 H   0  0  0  0  0  0  0  0  0  0  0  0
   10.4369    1.3080   24.0233 H   0  0  0  0  0  0  0  0  0  0  0  0
   11.0815    1.3384   22.3997 H   0  0  0  0  0  0  0  0  0  0  0  0
   10.5413   -0.9955   22.0233 H   0  0  0  0  0  0  0  0  0  0  0  0
    8.0706   -1.6189   21.0730 H   0  0  0  0  0  0  0  0  0  0  0  0
  1  3  2  0  0  0  0
  1  7  1  0  0  0  0
  2  4  1  0  0  0  0
  2  7  2  0  0  0  0
  3  8  1  0  0  0  0
  4  8  2  0  0  0  0
  5  9  1  0  0  0  0
  5 21  2  0  0  0  0
  6  9  2  0  0  0  0
  6 24  1  0  0  0  0
  7 17  1  0  0  0  0
  8 20  1  0  0  0  0
  9 19  1  0  0  0  0
 10 12  1  0  0  0  0
 10 22  2  0  0  0  0
 10 25  1  0  0  0  0
 11 23  2  0  0  0  0
 11 25  1  0  0  0  0
 11 26  1  0  0  0  0
 12 13  2  0  0  0  0
 13 14  1  0  0  0  0
 14 15  2  0  0  0  0
 15 25  1  0  0  0  0
 16 20  1  0  0  0  0
 16 26  1  0  0  0  0
 16 27  2  0  0  0  0
 18 24  1  0  0  0  0
 19 20  1  6  0  0  0
 21 24  1  0  0  0  0
 22 23  1  0  0  0  0
  1 28  1  0  0  0  0
  2 29  1  0  0  0  0
  3 30  1  0  0  0  0
  4 31  1  0  0  0  0
  5 32  1  0  0  0  0
  6 33  1  0  0  0  0
 12 34  1  0  0  0  0
 13 35  1  0  0  0  0
 14 36  1  0  0  0  0
 15 37  1  0  0  0  0
 17 38  1  0  0  0  0
 17 39  1  0  0  0  0
 17 40  1  0  0  0  0
 18 41  1  0  0  0  0
 18 42  1  0  0  0  0
 18 43  1  0  0  0  0
 19 44  1  0  0  0  0
 19 45  1  0  0  0  0
 20 46  1  0  0  0  0
 26 47  1  0  0  0  0
M  END
> <clash_score>
0

> <docking_score>
-6.672024726867676

> <overlap_score>
0.8850175142288208

$$$$
BENZO_325_1
  -OEChem-08222022463D

 48 51  0     1  0  0  0  0  0999 V2000
   14.4830   -0.9237   21.8248 C   0  0  0  0  0  0  0  0  0  0  0  0
   13.9310   -1.3719   23.0248 C   0  0  0  0  0  0  0  0  0  0  0  0
   13.8154    0.0379   21.0662 C   0  0  0  0  0  0  0  0  0  0  0  0
   12.7114   -0.8588   23.4661 C   0  0  0  0  0  0  0  0  0  0  0  0
   12.5958    0.5510   21.5075 C   0  0  0  0  0  0  0  0  0  0  0  0
    9.5890   -2.4950   23.2210 C   0  0  0  0  0  0  0  0  0  0  0  0
    8.2550   -1.0010   24.5520 C   0  0  0  0  0  0  0  0  0  0  0  0
    9.1890   -3.5540   24.0140 C   0  0  0  0  0  0  0  0  0  0  0  0
    7.8700   -2.0610   25.3550 C   0  0  0  0  0  0  0  0  0  0  0  0
   12.0437    0.1027   22.7075 C   0  0  0  0  0  0  0  0  0  0  0  0
    9.1280   -1.2090   23.4870 C   0  0  0  0  0  0  0  0  0  0  0  0
    8.3450   -3.3440   25.0980 C   0  0  0  0  0  0  0  0  0  0  0  0
    5.7970    0.9500   18.6730 C   0  0  0  0  0  0  0  0  0  0  0  0
    7.2710   -0.1460   19.8310 C   0  0  0  0  0  0  0  0  0  0  0  0
    4.6610    1.7170   18.4380 C   0  0  0  0  0  0  0  0  0  0  0  0
    3.8860    2.1050   19.5250 C   0  0  0  0  0  0  0  0  0  0  0  0
    4.2460    1.7520   20.8250 C   0  0  0  0  0  0  0  0  0  0  0  0
    5.3890    1.0010   21.0690 C   0  0  0  0  0  0  0  0  0  0  0  0
    9.0430    0.2380   21.4940 C   0  0  0  0  0  0  0  0  0  0  0  0
    7.1165   -4.0858   26.9913 C   0  0  0  0  0  0  0  0  0  0  0  0
   10.7220    0.6590   23.1850 C   0  0  0  0  0  0  0  0  0  0  0  0
    9.5820   -0.1080   22.7000 C   0  0  1  0  0  0  0  0  0  0  0  0
    6.7100    0.3850   17.8100 N   0  0  0  0  0  0  0  0  0  0  0  0
    7.5840   -0.2700   18.5160 N   0  0  0  0  0  0  0  0  0  0  0  0
    6.1460    0.6070   19.9750 N   0  0  0  0  0  0  0  0  0  0  0  0
    8.0950   -0.7700   20.8440 N   0  0  0  0  0  0  0  0  0  0  0  0
    9.2950    1.3000   20.9480 O   0  0  0  0  0  0  0  0  0  0  0  0
    7.9856   -4.3803   25.8987 O   0  0  0  0  0  0  0  0  0  0  0  0
   15.4334   -1.3223   21.4820 H   0  0  0  0  0  0  0  0  0  0  0  0
   14.4512   -2.1198   23.6162 H   0  0  0  0  0  0  0  0  0  0  0  0
   14.2454    0.3879   20.1325 H   0  0  0  0  0  0  0  0  0  0  0  0
   12.2887   -1.2141   24.4023 H   0  0  0  0  0  0  0  0  0  0  0  0
   12.0827    1.2998   20.9098 H   0  0  0  0  0  0  0  0  0  0  0  0
   10.2677   -2.6721   22.3861 H   0  0  0  0  0  0  0  0  0  0  0  0
    7.8705   -0.0015   24.7586 H   0  0  0  0  0  0  0  0  0  0  0  0
    9.5403   -4.5634   23.7844 H   0  0  0  0  0  0  0  0  0  0  0  0
    7.1918   -1.8874   26.1909 H   0  0  0  0  0  0  0  0  0  0  0  0
    4.3710    2.0145   17.4451 H   0  0  0  0  0  0  0  0  0  0  0  0
    2.9929    2.6891   19.3400 H   0  0  0  0  0  0  0  0  0  0  0  0
    3.6320    2.0596   21.6814 H   0  0  0  0  0  0  0  0  0  0  0  0
    5.6863    0.7288   22.0575 H   0  0  0  0  0  0  0  0  0  0  0  0
    6.9092   -5.0017   27.5501 H   0  0  0  0  0  0  0  0  0  0  0  0
    6.1847   -3.6588   26.6120 H   0  0  0  0  0  0  0  0  0  0  0  0
    7.6049   -3.3630   27.6492 H   0  0  0  0  0  0  0  0  0  0  0  0
   10.7266    0.7141   24.2815 H   0  0  0  0  0  0  0  0  0  0  0  0
   10.6502    1.7003   22.8412 H   0  0  0  0  0  0  0  0  0  0  0  0
    8.7027    0.7972   23.4026 H   0  0  0  0  0  0  0  0  0  0  0  0
    8.0706   -1.6189   21.0730 H   0  0  0  0  0  0  0  0  0  0  0  0
  1  2  1  0  0  0  0
  1  3  2  0  0  0  0
  2  4  2  0  0  0  0
  3  5  1  0  0  0  0
  4 10  1  0  0  0  0
  5 10  2  0  0  0  0
  6  8  2  0  0  0  0
  6 11  1  0  0  0  0
  7  9  1  0  0  0  0
  7 11  2  0  0  0  0
  8 12  1  0  0  0  0
  9 12  2  0  0  0  0
 10 21  1  0  0  0  0
 11 22  1  0  0  0  0
 12 28  1  0  0  0  0
 13 15  1  0  0  0  0
 13 23  2  0  0  0  0
 13 25  1  0  0  0  0
 14 24  2  0  0  0  0
 14 25  1  0  0  0  0
 14 26  1  0  0  0  0
 15 16  2  0  0  0  0
 16 17  1  0  0  0  0
 17 18  2  0  0  0  0
 18 25  1  0  0  0  0
 19 22  1  0  0  0  0
 19 26  1  0  0  0  0
 19 27  2  0  0  0  0
 20 28  1  0  0  0  0
 21 22  1  1  0  0  0
 23 24  1  0  0  0  0
  1 29  1  0  0  0  0
  2 30  1  0  0  0  0
  3 31  1  0  0  0  0
  4 32  1  0  0  0  0
  5 33  1  0  0  0  0
  6 34  1  0  0  0  0
  7 35  1  0  0  0  0
  8 36  1  0  0  0  0
  9 37  1  0  0  0  0
 15 38  1  0  0  0  0
 16 39  1  0  0  0  0
 17 40  1  0  0  0  0
 18 41  1  0  0  0  0
 20 42  1  0  0  0  0
 20 43  1  0  0  0  0
 20 44  1  0  0  0  0
 21 45  1  0  0  0  0
 21 46  1  0  0  0  0
 22 47  1  0  0  0  0
 26 48  1  0  0  0  0
M  END
> <clash_score>
0

> <docking_score>
-6.294041633605957

> <overlap_score>
0.8887302875518799

$$$$
BENZO_325_2
  -OEChem-08222022463D

 48 51  0     1  0  0  0  0  0999 V2000
   14.0137   -1.8398   24.3768 C   0  0  0  0  0  0  0  0  0  0  0  0
   13.0361   -1.4844   25.3061 C   0  0  0  0  0  0  0  0  0  0  0  0
   13.9239   -1.3848   23.0613 C   0  0  0  0  0  0  0  0  0  0  0  0
   11.9686   -0.6740   24.9198 C   0  0  0  0  0  0  0  0  0  0  0  0
   12.8563   -0.5744   22.6750 C   0  0  0  0  0  0  0  0  0  0  0  0
    9.5890   -2.4950   23.2210 C   0  0  0  0  0  0  0  0  0  0  0  0
    8.2550   -1.0010   24.5520 C   0  0  0  0  0  0  0  0  0  0  0  0
    9.1890   -3.5540   24.0140 C   0  0  0  0  0  0  0  0  0  0  0  0
    7.8700   -2.0610   25.3550 C   0  0  0  0  0  0  0  0  0  0  0  0
   11.8786   -0.2190   23.6043 C   0  0  0  0  0  0  0  0  0  0  0  0
    9.1280   -1.2090   23.4870 C   0  0  0  0  0  0  0  0  0  0  0  0
    8.3450   -3.3440   25.0980 C   0  0  0  0  0  0  0  0  0  0  0  0
    5.7970    0.9500   18.6730 C   0  0  0  0  0  0  0  0  0  0  0  0
    7.2710   -0.1460   19.8310 C   0  0  0  0  0  0  0  0  0  0  0  0
    4.6610    1.7170   18.4380 C   0  0  0  0  0  0  0  0  0  0  0  0
    3.8860    2.1050   19.5250 C   0  0  0  0  0  0  0  0  0  0  0  0
    4.2460    1.7520   20.8250 C   0  0  0  0  0  0  0  0  0  0  0  0
    5.3890    1.0010   21.0690 C   0  0  0  0  0  0  0  0  0  0  0  0
    9.0430    0.2380   21.4940 C   0  0  0  0  0  0  0  0  0  0  0  0
    8.5108   -5.6660   25.5720 C   0  0  0  0  0  0  0  0  0  0  0  0
   10.7220    0.6590   23.1850 C   0  0  0  0  0  0  0  0  0  0  0  0
    9.5820   -0.1080   22.7000 C   0  0  2  0  0  0  0  0  0  0  0  0
    6.7100    0.3850   17.8100 N   0  0  0  0  0  0  0  0  0  0  0  0
    7.5840   -0.2700   18.5160 N   0  0  0  0  0  0  0  0  0  0  0  0
    6.1460    0.6070   19.9750 N   0  0  0  0  0  0  0  0  0  0  0  0
    8.0950   -0.7700   20.8440 N   0  0  0  0  0  0  0  0  0  0  0  0
    9.2950    1.3000   20.9480 O   0  0  0  0  0  0  0  0  0  0  0  0
    7.9856   -4.3803   25.8987 O   0  0  0  0  0  0  0  0  0  0  0  0
   14.8456   -2.4698   24.6781 H   0  0  0  0  0  0  0  0  0  0  0  0
   13.1065   -1.8377   26.3307 H   0  0  0  0  0  0  0  0  0  0  0  0
   14.6854   -1.6605   22.3378 H   0  0  0  0  0  0  0  0  0  0  0  0
   11.2114   -0.4022   25.6506 H   0  0  0  0  0  0  0  0  0  0  0  0
   12.7944   -0.2247   21.6479 H   0  0  0  0  0  0  0  0  0  0  0  0
   10.2677   -2.6721   22.3861 H   0  0  0  0  0  0  0  0  0  0  0  0
    7.8705   -0.0015   24.7586 H   0  0  0  0  0  0  0  0  0  0  0  0
    9.5403   -4.5634   23.7844 H   0  0  0  0  0  0  0  0  0  0  0  0
    7.1918   -1.8874   26.1909 H   0  0  0  0  0  0  0  0  0  0  0  0
    4.3710    2.0145   17.4451 H   0  0  0  0  0  0  0  0  0  0  0  0
    2.9929    2.6891   19.3400 H   0  0  0  0  0  0  0  0  0  0  0  0
    3.6320    2.0596   21.6814 H   0  0  0  0  0  0  0  0  0  0  0  0
    5.6863    0.7288   22.0575 H   0  0  0  0  0  0  0  0  0  0  0  0
    8.1447   -6.4033   26.2907 H   0  0  0  0  0  0  0  0  0  0  0  0
    9.6029   -5.6309   25.5943 H   0  0  0  0  0  0  0  0  0  0  0  0
    8.1774   -5.9417   24.5688 H   0  0  0  0  0  0  0  0  0  0  0  0
   10.4369    1.3080   24.0233 H   0  0  0  0  0  0  0  0  0  0  0  0
   11.0815    1.3384   22.3997 H   0  0  0  0  0  0  0  0  0  0  0  0
   10.5413   -0.9955   22.0233 H   0  0  0  0  0  0  0  0  0  0  0  0
    8.0706   -1.6189   21.0730 H   0  0  0  0  0  0  0  0  0  0  0  0
  1  2  1  0  0  0  0
  1  3  2  0  0  0  0
  2  4  2  0  0  0  0
  3  5  1  0  0  0  0
  4 10  1  0  0  0  0
  5 10  2  0  0  0  0
  6  8  2  0  0  0  0
  6 11  1  0  0  0  0
  7  9  1  0  0  0  0
  7 11  2  0  0  0  0
  8 12  1  0  0  0  0
  9 12  2  0  0  0  0
 10 21  1  0  0  0  0
 11 22  1  0  0  0  0
 12 28  1  0  0  0  0
 13 15  1  0  0  0  0
 13 23  2  0  0  0  0
 13 25  1  0  0  0  0
 14 24  2  0  0  0  0
 14 25  1  0  0  0  0
 14 26  1  0  0  0  0
 15 16  2  0  0  0  0
 16 17  1  0  0  0  0
 17 18  2  0  0  0  0
 18 25  1  0  0  0  0
 19 22  1  0  0  0  0
 19 26  1  0  0  0  0
 19 27  2  0  0  0  0
 20 28  1  0  0  0  0
 21 22  1  6  0  0  0
 23 24  1  0  0  0  0
  1 29  1  0  0  0  0
  2 30  1  0  0  0  0
  3 31  1  0  0  0  0
  4 32  1  0  0  0  0
  5 33  1  0  0  0  0
  6 34  1  0  0  0  0
  7 35  1  0  0  0  0
  8 36  1  0  0  0  0
  9 37  1  0  0  0  0
 15 38  1  0  0  0  0
 16 39  1  0  0  0  0
 17 40  1  0  0  0  0
 18 41  1  0  0  0  0
 20 42  1  0  0  0  0
 20 43  1  0  0  0  0
 20 44  1  0  0  0  0
 21 45  1  0  0  0  0
 21 46  1  0  0  0  0
 22 47  1  0  0  0  0
 26 48  1  0  0  0  0
M  END
> <clash_score>
0

> <docking_score>
-7.7215118408203125

> <overlap_score>
0.8966524600982666

$$$$
BENZO_324_1
  -OEChem-08222022463D

 45 48  0     1  0  0  0  0  0999 V2000
    9.5890   -2.4950   23.2210 C   0  0  0  0  0  0  0  0  0  0  0  0
    8.2550   -1.0010   24.5520 C   0  0  0  0  0  0  0  0  0  0  0  0
    9.1890   -3.5540   24.0140 C   0  0  0  0  0  0  0  0  0  0  0  0
    7.8700   -2.0610   25.3550 C   0  0  0  0  0  0  0  0  0  0  0  0
   13.1058   -0.2791   23.5772 C   0  0  0  0  0  0  0  0  0  0  0  0
   14.1974   -0.7534   22.8836 C   0  0  0  0  0  0  0  0  0  0  0  0
   12.3642   -0.0940   21.3822 C   0  0  0  0  0  0  0  0  0  0  0  0
    9.1280   -1.2090   23.4870 C   0  0  0  0  0  0  0  0  0  0  0  0
   12.0437    0.1027   22.7075 C   0  0  0  0  0  0  0  0  0  0  0  0
    8.3450   -3.3440   25.0980 C   0  0  0  0  0  0  0  0  0  0  0  0
    5.7970    0.9500   18.6730 C   0  0  0  0  0  0  0  0  0  0  0  0
    7.2710   -0.1460   19.8310 C   0  0  0  0  0  0  0  0  0  0  0  0
    4.6610    1.7170   18.4380 C   0  0  0  0  0  0  0  0  0  0  0  0
    3.8860    2.1050   19.5250 C   0  0  0  0  0  0  0  0  0  0  0  0
    4.2460    1.7520   20.8250 C   0  0  0  0  0  0  0  0  0  0  0  0
    5.3890    1.0010   21.0690 C   0  0  0  0  0  0  0  0  0  0  0  0
    9.0430    0.2380   21.4940 C   0  0  0  0  0  0  0  0  0  0  0  0
    7.1165   -4.0858   26.9913 C   0  0  0  0  0  0  0  0  0  0  0  0
   10.7220    0.6590   23.1850 C   0  0  0  0  0  0  0  0  0  0  0  0
    9.5820   -0.1080   22.7000 C   0  0  1  0  0  0  0  0  0  0  0  0
    6.7100    0.3850   17.8100 N   0  0  0  0  0  0  0  0  0  0  0  0
    7.5840   -0.2700   18.5160 N   0  0  0  0  0  0  0  0  0  0  0  0
    6.1460    0.6070   19.9750 N   0  0  0  0  0  0  0  0  0  0  0  0
    8.0950   -0.7700   20.8440 N   0  0  0  0  0  0  0  0  0  0  0  0
    9.2950    1.3000   20.9480 O   0  0  0  0  0  0  0  0  0  0  0  0
    7.9856   -4.3803   25.8987 O   0  0  0  0  0  0  0  0  0  0  0  0
   13.9398   -0.7369   21.1908 S   0  0  0  0  0  0  0  0  0  0  0  0
   10.2677   -2.6721   22.3861 H   0  0  0  0  0  0  0  0  0  0  0  0
    7.8705   -0.0015   24.7586 H   0  0  0  0  0  0  0  0  0  0  0  0
    9.5403   -4.5634   23.7844 H   0  0  0  0  0  0  0  0  0  0  0  0
    7.1918   -1.8874   26.1909 H   0  0  0  0  0  0  0  0  0  0  0  0
   13.0750   -0.2107   24.6573 H   0  0  0  0  0  0  0  0  0  0  0  0
   15.1341   -1.1080   23.2899 H   0  0  0  0  0  0  0  0  0  0  0  0
   11.7521    0.1087   20.5143 H   0  0  0  0  0  0  0  0  0  0  0  0
    4.3710    2.0145   17.4451 H   0  0  0  0  0  0  0  0  0  0  0  0
    2.9929    2.6891   19.3400 H   0  0  0  0  0  0  0  0  0  0  0  0
    3.6320    2.0596   21.6814 H   0  0  0  0  0  0  0  0  0  0  0  0
    5.6863    0.7288   22.0575 H   0  0  0  0  0  0  0  0  0  0  0  0
    6.9092   -5.0017   27.5501 H   0  0  0  0  0  0  0  0  0  0  0  0
    6.1847   -3.6588   26.6120 H   0  0  0  0  0  0  0  0  0  0  0  0
    7.6049   -3.3630   27.6492 H   0  0  0  0  0  0  0  0  0  0  0  0
   10.7266    0.7141   24.2815 H   0  0  0  0  0  0  0  0  0  0  0  0
   10.6502    1.7003   22.8412 H   0  0  0  0  0  0  0  0  0  0  0  0
    8.7027    0.7972   23.4026 H   0  0  0  0  0  0  0  0  0  0  0  0
    8.0706   -1.6189   21.0730 H   0  0  0  0  0  0  0  0  0  0  0  0
  1  3  2  0  0  0  0
  1  8  1  0  0  0  0
  2  4  1  0  0  0  0
  2  8  2  0  0  0  0
  3 10  1  0  0  0  0
  4 10  2  0  0  0  0
  5  6  2  0  0  0  0
  5  9  1  0  0  0  0
  6 27  1  0  0  0  0
  7  9  2  0  0  0  0
  7 27  1  0  0  0  0
  8 20  1  0  0  0  0
  9 19  1  0  0  0  0
 10 26  1  0  0  0  0
 11 13  1  0  0  0  0
 11 21  2  0  0  0  0
 11 23  1  0  0  0  0
 12 22  2  0  0  0  0
 12 23  1  0  0  0  0
 12 24  1  0  0  0  0
 13 14  2  0  0  0  0
 14 15  1  0  0  0  0
 15 16  2  0  0  0  0
 16 23  1  0  0  0  0
 17 20  1  0  0  0  0
 17 24  1  0  0  0  0
 17 25  2  0  0  0  0
 18 26  1  0  0  0  0
 19 20  1  1  0  0  0
 21 22  1  0  0  0  0
  1 28  1  0  0  0  0
  2 29  1  0  0  0  0
  3 30  1  0  0  0  0
  4 31  1  0  0  0  0
  5 32  1  0  0  0  0
  6 33  1  0  0  0  0
  7 34  1  0  0  0  0
 13 35  1  0  0  0  0
 14 36  1  0  0  0  0
 15 37  1  0  0  0  0
 16 38  1  0  0  0  0
 18 39  1  0  0  0  0
 18 40  1  0  0  0  0
 18 41  1  0  0  0  0
 19 42  1  0  0  0  0
 19 43  1  0  0  0  0
 20 44  1  0  0  0  0
 24 45  1  0  0  0  0
M  END
> <clash_score>
0

> <docking_score>
-6.353184700012207

> <overlap_score>
0.8786652684211731

$$$$
BENZO_324_2
  -OEChem-08222022463D

 45 48  0     1  0  0  0  0  0999 V2000
    9.5890   -2.4950   23.2210 C   0  0  0  0  0  0  0  0  0  0  0  0
    8.2550   -1.0010   24.5520 C   0  0  0  0  0  0  0  0  0  0  0  0
    9.1890   -3.5540   24.0140 C   0  0  0  0  0  0  0  0  0  0  0  0
    7.8700   -2.0610   25.3550 C   0  0  0  0  0  0  0  0  0  0  0  0
   12.0393    0.1762   25.3640 C   0  0  0  0  0  0  0  0  0  0  0  0
   12.9049   -0.7459   25.9099 C   0  0  0  0  0  0  0  0  0  0  0  0
   12.2520   -1.3384   23.6137 C   0  0  0  0  0  0  0  0  0  0  0  0
    9.1280   -1.2090   23.4870 C   0  0  0  0  0  0  0  0  0  0  0  0
   11.6609   -0.1670   24.0339 C   0  0  0  0  0  0  0  0  0  0  0  0
    8.3450   -3.3440   25.0980 C   0  0  0  0  0  0  0  0  0  0  0  0
    5.7970    0.9500   18.6730 C   0  0  0  0  0  0  0  0  0  0  0  0
    7.2710   -0.1460   19.8310 C   0  0  0  0  0  0  0  0  0  0  0  0
    4.6610    1.7170   18.4380 C   0  0  0  0  0  0  0  0  0  0  0  0
    3.8860    2.1050   19.5250 C   0  0  0  0  0  0  0  0  0  0  0  0
    4.2460    1.7520   20.8250 C   0  0  0  0  0  0  0  0  0  0  0  0
    5.3890    1.0010   21.0690 C   0  0  0  0  0  0  0  0  0  0  0  0
    9.0430    0.2380   21.4940 C   0  0  0  0  0  0  0  0  0  0  0  0
    7.1165   -4.0858   26.9913 C   0  0  0  0  0  0  0  0  0  0  0  0
   10.7220    0.6590   23.1850 C   0  0  0  0  0  0  0  0  0  0  0  0
    9.5820   -0.1080   22.7000 C   0  0  2  0  0  0  0  0  0  0  0  0
    6.7100    0.3850   17.8100 N   0  0  0  0  0  0  0  0  0  0  0  0
    7.5840   -0.2700   18.5160 N   0  0  0  0  0  0  0  0  0  0  0  0
    6.1460    0.6070   19.9750 N   0  0  0  0  0  0  0  0  0  0  0  0
    8.0950   -0.7700   20.8440 N   0  0  0  0  0  0  0  0  0  0  0  0
    9.2950    1.3000   20.9480 O   0  0  0  0  0  0  0  0  0  0  0  0
    7.9856   -4.3803   25.8987 O   0  0  0  0  0  0  0  0  0  0  0  0
   13.2582   -2.0191   24.8206 S   0  0  0  0  0  0  0  0  0  0  0  0
   10.2677   -2.6721   22.3861 H   0  0  0  0  0  0  0  0  0  0  0  0
    7.8705   -0.0015   24.7586 H   0  0  0  0  0  0  0  0  0  0  0  0
    9.5403   -4.5634   23.7844 H   0  0  0  0  0  0  0  0  0  0  0  0
    7.1918   -1.8874   26.1909 H   0  0  0  0  0  0  0  0  0  0  0  0
   11.6967    1.0541   25.8970 H   0  0  0  0  0  0  0  0  0  0  0  0
   13.3474   -0.7326   26.8960 H   0  0  0  0  0  0  0  0  0  0  0  0
   12.1448   -1.8296   22.6565 H   0  0  0  0  0  0  0  0  0  0  0  0
    4.3710    2.0145   17.4451 H   0  0  0  0  0  0  0  0  0  0  0  0
    2.9929    2.6891   19.3400 H   0  0  0  0  0  0  0  0  0  0  0  0
    3.6320    2.0596   21.6814 H   0  0  0  0  0  0  0  0  0  0  0  0
    5.6863    0.7288   22.0575 H   0  0  0  0  0  0  0  0  0  0  0  0
    6.9092   -5.0017   27.5501 H   0  0  0  0  0  0  0  0  0  0  0  0
    6.1847   -3.6588   26.6120 H   0  0  0  0  0  0  0  0  0  0  0  0
    7.6049   -3.3630   27.6492 H   0  0  0  0  0  0  0  0  0  0  0  0
   10.3958    1.5383   23.7557 H   0  0  0  0  0  0  0  0  0  0  0  0
   11.2964    1.0584   22.3376 H   0  0  0  0  0  0  0  0  0  0  0  0
   10.5413   -0.9955   22.0233 H   0  0  0  0  0  0  0  0  0  0  0  0
    8.0706   -1.6189   21.0730 H   0  0  0  0  0  0  0  0  0  0  0  0
  1  3  2  0  0  0  0
  1  8  1  0  0  0  0
  2  4  1  0  0  0  0
  2  8  2  0  0  0  0
  3 10  1  0  0  0  0
  4 10  2  0  0  0  0
  5  6  2  0  0  0  0
  5  9  1  0  0  0  0
  6 27  1  0  0  0  0
  7  9  2  0  0  0  0
  7 27  1  0  0  0  0
  8 20  1  0  0  0  0
  9 19  1  0  0  0  0
 10 26  1  0  0  0  0
 11 13  1  0  0  0  0
 11 21  2  0  0  0  0
 11 23  1  0  0  0  0
 12 22  2  0  0  0  0
 12 23  1  0  0  0  0
 12 24  1  0  0  0  0
 13 14  2  0  0  0  0
 14 15  1  0  0  0  0
 15 16  2  0  0  0  0
 16 23  1  0  0  0  0
 17 20  1  0  0  0  0
 17 24  1  0  0  0  0
 17 25  2  0  0  0  0
 18 26  1  0  0  0  0
 19 20  1  6  0  0  0
 21 22  1  0  0  0  0
  1 28  1  0  0  0  0
  2 29  1  0  0  0  0
  3 30  1  0  0  0  0
  4 31  1  0  0  0  0
  5 32  1  0  0  0  0
  6 33  1  0  0  0  0
  7 34  1  0  0  0  0
 13 35  1  0  0  0  0
 14 36  1  0  0  0  0
 15 37  1  0  0  0  0
 16 38  1  0  0  0  0
 18 39  1  0  0  0  0
 18 40  1  0  0  0  0
 18 41  1  0  0  0  0
 19 42  1  0  0  0  0
 19 43  1  0  0  0  0
 20 44  1  0  0  0  0
 24 45  1  0  0  0  0
M  END
> <clash_score>
0

> <docking_score>
-4.989096641540527

> <overlap_score>
0.8439574241638184

$$$$
BENZO_327_1
  -OEChem-08222022473D

 48 51  0     1  0  0  0  0  0999 V2000
    9.5890   -2.4950   23.2210 C   0  0  0  0  0  0  0  0  0  0  0  0
    8.2550   -1.0010   24.5520 C   0  0  0  0  0  0  0  0  0  0  0  0
    9.1890   -3.5540   24.0140 C   0  0  0  0  0  0  0  0  0  0  0  0
    7.8700   -2.0610   25.3550 C   0  0  0  0  0  0  0  0  0  0  0  0
   12.7477    0.4352   21.5346 C   0  0  0  0  0  0  0  0  0  0  0  0
   12.8294   -0.8403   23.3239 C   0  0  0  0  0  0  0  0  0  0  0  0
    9.1280   -1.2090   23.4870 C   0  0  0  0  0  0  0  0  0  0  0  0
   12.0437    0.1027   22.7075 C   0  0  0  0  0  0  0  0  0  0  0  0
    8.3450   -3.3440   25.0980 C   0  0  0  0  0  0  0  0  0  0  0  0
    5.7970    0.9500   18.6730 C   0  0  0  0  0  0  0  0  0  0  0  0
    7.2710   -0.1460   19.8310 C   0  0  0  0  0  0  0  0  0  0  0  0
    4.6610    1.7170   18.4380 C   0  0  0  0  0  0  0  0  0  0  0  0
    3.8860    2.1050   19.5250 C   0  0  0  0  0  0  0  0  0  0  0  0
    4.2460    1.7520   20.8250 C   0  0  0  0  0  0  0  0  0  0  0  0
    5.3890    1.0010   21.0690 C   0  0  0  0  0  0  0  0  0  0  0  0
    9.0430    0.2380   21.4940 C   0  0  0  0  0  0  0  0  0  0  0  0
   15.0234   -1.9028   22.7442 C   0  0  0  0  0  0  0  0  0  0  0  0
    8.5108   -5.6660   25.5720 C   0  0  0  0  0  0  0  0  0  0  0  0
   10.7220    0.6590   23.1850 C   0  0  0  0  0  0  0  0  0  0  0  0
    9.5820   -0.1080   22.7000 C   0  0  1  0  0  0  0  0  0  0  0  0
   13.8926   -0.2416   21.4111 N   0  0  0  0  0  0  0  0  0  0  0  0
    6.7100    0.3850   17.8100 N   0  0  0  0  0  0  0  0  0  0  0  0
    7.5840   -0.2700   18.5160 N   0  0  0  0  0  0  0  0  0  0  0  0
   13.9141   -1.0086   22.5144 N   0  0  0  0  0  0  0  0  0  0  0  0
    6.1460    0.6070   19.9750 N   0  0  0  0  0  0  0  0  0  0  0  0
    8.0950   -0.7700   20.8440 N   0  0  0  0  0  0  0  0  0  0  0  0
    9.2950    1.3000   20.9480 O   0  0  0  0  0  0  0  0  0  0  0  0
    7.9856   -4.3803   25.8987 O   0  0  0  0  0  0  0  0  0  0  0  0
   10.2677   -2.6721   22.3861 H   0  0  0  0  0  0  0  0  0  0  0  0
    7.8705   -0.0015   24.7586 H   0  0  0  0  0  0  0  0  0  0  0  0
    9.5403   -4.5634   23.7844 H   0  0  0  0  0  0  0  0  0  0  0  0
    7.1918   -1.8874   26.1909 H   0  0  0  0  0  0  0  0  0  0  0  0
   12.4767    1.1426   20.7637 H   0  0  0  0  0  0  0  0  0  0  0  0
   12.7125   -1.3913   24.2472 H   0  0  0  0  0  0  0  0  0  0  0  0
    4.3710    2.0145   17.4451 H   0  0  0  0  0  0  0  0  0  0  0  0
    2.9929    2.6891   19.3400 H   0  0  0  0  0  0  0  0  0  0  0  0
    3.6320    2.0596   21.6814 H   0  0  0  0  0  0  0  0  0  0  0  0
    5.6863    0.7288   22.0575 H   0  0  0  0  0  0  0  0  0  0  0  0
   14.7824   -2.8646   22.2839 H   0  0  0  0  0  0  0  0  0  0  0  0
   15.9289   -1.4818   22.2983 H   0  0  0  0  0  0  0  0  0  0  0  0
   15.1758   -2.0203   23.8207 H   0  0  0  0  0  0  0  0  0  0  0  0
    8.1447   -6.4033   26.2907 H   0  0  0  0  0  0  0  0  0  0  0  0
    9.6029   -5.6309   25.5943 H   0  0  0  0  0  0  0  0  0  0  0  0
    8.1774   -5.9417   24.5688 H   0  0  0  0  0  0  0  0  0  0  0  0
   10.7266    0.7141   24.2815 H   0  0  0  0  0  0  0  0  0  0  0  0
   10.6502    1.7003   22.8412 H   0  0  0  0  0  0  0  0  0  0  0  0
    8.7027    0.7972   23.4026 H   0  0  0  0  0  0  0  0  0  0  0  0
    8.0706   -1.6189   21.0730 H   0  0  0  0  0  0  0  0  0  0  0  0
  1  3  2  0  0  0  0
  1  7  1  0  0  0  0
  2  4  1  0  0  0  0
  2  7  2  0  0  0  0
  3  9  1  0  0  0  0
  4  9  2  0  0  0  0
  5  8  1  0  0  0  0
  5 21  2  0  0  0  0
  6  8  2  0  0  0  0
  6 24  1  0  0  0  0
  7 20  1  0  0  0  0
  8 19  1  0  0  0  0
  9 28  1  0  0  0  0
 10 12  1  0  0  0  0
 10 22  2  0  0  0  0
 10 25  1  0  0  0  0
 11 23  2  0  0  0  0
 11 25  1  0  0  0  0
 11 26  1  0  0  0  0
 12 13  2  0  0  0  0
 13 14  1  0  0  0  0
 14 15  2  0  0  0  0
 15 25  1  0  0  0  0
 16 20  1  0  0  0  0
 16 26  1  0  0  0  0
 16 27  2  0  0  0  0
 17 24  1  0  0  0  0
 18 28  1  0  0  0  0
 19 20  1  1  0  0  0
 21 24  1  0  0  0  0
 22 23  1  0  0  0  0
  1 29  1  0  0  0  0
  2 30  1  0  0  0  0
  3 31  1  0  0  0  0
  4 32  1  0  0  0  0
  5 33  1  0  0  0  0
  6 34  1  0  0  0  0
 12 35  1  0  0  0  0
 13 36  1  0  0  0  0
 14 37  1  0  0  0  0
 15 38  1  0  0  0  0
 17 39  1  0  0  0  0
 17 40  1  0  0  0  0
 17 41  1  0  0  0  0
 18 42  1  0  0  0  0
 18 43  1  0  0  0  0
 18 44  1  0  0  0  0
 19 45  1  0  0  0  0
 19 46  1  0  0  0  0
 20 47  1  0  0  0  0
 26 48  1  0  0  0  0
M  END
> <clash_score>
0

> <docking_score>
-5.68406867980957

> <overlap_score>
0.8843225836753845

$$$$
BENZO_327_2
  -OEChem-08222022473D

 48 51  0     1  0  0  0  0  0999 V2000
    9.5890   -2.4950   23.2210 C   0  0  0  0  0  0  0  0  0  0  0  0
    8.2550   -1.0010   24.5520 C   0  0  0  0  0  0  0  0  0  0  0  0
    9.1890   -3.5540   24.0140 C   0  0  0  0  0  0  0  0  0  0  0  0
    7.8700   -2.0610   25.3550 C   0  0  0  0  0  0  0  0  0  0  0  0
   12.1294   -0.7684   24.8759 C   0  0  0  0  0  0  0  0  0  0  0  0
   12.9208   -0.6622   22.8272 C   0  0  0  0  0  0  0  0  0  0  0  0
    9.1280   -1.2090   23.4870 C   0  0  0  0  0  0  0  0  0  0  0  0
   11.8786   -0.2190   23.6043 C   0  0  0  0  0  0  0  0  0  0  0  0
    8.3450   -3.3440   25.0980 C   0  0  0  0  0  0  0  0  0  0  0  0
    5.7970    0.9500   18.6730 C   0  0  0  0  0  0  0  0  0  0  0  0
    7.2710   -0.1460   19.8310 C   0  0  0  0  0  0  0  0  0  0  0  0
    4.6610    1.7170   18.4380 C   0  0  0  0  0  0  0  0  0  0  0  0
    3.8860    2.1050   19.5250 C   0  0  0  0  0  0  0  0  0  0  0  0
    4.2460    1.7520   20.8250 C   0  0  0  0  0  0  0  0  0  0  0  0
    5.3890    1.0010   21.0690 C   0  0  0  0  0  0  0  0  0  0  0  0
    9.0430    0.2380   21.4940 C   0  0  0  0  0  0  0  0  0  0  0  0
   14.9196   -2.1033   23.2819 C   0  0  0  0  0  0  0  0  0  0  0  0
    8.5108   -5.6660   25.5720 C   0  0  0  0  0  0  0  0  0  0  0  0
   10.7220    0.6590   23.1850 C   0  0  0  0  0  0  0  0  0  0  0  0
    9.5820   -0.1080   22.7000 C   0  0  2  0  0  0  0  0  0  0  0  0
   13.2434   -1.5045   24.9090 N   0  0  0  0  0  0  0  0  0  0  0  0
    6.7100    0.3850   17.8100 N   0  0  0  0  0  0  0  0  0  0  0  0
    7.5840   -0.2700   18.5160 N   0  0  0  0  0  0  0  0  0  0  0  0
   13.7018   -1.4208   23.6485 N   0  0  0  0  0  0  0  0  0  0  0  0
    6.1460    0.6070   19.9750 N   0  0  0  0  0  0  0  0  0  0  0  0
    8.0950   -0.7700   20.8440 N   0  0  0  0  0  0  0  0  0  0  0  0
    9.2950    1.3000   20.9480 O   0  0  0  0  0  0  0  0  0  0  0  0
    7.9856   -4.3803   25.8987 O   0  0  0  0  0  0  0  0  0  0  0  0
   10.2677   -2.6721   22.3861 H   0  0  0  0  0  0  0  0  0  0  0  0
    7.8705   -0.0015   24.7586 H   0  0  0  0  0  0  0  0  0  0  0  0
    9.5403   -4.5634   23.7844 H   0  0  0  0  0  0  0  0  0  0  0  0
    7.1918   -1.8874   26.1909 H   0  0  0  0  0  0  0  0  0  0  0  0
   11.5479   -0.6652   25.7811 H   0  0  0  0  0  0  0  0  0  0  0  0
   13.1664   -0.5073   21.7853 H   0  0  0  0  0  0  0  0  0  0  0  0
    4.3710    2.0145   17.4451 H   0  0  0  0  0  0  0  0  0  0  0  0
    2.9929    2.6891   19.3400 H   0  0  0  0  0  0  0  0  0  0  0  0
    3.6320    2.0596   21.6814 H   0  0  0  0  0  0  0  0  0  0  0  0
    5.6863    0.7288   22.0575 H   0  0  0  0  0  0  0  0  0  0  0  0
   15.7545   -1.4186   23.4527 H   0  0  0  0  0  0  0  0  0  0  0  0
   15.0313   -3.0027   23.8939 H   0  0  0  0  0  0  0  0  0  0  0  0
   14.8692   -2.3913   22.2281 H   0  0  0  0  0  0  0  0  0  0  0  0
    8.1447   -6.4033   26.2907 H   0  0  0  0  0  0  0  0  0  0  0  0
    9.6029   -5.6309   25.5943 H   0  0  0  0  0  0  0  0  0  0  0  0
    8.1774   -5.9417   24.5688 H   0  0  0  0  0  0  0  0  0  0  0  0
   10.4369    1.3080   24.0233 H   0  0  0  0  0  0  0  0  0  0  0  0
   11.0815    1.3384   22.3997 H   0  0  0  0  0  0  0  0  0  0  0  0
   10.5413   -0.9955   22.0233 H   0  0  0  0  0  0  0  0  0  0  0  0
    8.0706   -1.6189   21.0730 H   0  0  0  0  0  0  0  0  0  0  0  0
  1  3  2  0  0  0  0
  1  7  1  0  0  0  0
  2  4  1  0  0  0  0
  2  7  2  0  0  0  0
  3  9  1  0  0  0  0
  4  9  2  0  0  0  0
  5  8  1  0  0  0  0
  5 21  2  0  0  0  0
  6  8  2  0  0  0  0
  6 24  1  0  0  0  0
  7 20  1  0  0  0  0
  8 19  1  0  0  0  0
  9 28  1  0  0  0  0
 10 12  1  0  0  0  0
 10 22  2  0  0  0  0
 10 25  1  0  0  0  0
 11 23  2  0  0  0  0
 11 25  1  0  0  0  0
 11 26  1  0  0  0  0
 12 13  2  0  0  0  0
 13 14  1  0  0  0  0
 14 15  2  0  0  0  0
 15 25  1  0  0  0  0
 16 20  1  0  0  0  0
 16 26  1  0  0  0  0
 16 27  2  0  0  0  0
 17 24  1  0  0  0  0
 18 28  1  0  0  0  0
 19 20  1  6  0  0  0
 21 24  1  0  0  0  0
 22 23  1  0  0  0  0
  1 29  1  0  0  0  0
  2 30  1  0  0  0  0
  3 31  1  0  0  0  0
  4 32  1  0  0  0  0
  5 33  1  0  0  0  0
  6 34  1  0  0  0  0
 12 35  1  0  0  0  0
 13 36  1  0  0  0  0
 14 37  1  0  0  0  0
 15 38  1  0  0  0  0
 17 39  1  0  0  0  0
 17 40  1  0  0  0  0
 17 41  1  0  0  0  0
 18 42  1  0  0  0  0
 18 43  1  0  0  0  0
 18 44  1  0  0  0  0
 19 45  1  0  0  0  0
 19 46  1  0  0  0  0
 20 47  1  0  0  0  0
 26 48  1  0  0  0  0
M  END
> <clash_score>
0

> <docking_score>
-6.791695594787598

> <overlap_score>
0.8982741236686707

$$$$
BENZO_326_1
  -OEChem-08222022473D

 48 51  0     1  0  0  0  0  0999 V2000
   13.8165    0.0398   21.0674 C   0  0  0  0  0  0  0  0  0  0  0  0
   12.5963    0.5519   21.5081 C   0  0  0  0  0  0  0  0  0  0  0  0
    9.5890   -2.4950   23.2210 C   0  0  0  0  0  0  0  0  0  0  0  0
    8.2550   -1.0010   24.5520 C   0  0  0  0  0  0  0  0  0  0  0  0
    9.1890   -3.5540   24.0140 C   0  0  0  0  0  0  0  0  0  0  0  0
    7.8700   -2.0610   25.3550 C   0  0  0  0  0  0  0  0  0  0  0  0
   14.4843   -0.9216   21.8261 C   0  0  0  0  0  0  0  0  0  0  0  0
   12.7115   -0.8586   23.4663 C   0  0  0  0  0  0  0  0  0  0  0  0
    9.1280   -1.2090   23.4870 C   0  0  0  0  0  0  0  0  0  0  0  0
   12.0437    0.1027   22.7075 C   0  0  0  0  0  0  0  0  0  0  0  0
    8.3450   -3.3440   25.0980 C   0  0  0  0  0  0  0  0  0  0  0  0
   13.9318   -1.3708   23.0255 C   0  0  0  0  0  0  0  0  0  0  0  0
    5.7970    0.9500   18.6730 C   0  0  0  0  0  0  0  0  0  0  0  0
    7.2710   -0.1460   19.8310 C   0  0  0  0  0  0  0  0  0  0  0  0
    4.6610    1.7170   18.4380 C   0  0  0  0  0  0  0  0  0  0  0  0
    3.8860    2.1050   19.5250 C   0  0  0  0  0  0  0  0  0  0  0  0
    4.2460    1.7520   20.8250 C   0  0  0  0  0  0  0  0  0  0  0  0
    5.3890    1.0010   21.0690 C   0  0  0  0  0  0  0  0  0  0  0  0
    9.0430    0.2380   21.4940 C   0  0  0  0  0  0  0  0  0  0  0  0
    8.5108   -5.6660   25.5720 C   0  0  0  0  0  0  0  0  0  0  0  0
   10.7220    0.6590   23.1850 C   0  0  0  0  0  0  0  0  0  0  0  0
    9.5820   -0.1080   22.7000 C   0  0  1  0  0  0  0  0  0  0  0  0
    6.7100    0.3850   17.8100 N   0  0  0  0  0  0  0  0  0  0  0  0
    7.5840   -0.2700   18.5160 N   0  0  0  0  0  0  0  0  0  0  0  0
    6.1460    0.6070   19.9750 N   0  0  0  0  0  0  0  0  0  0  0  0
    8.0950   -0.7700   20.8440 N   0  0  0  0  0  0  0  0  0  0  0  0
    9.2950    1.3000   20.9480 O   0  0  0  0  0  0  0  0  0  0  0  0
    7.9856   -4.3803   25.8987 O   0  0  0  0  0  0  0  0  0  0  0  0
   14.7567   -2.5560   23.9617 Cl  0  0  0  0  0  0  0  0  0  0  0  0
   14.2465    0.3899   20.1334 H   0  0  0  0  0  0  0  0  0  0  0  0
   12.0830    1.3007   20.9105 H   0  0  0  0  0  0  0  0  0  0  0  0
   10.2677   -2.6721   22.3861 H   0  0  0  0  0  0  0  0  0  0  0  0
    7.8705   -0.0015   24.7586 H   0  0  0  0  0  0  0  0  0  0  0  0
    9.5403   -4.5634   23.7844 H   0  0  0  0  0  0  0  0  0  0  0  0
    7.1918   -1.8874   26.1909 H   0  0  0  0  0  0  0  0  0  0  0  0
   15.4348   -1.3117   21.4704 H   0  0  0  0  0  0  0  0  0  0  0  0
   12.2763   -1.2059   24.4005 H   0  0  0  0  0  0  0  0  0  0  0  0
    4.3710    2.0145   17.4451 H   0  0  0  0  0  0  0  0  0  0  0  0
    2.9929    2.6891   19.3400 H   0  0  0  0  0  0  0  0  0  0  0  0
    3.6320    2.0596   21.6814 H   0  0  0  0  0  0  0  0  0  0  0  0
    5.6863    0.7288   22.0575 H   0  0  0  0  0  0  0  0  0  0  0  0
    8.1447   -6.4033   26.2907 H   0  0  0  0  0  0  0  0  0  0  0  0
    9.6029   -5.6309   25.5943 H   0  0  0  0  0  0  0  0  0  0  0  0
    8.1774   -5.9417   24.5688 H   0  0  0  0  0  0  0  0  0  0  0  0
   10.7266    0.7141   24.2815 H   0  0  0  0  0  0  0  0  0  0  0  0
   10.6502    1.7003   22.8412 H   0  0  0  0  0  0  0  0  0  0  0  0
    8.7027    0.7972   23.4026 H   0  0  0  0  0  0  0  0  0  0  0  0
    8.0706   -1.6189   21.0730 H   0  0  0  0  0  0  0  0  0  0  0  0
  1  2  2  0  0  0  0
  1  7  1  0  0  0  0
  2 10  1  0  0  0  0
  3  5  2  0  0  0  0
  3  9  1  0  0  0  0
  4  6  1  0  0  0  0
  4  9  2  0  0  0  0
  5 11  1  0  0  0  0
  6 11  2  0  0  0  0
  7 12  2  0  0  0  0
  8 10  2  0  0  0  0
  8 12  1  0  0  0  0
  9 22  1  0  0  0  0
 10 21  1  0  0  0  0
 11 28  1  0  0  0  0
 12 29  1  0  0  0  0
 13 15  1  0  0  0  0
 13 23  2  0  0  0  0
 13 25  1  0  0  0  0
 14 24  2  0  0  0  0
 14 25  1  0  0  0  0
 14 26  1  0  0  0  0
 15 16  2  0  0  0  0
 16 17  1  0  0  0  0
 17 18  2  0  0  0  0
 18 25  1  0  0  0  0
 19 22  1  0  0  0  0
 19 26  1  0  0  0  0
 19 27  2  0  0  0  0
 20 28  1  0  0  0  0
 21 22  1  1  0  0  0
 23 24  1  0  0  0  0
  1 30  1  0  0  0  0
  2 31  1  0  0  0  0
  3 32  1  0  0  0  0
  4 33  1  0  0  0  0
  5 34  1  0  0  0  0
  6 35  1  0  0  0  0
  7 36  1  0  0  0  0
  8 37  1  0  0  0  0
 15 38  1  0  0  0  0
 16 39  1  0  0  0  0
 17 40  1  0  0  0  0
 18 41  1  0  0  0  0
 20 42  1  0  0  0  0
 20 43  1  0  0  0  0
 20 44  1  0  0  0  0
 21 45  1  0  0  0  0
 21 46  1  0  0  0  0
 22 47  1  0  0  0  0
 26 48  1  0  0  0  0
M  END
> <clash_score>
0

> <docking_score>
-6.3221235275268555

> <overlap_score>
0.890432596206665

$$$$
BENZO_326_2
  -OEChem-08222022473D

 48 51  0     1  0  0  0  0  0999 V2000
   13.0334   -1.4852   25.3072 C   0  0  0  0  0  0  0  0  0  0  0  0
   11.9669   -0.6740   24.9199 C   0  0  0  0  0  0  0  0  0  0  0  0
    9.5890   -2.4950   23.2210 C   0  0  0  0  0  0  0  0  0  0  0  0
    8.2550   -1.0010   24.5520 C   0  0  0  0  0  0  0  0  0  0  0  0
    9.1890   -3.5540   24.0140 C   0  0  0  0  0  0  0  0  0  0  0  0
    7.8700   -2.0610   25.3550 C   0  0  0  0  0  0  0  0  0  0  0  0
   14.0118   -1.8413   24.3790 C   0  0  0  0  0  0  0  0  0  0  0  0
   12.8570   -0.5751   22.6760 C   0  0  0  0  0  0  0  0  0  0  0  0
    9.1280   -1.2090   23.4870 C   0  0  0  0  0  0  0  0  0  0  0  0
   11.8786   -0.2190   23.6043 C   0  0  0  0  0  0  0  0  0  0  0  0
    8.3450   -3.3440   25.0980 C   0  0  0  0  0  0  0  0  0  0  0  0
   13.9235   -1.3863   23.0634 C   0  0  0  0  0  0  0  0  0  0  0  0
    5.7970    0.9500   18.6730 C   0  0  0  0  0  0  0  0  0  0  0  0
    7.2710   -0.1460   19.8310 C   0  0  0  0  0  0  0  0  0  0  0  0
    4.6610    1.7170   18.4380 C   0  0  0  0  0  0  0  0  0  0  0  0
    3.8860    2.1050   19.5250 C   0  0  0  0  0  0  0  0  0  0  0  0
    4.2460    1.7520   20.8250 C   0  0  0  0  0  0  0  0  0  0  0  0
    5.3890    1.0010   21.0690 C   0  0  0  0  0  0  0  0  0  0  0  0
    9.0430    0.2380   21.4940 C   0  0  0  0  0  0  0  0  0  0  0  0
    8.5108   -5.6660   25.5720 C   0  0  0  0  0  0  0  0  0  0  0  0
   10.7220    0.6590   23.1850 C   0  0  0  0  0  0  0  0  0  0  0  0
    9.5820   -0.1080   22.7000 C   0  0  2  0  0  0  0  0  0  0  0  0
    6.7100    0.3850   17.8100 N   0  0  0  0  0  0  0  0  0  0  0  0
    7.5840   -0.2700   18.5160 N   0  0  0  0  0  0  0  0  0  0  0  0
    6.1460    0.6070   19.9750 N   0  0  0  0  0  0  0  0  0  0  0  0
    8.0950   -0.7700   20.8440 N   0  0  0  0  0  0  0  0  0  0  0  0
    9.2950    1.3000   20.9480 O   0  0  0  0  0  0  0  0  0  0  0  0
    7.9856   -4.3803   25.8987 O   0  0  0  0  0  0  0  0  0  0  0  0
   15.1303   -1.8270   21.9183 Cl  0  0  0  0  0  0  0  0  0  0  0  0
   13.1017   -1.8394   26.3318 H   0  0  0  0  0  0  0  0  0  0  0  0
   11.2091   -0.4015   25.6498 H   0  0  0  0  0  0  0  0  0  0  0  0
   10.2677   -2.6721   22.3861 H   0  0  0  0  0  0  0  0  0  0  0  0
    7.8705   -0.0015   24.7586 H   0  0  0  0  0  0  0  0  0  0  0  0
    9.5403   -4.5634   23.7844 H   0  0  0  0  0  0  0  0  0  0  0  0
    7.1918   -1.8874   26.1909 H   0  0  0  0  0  0  0  0  0  0  0  0
   14.8373   -2.4744   24.6949 H   0  0  0  0  0  0  0  0  0  0  0  0
   12.7839   -0.2174   21.6515 H   0  0  0  0  0  0  0  0  0  0  0  0
    4.3710    2.0145   17.4451 H   0  0  0  0  0  0  0  0  0  0  0  0
    2.9929    2.6891   19.3400 H   0  0  0  0  0  0  0  0  0  0  0  0
    3.6320    2.0596   21.6814 H   0  0  0  0  0  0  0  0  0  0  0  0
    5.6863    0.7288   22.0575 H   0  0  0  0  0  0  0  0  0  0  0  0
    8.1447   -6.4033   26.2907 H   0  0  0  0  0  0  0  0  0  0  0  0
    9.6029   -5.6309   25.5943 H   0  0  0  0  0  0  0  0  0  0  0  0
    8.1774   -5.9417   24.5688 H   0  0  0  0  0  0  0  0  0  0  0  0
   10.4369    1.3080   24.0233 H   0  0  0  0  0  0  0  0  0  0  0  0
   11.0815    1.3384   22.3997 H   0  0  0  0  0  0  0  0  0  0  0  0
   10.5413   -0.9955   22.0233 H   0  0  0  0  0  0  0  0  0  0  0  0
    8.0706   -1.6189   21.0730 H   0  0  0  0  0  0  0  0  0  0  0  0
  1  2  2  0  0  0  0
  1  7  1  0  0  0  0
  2 10  1  0  0  0  0
  3  5  2  0  0  0  0
  3  9  1  0  0  0  0
  4  6  1  0  0  0  0
  4  9  2  0  0  0  0
  5 11  1  0  0  0  0
  6 11  2  0  0  0  0
  7 12  2  0  0  0  0
  8 10  2  0  0  0  0
  8 12  1  0  0  0  0
  9 22  1  0  0  0  0
 10 21  1  0  0  0  0
 11 28  1  0  0  0  0
 12 29  1  0  0  0  0
 13 15  1  0  0  0  0
 13 23  2  0  0  0  0
 13 25  1  0  0  0  0
 14 24  2  0  0  0  0
 14 25  1  0  0  0  0
 14 26  1  0  0  0  0
 15 16  2  0  0  0  0
 16 17  1  0  0  0  0
 17 18  2  0  0  0  0
 18 25  1  0  0  0  0
 19 22  1  0  0  0  0
 19 26  1  0  0  0  0
 19 27  2  0  0  0  0
 20 28  1  0  0  0  0
 21 22  1  6  0  0  0
 23 24  1  0  0  0  0
  1 30  1  0  0  0  0
  2 31  1  0  0  0  0
  3 32  1  0  0  0  0
  4 33  1  0  0  0  0
  5 34  1  0  0  0  0
  6 35  1  0  0  0  0
  7 36  1  0  0  0  0
  8 37  1  0  0  0  0
 15 38  1  0  0  0  0
 16 39  1  0  0  0  0
 17 40  1  0  0  0  0
 18 41  1  0  0  0  0
 20 42  1  0  0  0  0
 20 43  1  0  0  0  0
 20 44  1  0  0  0  0
 21 45  1  0  0  0  0
 21 46  1  0  0  0  0
 22 47  1  0  0  0  0
 26 48  1  0  0  0  0
M  END
> <clash_score>
0

> <docking_score>
-6.8424072265625

> <overlap_score>
0.9027395844459534

$$$$
BENZO_329_1
  -OEChem-08222022473D

 58 62  0     1  0  0  0  0  0999 V2000
   14.0446   -1.7965   24.3813 C   0  0  0  0  0  0  0  0  0  0  0  0
   13.0634   -1.4504   25.3102 C   0  0  0  0  0  0  0  0  0  0  0  0
   13.9483   -1.3462   23.0646 C   0  0  0  0  0  0  0  0  0  0  0  0
   11.9858   -0.6541   24.9225 C   0  0  0  0  0  0  0  0  0  0  0  0
   12.8707   -0.5498   22.6769 C   0  0  0  0  0  0  0  0  0  0  0  0
    9.5890   -2.4950   23.2210 C   0  0  0  0  0  0  0  0  0  0  0  0
    8.2550   -1.0010   24.5520 C   0  0  0  0  0  0  0  0  0  0  0  0
    9.1890   -3.5540   24.0140 C   0  0  0  0  0  0  0  0  0  0  0  0
    7.8700   -2.0610   25.3550 C   0  0  0  0  0  0  0  0  0  0  0  0
   11.8895   -0.2037   23.6058 C   0  0  0  0  0  0  0  0  0  0  0  0
    9.1280   -1.2090   23.4870 C   0  0  0  0  0  0  0  0  0  0  0  0
    8.3450   -3.3440   25.0980 C   0  0  0  0  0  0  0  0  0  0  0  0
    5.7970    0.9500   18.6730 C   0  0  0  0  0  0  0  0  0  0  0  0
    7.2710   -0.1460   19.8310 C   0  0  0  0  0  0  0  0  0  0  0  0
    4.6610    1.7170   18.4380 C   0  0  0  0  0  0  0  0  0  0  0  0
    3.8860    2.1050   19.5250 C   0  0  0  0  0  0  0  0  0  0  0  0
    4.2460    1.7520   20.8250 C   0  0  0  0  0  0  0  0  0  0  0  0
    5.3890    1.0010   21.0690 C   0  0  0  0  0  0  0  0  0  0  0  0
    6.6194   -4.8191   26.1158 C   0  0  0  0  0  0  0  0  0  0  0  0
    9.0430    0.2380   21.4940 C   0  0  0  0  0  0  0  0  0  0  0  0
    6.4366   -5.9938   27.0605 C   0  0  0  0  0  0  0  0  0  0  0  0
    7.2458   -5.7947   28.3299 C   0  0  0  0  0  0  0  0  0  0  0  0
    8.7184   -5.5215   28.0404 C   0  0  0  0  0  0  0  0  0  0  0  0
    9.0024   -5.2744   26.5596 C   0  0  0  0  0  0  0  0  0  0  0  0
   10.7220    0.6590   23.1850 C   0  0  0  0  0  0  0  0  0  0  0  0
    9.5820   -0.1080   22.7000 C   0  0  1  0  0  0  0  0  0  0  0  0
    6.7100    0.3850   17.8100 N   0  0  0  0  0  0  0  0  0  0  0  0
    7.5840   -0.2700   18.5160 N   0  0  0  0  0  0  0  0  0  0  0  0
    6.1460    0.6070   19.9750 N   0  0  0  0  0  0  0  0  0  0  0  0
    7.9658   -4.4384   25.9449 N   0  0  0  0  0  0  0  0  0  0  0  0
    8.0950   -0.7700   20.8440 N   0  0  0  0  0  0  0  0  0  0  0  0
    5.6415   -4.3469   25.5373 O   0  0  0  0  0  0  0  0  0  0  0  0
    9.2950    1.3000   20.9480 O   0  0  0  0  0  0  0  0  0  0  0  0
   14.8842   -2.4155   24.6836 H   0  0  0  0  0  0  0  0  0  0  0  0
   13.1387   -1.8001   26.3358 H   0  0  0  0  0  0  0  0  0  0  0  0
   14.7126   -1.6146   22.3413 H   0  0  0  0  0  0  0  0  0  0  0  0
   11.2258   -0.3895   25.6531 H   0  0  0  0  0  0  0  0  0  0  0  0
   12.8039   -0.2037   21.6488 H   0  0  0  0  0  0  0  0  0  0  0  0
   10.2695   -2.6718   22.3873 H   0  0  0  0  0  0  0  0  0  0  0  0
    7.8712   -0.0014   24.7587 H   0  0  0  0  0  0  0  0  0  0  0  0
    9.5431   -4.5618   23.7801 H   0  0  0  0  0  0  0  0  0  0  0  0
    7.1923   -1.8823   26.1912 H   0  0  0  0  0  0  0  0  0  0  0  0
    4.3710    2.0145   17.4451 H   0  0  0  0  0  0  0  0  0  0  0  0
    2.9929    2.6891   19.3400 H   0  0  0  0  0  0  0  0  0  0  0  0
    3.6320    2.0596   21.6814 H   0  0  0  0  0  0  0  0  0  0  0  0
    5.6863    0.7288   22.0575 H   0  0  0  0  0  0  0  0  0  0  0  0
    5.3901   -6.0734   27.3117 H   0  0  0  0  0  0  0  0  0  0  0  0
    6.7606   -6.8843   26.5429 H   0  0  0  0  0  0  0  0  0  0  0  0
    6.8221   -4.9563   28.9212 H   0  0  0  0  0  0  0  0  0  0  0  0
    7.1526   -6.6910   28.9757 H   0  0  0  0  0  0  0  0  0  0  0  0
    9.0539   -4.6418   28.6288 H   0  0  0  0  0  0  0  0  0  0  0  0
    9.3393   -6.3684   28.4053 H   0  0  0  0  0  0  0  0  0  0  0  0
    9.9475   -4.7506   26.4523 H   0  0  0  0  0  0  0  0  0  0  0  0
    9.0509   -6.2236   26.0372 H   0  0  0  0  0  0  0  0  0  0  0  0
   10.4316    1.3089   24.0208 H   0  0  0  0  0  0  0  0  0  0  0  0
   11.0719    1.3385   22.3955 H   0  0  0  0  0  0  0  0  0  0  0  0
   10.5438   -0.9939   22.0202 H   0  0  0  0  0  0  0  0  0  0  0  0
    8.0917   -1.6083   21.0911 H   0  0  0  0  0  0  0  0  0  0  0  0
  1  2  1  0  0  0  0
  1  3  2  0  0  0  0
  2  4  2  0  0  0  0
  3  5  1  0  0  0  0
  4 10  1  0  0  0  0
  5 10  2  0  0  0  0
  6  8  2  0  0  0  0
  6 11  1  0  0  0  0
  7  9  1  0  0  0  0
  7 11  2  0  0  0  0
  8 12  1  0  0  0  0
  9 12  2  0  0  0  0
 10 25  1  0  0  0  0
 11 26  1  0  0  0  0
 12 30  1  0  0  0  0
 13 15  1  0  0  0  0
 13 27  2  0  0  0  0
 13 29  1  0  0  0  0
 14 28  2  0  0  0  0
 14 29  1  0  0  0  0
 14 31  1  0  0  0  0
 15 16  2  0  0  0  0
 16 17  1  0  0  0  0
 17 18  2  0  0  0  0
 18 29  1  0  0  0  0
 19 21  1  0  0  0  0
 19 30  1  0  0  0  0
 19 32  2  0  0  0  0
 20 26  1  1  0  0  0
 20 31  1  0  0  0  0
 20 33  2  0  0  0  0
 21 22  1  0  0  0  0
 22 23  1  0  0  0  0
 23 24  1  0  0  0  0
 24 30  1  0  0  0  0
 25 26  1  0  0  0  0
 27 28  1  0  0  0  0
  1 34  1  0  0  0  0
  2 35  1  0  0  0  0
  3 36  1  0  0  0  0
  4 37  1  0  0  0  0
  5 38  1  0  0  0  0
  6 39  1  0  0  0  0
  7 40  1  0  0  0  0
  8 41  1  0  0  0  0
  9 42  1  0  0  0  0
 15 43  1  0  0  0  0
 16 44  1  0  0  0  0
 17 45  1  0  0  0  0
 18 46  1  0  0  0  0
 21 47  1  0  0  0  0
 21 48  1  0  0  0  0
 22 49  1  0  0  0  0
 22 50  1  0  0  0  0
 23 51  1  0  0  0  0
 23 52  1  0  0  0  0
 24 53  1  0  0  0  0
 24 54  1  0  0  0  0
 25 55  1  0  0  0  0
 25 56  1  0  0  0  0
 26 57  1  0  0  0  0
 31 58  1  0  0  0  0
M  END
> <clash_score>
0

> <docking_score>
-8.533289909362793

> <overlap_score>
0.9768222570419312

$$$$
BENZO_329_2
  -OEChem-08222022473D

 58 62  0     1  0  0  0  0  0999 V2000
   14.5087   -0.8923   21.8603 C   0  0  0  0  0  0  0  0  0  0  0  0
   13.9503   -1.3434   23.0563 C   0  0  0  0  0  0  0  0  0  0  0  0
   13.8391    0.0619   21.0942 C   0  0  0  0  0  0  0  0  0  0  0  0
   12.7223   -0.8405   23.4861 C   0  0  0  0  0  0  0  0  0  0  0  0
   12.6112    0.5649   21.5240 C   0  0  0  0  0  0  0  0  0  0  0  0
    9.5890   -2.4950   23.2210 C   0  0  0  0  0  0  0  0  0  0  0  0
    8.2550   -1.0010   24.5520 C   0  0  0  0  0  0  0  0  0  0  0  0
    9.1890   -3.5540   24.0140 C   0  0  0  0  0  0  0  0  0  0  0  0
    7.8700   -2.0610   25.3550 C   0  0  0  0  0  0  0  0  0  0  0  0
   12.0527    0.1137   22.7200 C   0  0  0  0  0  0  0  0  0  0  0  0
    9.1280   -1.2090   23.4870 C   0  0  0  0  0  0  0  0  0  0  0  0
    8.3450   -3.3440   25.0980 C   0  0  0  0  0  0  0  0  0  0  0  0
    5.7970    0.9500   18.6730 C   0  0  0  0  0  0  0  0  0  0  0  0
    7.2710   -0.1460   19.8310 C   0  0  0  0  0  0  0  0  0  0  0  0
    4.6610    1.7170   18.4380 C   0  0  0  0  0  0  0  0  0  0  0  0
    3.8860    2.1050   19.5250 C   0  0  0  0  0  0  0  0  0  0  0  0
    4.2460    1.7520   20.8250 C   0  0  0  0  0  0  0  0  0  0  0  0
    5.3890    1.0010   21.0690 C   0  0  0  0  0  0  0  0  0  0  0  0
    7.6777   -4.2365   27.3114 C   0  0  0  0  0  0  0  0  0  0  0  0
    9.0430    0.2380   21.4940 C   0  0  0  0  0  0  0  0  0  0  0  0
    7.0008   -5.3819   28.0445 C   0  0  0  0  0  0  0  0  0  0  0  0
    7.4106   -6.7604   27.5741 C   0  0  0  0  0  0  0  0  0  0  0  0
    7.2148   -6.8411   26.0763 C   0  0  0  0  0  0  0  0  0  0  0  0
    8.0979   -5.8053   25.4011 C   0  0  0  0  0  0  0  0  0  0  0  0
   10.7220    0.6590   23.1850 C   0  0  0  0  0  0  0  0  0  0  0  0
    9.5820   -0.1080   22.7000 C   0  0  2  0  0  0  0  0  0  0  0  0
    6.7100    0.3850   17.8100 N   0  0  0  0  0  0  0  0  0  0  0  0
    7.5840   -0.2700   18.5160 N   0  0  0  0  0  0  0  0  0  0  0  0
    6.1460    0.6070   19.9750 N   0  0  0  0  0  0  0  0  0  0  0  0
    7.9635   -4.4451   25.9501 N   0  0  0  0  0  0  0  0  0  0  0  0
    8.0950   -0.7700   20.8440 N   0  0  0  0  0  0  0  0  0  0  0  0
    7.8778   -3.1892   27.9327 O   0  0  0  0  0  0  0  0  0  0  0  0
    9.2950    1.3000   20.9480 O   0  0  0  0  0  0  0  0  0  0  0  0
   15.4655   -1.2831   21.5265 H   0  0  0  0  0  0  0  0  0  0  0  0
   14.4720   -2.0856   23.6535 H   0  0  0  0  0  0  0  0  0  0  0  0
   14.2741    0.4142   20.1636 H   0  0  0  0  0  0  0  0  0  0  0  0
   12.2947   -1.1979   24.4191 H   0  0  0  0  0  0  0  0  0  0  0  0
   12.0966    1.3080   20.9206 H   0  0  0  0  0  0  0  0  0  0  0  0
   10.2695   -2.6718   22.3873 H   0  0  0  0  0  0  0  0  0  0  0  0
    7.8712   -0.0014   24.7587 H   0  0  0  0  0  0  0  0  0  0  0  0
    9.5431   -4.5618   23.7801 H   0  0  0  0  0  0  0  0  0  0  0  0
    7.1923   -1.8823   26.1912 H   0  0  0  0  0  0  0  0  0  0  0  0
    4.3710    2.0145   17.4451 H   0  0  0  0  0  0  0  0  0  0  0  0
    2.9929    2.6891   19.3400 H   0  0  0  0  0  0  0  0  0  0  0  0
    3.6320    2.0596   21.6814 H   0  0  0  0  0  0  0  0  0  0  0  0
    5.6863    0.7288   22.0575 H   0  0  0  0  0  0  0  0  0  0  0  0
    7.2290   -5.2845   29.1121 H   0  0  0  0  0  0  0  0  0  0  0  0
    5.9188   -5.2480   27.9251 H   0  0  0  0  0  0  0  0  0  0  0  0
    8.4598   -6.9525   27.8289 H   0  0  0  0  0  0  0  0  0  0  0  0
    6.8062   -7.5226   28.0776 H   0  0  0  0  0  0  0  0  0  0  0  0
    7.4789   -7.8416   25.7161 H   0  0  0  0  0  0  0  0  0  0  0  0
    6.1634   -6.6702   25.8155 H   0  0  0  0  0  0  0  0  0  0  0  0
    9.1520   -6.0895   25.5127 H   0  0  0  0  0  0  0  0  0  0  0  0
    7.8696   -5.7728   24.3290 H   0  0  0  0  0  0  0  0  0  0  0  0
   10.7177    0.7189   24.2812 H   0  0  0  0  0  0  0  0  0  0  0  0
   10.6426    1.6980   22.8361 H   0  0  0  0  0  0  0  0  0  0  0  0
    8.7036    0.8022   23.4008 H   0  0  0  0  0  0  0  0  0  0  0  0
    8.0917   -1.6083   21.0911 H   0  0  0  0  0  0  0  0  0  0  0  0
  1  2  1  0  0  0  0
  1  3  2  0  0  0  0
  2  4  2  0  0  0  0
  3  5  1  0  0  0  0
  4 10  1  0  0  0  0
  5 10  2  0  0  0  0
  6  8  2  0  0  0  0
  6 11  1  0  0  0  0
  7  9  1  0  0  0  0
  7 11  2  0  0  0  0
  8 12  1  0  0  0  0
  9 12  2  0  0  0  0
 10 25  1  0  0  0  0
 11 26  1  0  0  0  0
 12 30  1  0  0  0  0
 13 15  1  0  0  0  0
 13 27  2  0  0  0  0
 13 29  1  0  0  0  0
 14 28  2  0  0  0  0
 14 29  1  0  0  0  0
 14 31  1  0  0  0  0
 15 16  2  0  0  0  0
 16 17  1  0  0  0  0
 17 18  2  0  0  0  0
 18 29  1  0  0  0  0
 19 21  1  0  0  0  0
 19 30  1  0  0  0  0
 19 32  2  0  0  0  0
 20 26  1  6  0  0  0
 20 31  1  0  0  0  0
 20 33  2  0  0  0  0
 21 22  1  0  0  0  0
 22 23  1  0  0  0  0
 23 24  1  0  0  0  0
 24 30  1  0  0  0  0
 25 26  1  0  0  0  0
 27 28  1  0  0  0  0
  1 34  1  0  0  0  0
  2 35  1  0  0  0  0
  3 36  1  0  0  0  0
  4 37  1  0  0  0  0
  5 38  1  0  0  0  0
  6 39  1  0  0  0  0
  7 40  1  0  0  0  0
  8 41  1  0  0  0  0
  9 42  1  0  0  0  0
 15 43  1  0  0  0  0
 16 44  1  0  0  0  0
 17 45  1  0  0  0  0
 18 46  1  0  0  0  0
 21 47  1  0  0  0  0
 21 48  1  0  0  0  0
 22 49  1  0  0  0  0
 22 50  1  0  0  0  0
 23 51  1  0  0  0  0
 23 52  1  0  0  0  0
 24 53  1  0  0  0  0
 24 54  1  0  0  0  0
 25 55  1  0  0  0  0
 25 56  1  0  0  0  0
 26 57  1  0  0  0  0
 31 58  1  0  0  0  0
M  END
> <clash_score>
0

> <docking_score>
-6.741506099700928

> <overlap_score>
0.9639173150062561

$$$$
BENZO_328_1
  -OEChem-08222022473D

 55 59  0     1  0  0  0  0  0999 V2000
    9.5890   -2.4950   23.2210 C   0  0  0  0  0  0  0  0  0  0  0  0
    8.2550   -1.0010   24.5520 C   0  0  0  0  0  0  0  0  0  0  0  0
    9.1890   -3.5540   24.0140 C   0  0  0  0  0  0  0  0  0  0  0  0
    7.8700   -2.0610   25.3550 C   0  0  0  0  0  0  0  0  0  0  0  0
   12.0564    0.2021   25.3592 C   0  0  0  0  0  0  0  0  0  0  0  0
   12.9335   -0.7085   25.9059 C   0  0  0  0  0  0  0  0  0  0  0  0
   12.2727   -1.3216   23.6174 C   0  0  0  0  0  0  0  0  0  0  0  0
    9.1280   -1.2090   23.4870 C   0  0  0  0  0  0  0  0  0  0  0  0
   11.6734   -0.1530   24.0335 C   0  0  0  0  0  0  0  0  0  0  0  0
    8.3450   -3.3440   25.0980 C   0  0  0  0  0  0  0  0  0  0  0  0
    5.7970    0.9500   18.6730 C   0  0  0  0  0  0  0  0  0  0  0  0
    7.2710   -0.1460   19.8310 C   0  0  0  0  0  0  0  0  0  0  0  0
    4.6610    1.7170   18.4380 C   0  0  0  0  0  0  0  0  0  0  0  0
    3.8860    2.1050   19.5250 C   0  0  0  0  0  0  0  0  0  0  0  0
    4.2460    1.7520   20.8250 C   0  0  0  0  0  0  0  0  0  0  0  0
    5.3890    1.0010   21.0690 C   0  0  0  0  0  0  0  0  0  0  0  0
    6.7262   -4.4697   26.6151 C   0  0  0  0  0  0  0  0  0  0  0  0
    9.0430    0.2380   21.4940 C   0  0  0  0  0  0  0  0  0  0  0  0
    6.5282   -5.7113   27.4665 C   0  0  0  0  0  0  0  0  0  0  0  0
    7.7583   -5.9846   28.3140 C   0  0  0  0  0  0  0  0  0  0  0  0
    9.0310   -6.0659   27.4769 C   0  0  0  0  0  0  0  0  0  0  0  0
    8.8255   -5.6238   26.0289 C   0  0  0  0  0  0  0  0  0  0  0  0
   10.7220    0.6590   23.1850 C   0  0  0  0  0  0  0  0  0  0  0  0
    9.5820   -0.1080   22.7000 C   0  0  1  0  0  0  0  0  0  0  0  0
    6.7100    0.3850   17.8100 N   0  0  0  0  0  0  0  0  0  0  0  0
    7.5840   -0.2700   18.5160 N   0  0  0  0  0  0  0  0  0  0  0  0
    6.1460    0.6070   19.9750 N   0  0  0  0  0  0  0  0  0  0  0  0
    7.9658   -4.4384   25.9449 N   0  0  0  0  0  0  0  0  0  0  0  0
    8.0950   -0.7700   20.8440 N   0  0  0  0  0  0  0  0  0  0  0  0
    5.8136   -3.6504   26.5144 O   0  0  0  0  0  0  0  0  0  0  0  0
    9.2950    1.3000   20.9480 O   0  0  0  0  0  0  0  0  0  0  0  0
   13.2920   -1.9854   24.8226 S   0  0  0  0  0  0  0  0  0  0  0  0
   10.2695   -2.6718   22.3873 H   0  0  0  0  0  0  0  0  0  0  0  0
    7.8712   -0.0014   24.7587 H   0  0  0  0  0  0  0  0  0  0  0  0
    9.5431   -4.5618   23.7801 H   0  0  0  0  0  0  0  0  0  0  0  0
    7.1923   -1.8823   26.1912 H   0  0  0  0  0  0  0  0  0  0  0  0
   11.7089    1.0803   25.8886 H   0  0  0  0  0  0  0  0  0  0  0  0
   13.3816   -0.6848   26.8892 H   0  0  0  0  0  0  0  0  0  0  0  0
   12.1643   -1.8199   22.6640 H   0  0  0  0  0  0  0  0  0  0  0  0
    4.3710    2.0145   17.4451 H   0  0  0  0  0  0  0  0  0  0  0  0
    2.9929    2.6891   19.3400 H   0  0  0  0  0  0  0  0  0  0  0  0
    3.6320    2.0596   21.6814 H   0  0  0  0  0  0  0  0  0  0  0  0
    5.6863    0.7288   22.0575 H   0  0  0  0  0  0  0  0  0  0  0  0
    5.6771   -5.5542   28.1111 H   0  0  0  0  0  0  0  0  0  0  0  0
    6.3384   -6.5392   26.7998 H   0  0  0  0  0  0  0  0  0  0  0  0
    7.8707   -5.1934   29.0843 H   0  0  0  0  0  0  0  0  0  0  0  0
    7.6207   -6.9300   28.8764 H   0  0  0  0  0  0  0  0  0  0  0  0
    9.8202   -5.4387   27.9422 H   0  0  0  0  0  0  0  0  0  0  0  0
    9.4333   -7.1021   27.4993 H   0  0  0  0  0  0  0  0  0  0  0  0
    9.7828   -5.3621   25.5884 H   0  0  0  0  0  0  0  0  0  0  0  0
    8.3738   -6.4323   25.4644 H   0  0  0  0  0  0  0  0  0  0  0  0
   10.3911    1.5389   23.7520 H   0  0  0  0  0  0  0  0  0  0  0  0
   11.2877    1.0581   22.3317 H   0  0  0  0  0  0  0  0  0  0  0  0
   10.5438   -0.9939   22.0202 H   0  0  0  0  0  0  0  0  0  0  0  0
    8.0917   -1.6083   21.0911 H   0  0  0  0  0  0  0  0  0  0  0  0
  1  3  2  0  0  0  0
  1  8  1  0  0  0  0
  2  4  1  0  0  0  0
  2  8  2  0  0  0  0
  3 10  1  0  0  0  0
  4 10  2  0  0  0  0
  5  6  2  0  0  0  0
  5  9  1  0  0  0  0
  6 32  1  0  0  0  0
  7  9  2  0  0  0  0
  7 32  1  0  0  0  0
  8 24  1  0  0  0  0
  9 23  1  0  0  0  0
 10 28  1  0  0  0  0
 11 13  1  0  0  0  0
 11 25  2  0  0  0  0
 11 27  1  0  0  0  0
 12 26  2  0  0  0  0
 12 27  1  0  0  0  0
 12 29  1  0  0  0  0
 13 14  2  0  0  0  0
 14 15  1  0  0  0  0
 15 16  2  0  0  0  0
 16 27  1  0  0  0  0
 17 19  1  0  0  0  0
 17 28  1  0  0  0  0
 17 30  2  0  0  0  0
 18 24  1  1  0  0  0
 18 29  1  0  0  0  0
 18 31  2  0  0  0  0
 19 20  1  0  0  0  0
 20 21  1  0  0  0  0
 21 22  1  0  0  0  0
 22 28  1  0  0  0  0
 23 24  1  0  0  0  0
 25 26  1  0  0  0  0
  1 33  1  0  0  0  0
  2 34  1  0  0  0  0
  3 35  1  0  0  0  0
  4 36  1  0  0  0  0
  5 37  1  0  0  0  0
  6 38  1  0  0  0  0
  7 39  1  0  0  0  0
 13 40  1  0  0  0  0
 14 41  1  0  0  0  0
 15 42  1  0  0  0  0
 16 43  1  0  0  0  0
 19 44  1  0  0  0  0
 19 45  1  0  0  0  0
 20 46  1  0  0  0  0
 20 47  1  0  0  0  0
 21 48  1  0  0  0  0
 21 49  1  0  0  0  0
 22 50  1  0  0  0  0
 22 51  1  0  0  0  0
 23 52  1  0  0  0  0
 23 53  1  0  0  0  0
 24 54  1  0  0  0  0
 29 55  1  0  0  0  0
M  END
> <clash_score>
0

> <docking_score>
-5.751351356506348

> <overlap_score>
0.9133999347686768

$$$$
BENZO_328_2
  -OEChem-08222022473D

 55 59  0     1  0  0  0  0  0999 V2000
    9.5890   -2.4950   23.2210 C   0  0  0  0  0  0  0  0  0  0  0  0
    8.2550   -1.0010   24.5520 C   0  0  0  0  0  0  0  0  0  0  0  0
    9.1890   -3.5540   24.0140 C   0  0  0  0  0  0  0  0  0  0  0  0
    7.8700   -2.0610   25.3550 C   0  0  0  0  0  0  0  0  0  0  0  0
   13.1119   -0.2539   23.5994 C   0  0  0  0  0  0  0  0  0  0  0  0
   14.2133   -0.7203   22.9162 C   0  0  0  0  0  0  0  0  0  0  0  0
   12.3853   -0.0856   21.3980 C   0  0  0  0  0  0  0  0  0  0  0  0
    9.1280   -1.2090   23.4870 C   0  0  0  0  0  0  0  0  0  0  0  0
   12.0527    0.1137   22.7200 C   0  0  0  0  0  0  0  0  0  0  0  0
    8.3450   -3.3440   25.0980 C   0  0  0  0  0  0  0  0  0  0  0  0
    5.7970    0.9500   18.6730 C   0  0  0  0  0  0  0  0  0  0  0  0
    7.2710   -0.1460   19.8310 C   0  0  0  0  0  0  0  0  0  0  0  0
    4.6610    1.7170   18.4380 C   0  0  0  0  0  0  0  0  0  0  0  0
    3.8860    2.1050   19.5250 C   0  0  0  0  0  0  0  0  0  0  0  0
    4.2460    1.7520   20.8250 C   0  0  0  0  0  0  0  0  0  0  0  0
    5.3890    1.0010   21.0690 C   0  0  0  0  0  0  0  0  0  0  0  0
    6.6194   -4.8191   26.1158 C   0  0  0  0  0  0  0  0  0  0  0  0
    9.0430    0.2380   21.4940 C   0  0  0  0  0  0  0  0  0  0  0  0
    6.4366   -5.9938   27.0605 C   0  0  0  0  0  0  0  0  0  0  0  0
    7.2458   -5.7947   28.3299 C   0  0  0  0  0  0  0  0  0  0  0  0
    8.7184   -5.5215   28.0404 C   0  0  0  0  0  0  0  0  0  0  0  0
    9.0024   -5.2744   26.5596 C   0  0  0  0  0  0  0  0  0  0  0  0
   10.7220    0.6590   23.1850 C   0  0  0  0  0  0  0  0  0  0  0  0
    9.5820   -0.1080   22.7000 C   0  0  2  0  0  0  0  0  0  0  0  0
    6.7100    0.3850   17.8100 N   0  0  0  0  0  0  0  0  0  0  0  0
    7.5840   -0.2700   18.5160 N   0  0  0  0  0  0  0  0  0  0  0  0
    6.1460    0.6070   19.9750 N   0  0  0  0  0  0  0  0  0  0  0  0
    7.9658   -4.4384   25.9449 N   0  0  0  0  0  0  0  0  0  0  0  0
    8.0950   -0.7700   20.8440 N   0  0  0  0  0  0  0  0  0  0  0  0
    5.6415   -4.3469   25.5373 O   0  0  0  0  0  0  0  0  0  0  0  0
    9.2950    1.3000   20.9480 O   0  0  0  0  0  0  0  0  0  0  0  0
   13.9685   -0.7137   21.2214 S   0  0  0  0  0  0  0  0  0  0  0  0
   10.2695   -2.6718   22.3873 H   0  0  0  0  0  0  0  0  0  0  0  0
    7.8712   -0.0014   24.7587 H   0  0  0  0  0  0  0  0  0  0  0  0
    9.5431   -4.5618   23.7801 H   0  0  0  0  0  0  0  0  0  0  0  0
    7.1923   -1.8823   26.1912 H   0  0  0  0  0  0  0  0  0  0  0  0
   13.0722   -0.1811   24.6789 H   0  0  0  0  0  0  0  0  0  0  0  0
   15.1504   -1.0639   23.3311 H   0  0  0  0  0  0  0  0  0  0  0  0
   11.7778    0.1074   20.5246 H   0  0  0  0  0  0  0  0  0  0  0  0
    4.3710    2.0145   17.4451 H   0  0  0  0  0  0  0  0  0  0  0  0
    2.9929    2.6891   19.3400 H   0  0  0  0  0  0  0  0  0  0  0  0
    3.6320    2.0596   21.6814 H   0  0  0  0  0  0  0  0  0  0  0  0
    5.6863    0.7288   22.0575 H   0  0  0  0  0  0  0  0  0  0  0  0
    5.3901   -6.0734   27.3117 H   0  0  0  0  0  0  0  0  0  0  0  0
    6.7606   -6.8843   26.5429 H   0  0  0  0  0  0  0  0  0  0  0  0
    6.8221   -4.9563   28.9212 H   0  0  0  0  0  0  0  0  0  0  0  0
    7.1526   -6.6910   28.9757 H   0  0  0  0  0  0  0  0  0  0  0  0
    9.0539   -4.6418   28.6288 H   0  0  0  0  0  0  0  0  0  0  0  0
    9.3393   -6.3684   28.4053 H   0  0  0  0  0  0  0  0  0  0  0  0
    9.9475   -4.7506   26.4523 H   0  0  0  0  0  0  0  0  0  0  0  0
    9.0509   -6.2236   26.0372 H   0  0  0  0  0  0  0  0  0  0  0  0
   10.7177    0.7189   24.2812 H   0  0  0  0  0  0  0  0  0  0  0  0
   10.6426    1.6980   22.8361 H   0  0  0  0  0  0  0  0  0  0  0  0
    8.7036    0.8022   23.4008 H   0  0  0  0  0  0  0  0  0  0  0  0
    8.0917   -1.6083   21.0911 H   0  0  0  0  0  0  0  0  0  0  0  0
  1  3  2  0  0  0  0
  1  8  1  0  0  0  0
  2  4  1  0  0  0  0
  2  8  2  0  0  0  0
  3 10  1  0  0  0  0
  4 10  2  0  0  0  0
  5  6  2  0  0  0  0
  5  9  1  0  0  0  0
  6 32  1  0  0  0  0
  7  9  2  0  0  0  0
  7 32  1  0  0  0  0
  8 24  1  0  0  0  0
  9 23  1  0  0  0  0
 10 28  1  0  0  0  0
 11 13  1  0  0  0  0
 11 25  2  0  0  0  0
 11 27  1  0  0  0  0
 12 26  2  0  0  0  0
 12 27  1  0  0  0  0
 12 29  1  0  0  0  0
 13 14  2  0  0  0  0
 14 15  1  0  0  0  0
 15 16  2  0  0  0  0
 16 27  1  0  0  0  0
 17 19  1  0  0  0  0
 17 28  1  0  0  0  0
 17 30  2  0  0  0  0
 18 24  1  6  0  0  0
 18 29  1  0  0  0  0
 18 31  2  0  0  0  0
 19 20  1  0  0  0  0
 20 21  1  0  0  0  0
 21 22  1  0  0  0  0
 22 28  1  0  0  0  0
 23 24  1  0  0  0  0
 25 26  1  0  0  0  0
  1 33  1  0  0  0  0
  2 34  1  0  0  0  0
  3 35  1  0  0  0  0
  4 36  1  0  0  0  0
  5 37  1  0  0  0  0
  6 38  1  0  0  0  0
  7 39  1  0  0  0  0
 13 40  1  0  0  0  0
 14 41  1  0  0  0  0
 15 42  1  0  0  0  0
 16 43  1  0  0  0  0
 19 44  1  0  0  0  0
 19 45  1  0  0  0  0
 20 46  1  0  0  0  0
 20 47  1  0  0  0  0
 21 48  1  0  0  0  0
 21 49  1  0  0  0  0
 22 50  1  0  0  0  0
 22 51  1  0  0  0  0
 23 52  1  0  0  0  0
 23 53  1  0  0  0  0
 24 54  1  0  0  0  0
 29 55  1  0  0  0  0
M  END
> <clash_score>
0

> <docking_score>
-7.690576076507568

> <overlap_score>
0.951969563961029

$$$$
BENZO_330_2
  -OEChem-08222022473D

 58 62  0     1  0  0  0  0  0999 V2000
   13.8402    0.0638   21.0954 C   0  0  0  0  0  0  0  0  0  0  0  0
   12.6116    0.5657   21.5246 C   0  0  0  0  0  0  0  0  0  0  0  0
    9.5890   -2.4950   23.2210 C   0  0  0  0  0  0  0  0  0  0  0  0
    8.2550   -1.0010   24.5520 C   0  0  0  0  0  0  0  0  0  0  0  0
    9.1890   -3.5540   24.0140 C   0  0  0  0  0  0  0  0  0  0  0  0
    7.8700   -2.0610   25.3550 C   0  0  0  0  0  0  0  0  0  0  0  0
   14.5099   -0.8903   21.8616 C   0  0  0  0  0  0  0  0  0  0  0  0
   12.7224   -0.8403   23.4862 C   0  0  0  0  0  0  0  0  0  0  0  0
    9.1280   -1.2090   23.4870 C   0  0  0  0  0  0  0  0  0  0  0  0
   12.0527    0.1137   22.7200 C   0  0  0  0  0  0  0  0  0  0  0  0
    8.3450   -3.3440   25.0980 C   0  0  0  0  0  0  0  0  0  0  0  0
   13.9510   -1.3423   23.0570 C   0  0  0  0  0  0  0  0  0  0  0  0
    5.7970    0.9500   18.6730 C   0  0  0  0  0  0  0  0  0  0  0  0
    7.2710   -0.1460   19.8310 C   0  0  0  0  0  0  0  0  0  0  0  0
    4.6610    1.7170   18.4380 C   0  0  0  0  0  0  0  0  0  0  0  0
    3.8860    2.1050   19.5250 C   0  0  0  0  0  0  0  0  0  0  0  0
    4.2460    1.7520   20.8250 C   0  0  0  0  0  0  0  0  0  0  0  0
    5.3890    1.0010   21.0690 C   0  0  0  0  0  0  0  0  0  0  0  0
    6.6194   -4.8191   26.1158 C   0  0  0  0  0  0  0  0  0  0  0  0
    9.0430    0.2380   21.4940 C   0  0  0  0  0  0  0  0  0  0  0  0
    6.4366   -5.9938   27.0605 C   0  0  0  0  0  0  0  0  0  0  0  0
    7.2458   -5.7947   28.3299 C   0  0  0  0  0  0  0  0  0  0  0  0
    8.7184   -5.5215   28.0404 C   0  0  0  0  0  0  0  0  0  0  0  0
    9.0024   -5.2744   26.5596 C   0  0  0  0  0  0  0  0  0  0  0  0
   10.7220    0.6590   23.1850 C   0  0  0  0  0  0  0  0  0  0  0  0
    9.5820   -0.1080   22.7000 C   0  0  2  0  0  0  0  0  0  0  0  0
    6.7100    0.3850   17.8100 N   0  0  0  0  0  0  0  0  0  0  0  0
    7.5840   -0.2700   18.5160 N   0  0  0  0  0  0  0  0  0  0  0  0
    6.1460    0.6070   19.9750 N   0  0  0  0  0  0  0  0  0  0  0  0
    7.9658   -4.4384   25.9449 N   0  0  0  0  0  0  0  0  0  0  0  0
    8.0950   -0.7700   20.8440 N   0  0  0  0  0  0  0  0  0  0  0  0
    5.6415   -4.3469   25.5373 O   0  0  0  0  0  0  0  0  0  0  0  0
    9.2950    1.3000   20.9480 O   0  0  0  0  0  0  0  0  0  0  0  0
   14.7783   -2.5185   24.0025 Cl  0  0  0  0  0  0  0  0  0  0  0  0
   14.2752    0.4162   20.1646 H   0  0  0  0  0  0  0  0  0  0  0  0
   12.0969    1.3090   20.9213 H   0  0  0  0  0  0  0  0  0  0  0  0
   10.2695   -2.6718   22.3873 H   0  0  0  0  0  0  0  0  0  0  0  0
    7.8712   -0.0014   24.7587 H   0  0  0  0  0  0  0  0  0  0  0  0
    9.5431   -4.5618   23.7801 H   0  0  0  0  0  0  0  0  0  0  0  0
    7.1923   -1.8823   26.1912 H   0  0  0  0  0  0  0  0  0  0  0  0
   15.4669   -1.2724   21.5149 H   0  0  0  0  0  0  0  0  0  0  0  0
   12.2822   -1.1899   24.4172 H   0  0  0  0  0  0  0  0  0  0  0  0
    4.3710    2.0145   17.4451 H   0  0  0  0  0  0  0  0  0  0  0  0
    2.9929    2.6891   19.3400 H   0  0  0  0  0  0  0  0  0  0  0  0
    3.6320    2.0596   21.6814 H   0  0  0  0  0  0  0  0  0  0  0  0
    5.6863    0.7288   22.0575 H   0  0  0  0  0  0  0  0  0  0  0  0
    5.3901   -6.0734   27.3117 H   0  0  0  0  0  0  0  0  0  0  0  0
    6.7606   -6.8843   26.5429 H   0  0  0  0  0  0  0  0  0  0  0  0
    6.8221   -4.9563   28.9212 H   0  0  0  0  0  0  0  0  0  0  0  0
    7.1526   -6.6910   28.9757 H   0  0  0  0  0  0  0  0  0  0  0  0
    9.0539   -4.6418   28.6288 H   0  0  0  0  0  0  0  0  0  0  0  0
    9.3393   -6.3684   28.4053 H   0  0  0  0  0  0  0  0  0  0  0  0
    9.9475   -4.7506   26.4523 H   0  0  0  0  0  0  0  0  0  0  0  0
    9.0509   -6.2236   26.0372 H   0  0  0  0  0  0  0  0  0  0  0  0
   10.7177    0.7189   24.2812 H   0  0  0  0  0  0  0  0  0  0  0  0
   10.6426    1.6980   22.8361 H   0  0  0  0  0  0  0  0  0  0  0  0
    8.7036    0.8022   23.4008 H   0  0  0  0  0  0  0  0  0  0  0  0
    8.0917   -1.6083   21.0911 H   0  0  0  0  0  0  0  0  0  0  0  0
  1  2  2  0  0  0  0
  1  7  1  0  0  0  0
  2 10  1  0  0  0  0
  3  5  2  0  0  0  0
  3  9  1  0  0  0  0
  4  6  1  0  0  0  0
  4  9  2  0  0  0  0
  5 11  1  0  0  0  0
  6 11  2  0  0  0  0
  7 12  2  0  0  0  0
  8 10  2  0  0  0  0
  8 12  1  0  0  0  0
  9 26  1  0  0  0  0
 10 25  1  0  0  0  0
 11 30  1  0  0  0  0
 12 34  1  0  0  0  0
 13 15  1  0  0  0  0
 13 27  2  0  0  0  0
 13 29  1  0  0  0  0
 14 28  2  0  0  0  0
 14 29  1  0  0  0  0
 14 31  1  0  0  0  0
 15 16  2  0  0  0  0
 16 17  1  0  0  0  0
 17 18  2  0  0  0  0
 18 29  1  0  0  0  0
 19 21  1  0  0  0  0
 19 30  1  0  0  0  0
 19 32  2  0  0  0  0
 20 26  1  6  0  0  0
 20 31  1  0  0  0  0
 20 33  2  0  0  0  0
 21 22  1  0  0  0  0
 22 23  1  0  0  0  0
 23 24  1  0  0  0  0
 24 30  1  0  0  0  0
 25 26  1  0  0  0  0
 27 28  1  0  0  0  0
  1 35  1  0  0  0  0
  2 36  1  0  0  0  0
  3 37  1  0  0  0  0
  4 38  1  0  0  0  0
  5 39  1  0  0  0  0
  6 40  1  0  0  0  0
  7 41  1  0  0  0  0
  8 42  1  0  0  0  0
 15 43  1  0  0  0  0
 16 44  1  0  0  0  0
 17 45  1  0  0  0  0
 18 46  1  0  0  0  0
 21 47  1  0  0  0  0
 21 48  1  0  0  0  0
 22 49  1  0  0  0  0
 22 50  1  0  0  0  0
 23 51  1  0  0  0  0
 23 52  1  0  0  0  0
 24 53  1  0  0  0  0
 24 54  1  0  0  0  0
 25 55  1  0  0  0  0
 25 56  1  0  0  0  0
 26 57  1  0  0  0  0
 31 58  1  0  0  0  0
M  END
> <clash_score>
0

> <docking_score>
-7.021538257598877

> <overlap_score>
0.9699636697769165

$$$$
BENZO_330_1
  -OEChem-08222022473D

 58 62  0     1  0  0  0  0  0999 V2000
   13.0606   -1.4512   25.3114 C   0  0  0  0  0  0  0  0  0  0  0  0
   11.9841   -0.6541   24.9226 C   0  0  0  0  0  0  0  0  0  0  0  0
    9.5890   -2.4950   23.2210 C   0  0  0  0  0  0  0  0  0  0  0  0
    8.2550   -1.0010   24.5520 C   0  0  0  0  0  0  0  0  0  0  0  0
    9.1890   -3.5540   24.0140 C   0  0  0  0  0  0  0  0  0  0  0  0
    7.8700   -2.0610   25.3550 C   0  0  0  0  0  0  0  0  0  0  0  0
   14.0427   -1.7980   24.3834 C   0  0  0  0  0  0  0  0  0  0  0  0
   12.8714   -0.5506   22.6778 C   0  0  0  0  0  0  0  0  0  0  0  0
    9.1280   -1.2090   23.4870 C   0  0  0  0  0  0  0  0  0  0  0  0
   11.8895   -0.2037   23.6058 C   0  0  0  0  0  0  0  0  0  0  0  0
    8.3450   -3.3440   25.0980 C   0  0  0  0  0  0  0  0  0  0  0  0
   13.9480   -1.3477   23.0666 C   0  0  0  0  0  0  0  0  0  0  0  0
    5.7970    0.9500   18.6730 C   0  0  0  0  0  0  0  0  0  0  0  0
    7.2710   -0.1460   19.8310 C   0  0  0  0  0  0  0  0  0  0  0  0
    4.6610    1.7170   18.4380 C   0  0  0  0  0  0  0  0  0  0  0  0
    3.8860    2.1050   19.5250 C   0  0  0  0  0  0  0  0  0  0  0  0
    4.2460    1.7520   20.8250 C   0  0  0  0  0  0  0  0  0  0  0  0
    5.3890    1.0010   21.0690 C   0  0  0  0  0  0  0  0  0  0  0  0
    6.6194   -4.8191   26.1158 C   0  0  0  0  0  0  0  0  0  0  0  0
    9.0430    0.2380   21.4940 C   0  0  0  0  0  0  0  0  0  0  0  0
    6.4366   -5.9938   27.0605 C   0  0  0  0  0  0  0  0  0  0  0  0
    7.2458   -5.7947   28.3299 C   0  0  0  0  0  0  0  0  0  0  0  0
    8.7184   -5.5215   28.0404 C   0  0  0  0  0  0  0  0  0  0  0  0
    9.0024   -5.2744   26.5596 C   0  0  0  0  0  0  0  0  0  0  0  0
   10.7220    0.6590   23.1850 C   0  0  0  0  0  0  0  0  0  0  0  0
    9.5820   -0.1080   22.7000 C   0  0  1  0  0  0  0  0  0  0  0  0
    6.7100    0.3850   17.8100 N   0  0  0  0  0  0  0  0  0  0  0  0
    7.5840   -0.2700   18.5160 N   0  0  0  0  0  0  0  0  0  0  0  0
    6.1460    0.6070   19.9750 N   0  0  0  0  0  0  0  0  0  0  0  0
    7.9658   -4.4384   25.9449 N   0  0  0  0  0  0  0  0  0  0  0  0
    8.0950   -0.7700   20.8440 N   0  0  0  0  0  0  0  0  0  0  0  0
    5.6415   -4.3469   25.5373 O   0  0  0  0  0  0  0  0  0  0  0  0
    9.2950    1.3000   20.9480 O   0  0  0  0  0  0  0  0  0  0  0  0
   15.1593   -1.7769   21.9219 Cl  0  0  0  0  0  0  0  0  0  0  0  0
   13.1339   -1.8018   26.3368 H   0  0  0  0  0  0  0  0  0  0  0  0
   11.2235   -0.3889   25.6523 H   0  0  0  0  0  0  0  0  0  0  0  0
   10.2695   -2.6718   22.3873 H   0  0  0  0  0  0  0  0  0  0  0  0
    7.8712   -0.0014   24.7587 H   0  0  0  0  0  0  0  0  0  0  0  0
    9.5431   -4.5618   23.7801 H   0  0  0  0  0  0  0  0  0  0  0  0
    7.1923   -1.8823   26.1912 H   0  0  0  0  0  0  0  0  0  0  0  0
   14.8760   -2.4202   24.7005 H   0  0  0  0  0  0  0  0  0  0  0  0
   12.7934   -0.1965   21.6525 H   0  0  0  0  0  0  0  0  0  0  0  0
    4.3710    2.0145   17.4451 H   0  0  0  0  0  0  0  0  0  0  0  0
    2.9929    2.6891   19.3400 H   0  0  0  0  0  0  0  0  0  0  0  0
    3.6320    2.0596   21.6814 H   0  0  0  0  0  0  0  0  0  0  0  0
    5.6863    0.7288   22.0575 H   0  0  0  0  0  0  0  0  0  0  0  0
    5.3901   -6.0734   27.3117 H   0  0  0  0  0  0  0  0  0  0  0  0
    6.7606   -6.8843   26.5429 H   0  0  0  0  0  0  0  0  0  0  0  0
    6.8221   -4.9563   28.9212 H   0  0  0  0  0  0  0  0  0  0  0  0
    7.1526   -6.6910   28.9757 H   0  0  0  0  0  0  0  0  0  0  0  0
    9.0539   -4.6418   28.6288 H   0  0  0  0  0  0  0  0  0  0  0  0
    9.3393   -6.3684   28.4053 H   0  0  0  0  0  0  0  0  0  0  0  0
    9.9475   -4.7506   26.4523 H   0  0  0  0  0  0  0  0  0  0  0  0
    9.0509   -6.2236   26.0372 H   0  0  0  0  0  0  0  0  0  0  0  0
   10.4316    1.3089   24.0208 H   0  0  0  0  0  0  0  0  0  0  0  0
   11.0719    1.3385   22.3955 H   0  0  0  0  0  0  0  0  0  0  0  0
   10.5438   -0.9939   22.0202 H   0  0  0  0  0  0  0  0  0  0  0  0
    8.0917   -1.6083   21.0911 H   0  0  0  0  0  0  0  0  0  0  0  0
  1  2  2  0  0  0  0
  1  7  1  0  0  0  0
  2 10  1  0  0  0  0
  3  5  2  0  0  0  0
  3  9  1  0  0  0  0
  4  6  1  0  0  0  0
  4  9  2  0  0  0  0
  5 11  1  0  0  0  0
  6 11  2  0  0  0  0
  7 12  2  0  0  0  0
  8 10  2  0  0  0  0
  8 12  1  0  0  0  0
  9 26  1  0  0  0  0
 10 25  1  0  0  0  0
 11 30  1  0  0  0  0
 12 34  1  0  0  0  0
 13 15  1  0  0  0  0
 13 27  2  0  0  0  0
 13 29  1  0  0  0  0
 14 28  2  0  0  0  0
 14 29  1  0  0  0  0
 14 31  1  0  0  0  0
 15 16  2  0  0  0  0
 16 17  1  0  0  0  0
 17 18  2  0  0  0  0
 18 29  1  0  0  0  0
 19 21  1  0  0  0  0
 19 30  1  0  0  0  0
 19 32  2  0  0  0  0
 20 26  1  1  0  0  0
 20 31  1  0  0  0  0
 20 33  2  0  0  0  0
 21 22  1  0  0  0  0
 22 23  1  0  0  0  0
 23 24  1  0  0  0  0
 24 30  1  0  0  0  0
 25 26  1  0  0  0  0
 27 28  1  0  0  0  0
  1 35  1  0  0  0  0
  2 36  1  0  0  0  0
  3 37  1  0  0  0  0
  4 38  1  0  0  0  0
  5 39  1  0  0  0  0
  6 40  1  0  0  0  0
  7 41  1  0  0  0  0
  8 42  1  0  0  0  0
 15 43  1  0  0  0  0
 16 44  1  0  0  0  0
 17 45  1  0  0  0  0
 18 46  1  0  0  0  0
 21 47  1  0  0  0  0
 21 48  1  0  0  0  0
 22 49  1  0  0  0  0
 22 50  1  0  0  0  0
 23 51  1  0  0  0  0
 23 52  1  0  0  0  0
 24 53  1  0  0  0  0
 24 54  1  0  0  0  0
 25 55  1  0  0  0  0
 25 56  1  0  0  0  0
 26 57  1  0  0  0  0
 31 58  1  0  0  0  0
M  END
> <clash_score>
0

> <docking_score>
-7.66244649887085

> <overlap_score>
0.9826020002365112

$$$$
BENZO_331_2
  -OEChem-08222022473D

 58 62  0     1  0  0  0  0  0999 V2000
    9.5890   -2.4950   23.2210 C   0  0  0  0  0  0  0  0  0  0  0  0
    8.2550   -1.0010   24.5520 C   0  0  0  0  0  0  0  0  0  0  0  0
    9.1890   -3.5540   24.0140 C   0  0  0  0  0  0  0  0  0  0  0  0
    7.8700   -2.0610   25.3550 C   0  0  0  0  0  0  0  0  0  0  0  0
   12.1477   -0.7466   24.8788 C   0  0  0  0  0  0  0  0  0  0  0  0
   12.9364   -0.6364   22.8292 C   0  0  0  0  0  0  0  0  0  0  0  0
    9.1280   -1.2090   23.4870 C   0  0  0  0  0  0  0  0  0  0  0  0
   11.8895   -0.2037   23.6058 C   0  0  0  0  0  0  0  0  0  0  0  0
    8.3450   -3.3440   25.0980 C   0  0  0  0  0  0  0  0  0  0  0  0
    5.7970    0.9500   18.6730 C   0  0  0  0  0  0  0  0  0  0  0  0
    7.2710   -0.1460   19.8310 C   0  0  0  0  0  0  0  0  0  0  0  0
    4.6610    1.7170   18.4380 C   0  0  0  0  0  0  0  0  0  0  0  0
    3.8860    2.1050   19.5250 C   0  0  0  0  0  0  0  0  0  0  0  0
    4.2460    1.7520   20.8250 C   0  0  0  0  0  0  0  0  0  0  0  0
    5.3890    1.0010   21.0690 C   0  0  0  0  0  0  0  0  0  0  0  0
    6.6194   -4.8191   26.1158 C   0  0  0  0  0  0  0  0  0  0  0  0
    9.0430    0.2380   21.4940 C   0  0  0  0  0  0  0  0  0  0  0  0
    6.4366   -5.9938   27.0605 C   0  0  0  0  0  0  0  0  0  0  0  0
    7.2458   -5.7947   28.3299 C   0  0  0  0  0  0  0  0  0  0  0  0
    8.7184   -5.5215   28.0404 C   0  0  0  0  0  0  0  0  0  0  0  0
    9.0024   -5.2744   26.5596 C   0  0  0  0  0  0  0  0  0  0  0  0
   14.9528   -2.0520   23.2864 C   0  0  0  0  0  0  0  0  0  0  0  0
   10.7220    0.6590   23.1850 C   0  0  0  0  0  0  0  0  0  0  0  0
    9.5820   -0.1080   22.7000 C   0  0  2  0  0  0  0  0  0  0  0  0
   13.2706   -1.4691   24.9131 N   0  0  0  0  0  0  0  0  0  0  0  0
    6.7100    0.3850   17.8100 N   0  0  0  0  0  0  0  0  0  0  0  0
    7.5840   -0.2700   18.5160 N   0  0  0  0  0  0  0  0  0  0  0  0
   13.7271   -1.3833   23.6520 N   0  0  0  0  0  0  0  0  0  0  0  0
    6.1460    0.6070   19.9750 N   0  0  0  0  0  0  0  0  0  0  0  0
    7.9658   -4.4384   25.9449 N   0  0  0  0  0  0  0  0  0  0  0  0
    8.0950   -0.7700   20.8440 N   0  0  0  0  0  0  0  0  0  0  0  0
    5.6415   -4.3469   25.5373 O   0  0  0  0  0  0  0  0  0  0  0  0
    9.2950    1.3000   20.9480 O   0  0  0  0  0  0  0  0  0  0  0  0
   10.2695   -2.6718   22.3873 H   0  0  0  0  0  0  0  0  0  0  0  0
    7.8712   -0.0014   24.7587 H   0  0  0  0  0  0  0  0  0  0  0  0
    9.5431   -4.5618   23.7801 H   0  0  0  0  0  0  0  0  0  0  0  0
    7.1923   -1.8823   26.1912 H   0  0  0  0  0  0  0  0  0  0  0  0
   11.5656   -0.6480   25.7841 H   0  0  0  0  0  0  0  0  0  0  0  0
   13.1794   -0.4813   21.7867 H   0  0  0  0  0  0  0  0  0  0  0  0
    4.3710    2.0145   17.4451 H   0  0  0  0  0  0  0  0  0  0  0  0
    2.9929    2.6891   19.3400 H   0  0  0  0  0  0  0  0  0  0  0  0
    3.6320    2.0596   21.6814 H   0  0  0  0  0  0  0  0  0  0  0  0
    5.6863    0.7288   22.0575 H   0  0  0  0  0  0  0  0  0  0  0  0
    5.3901   -6.0734   27.3117 H   0  0  0  0  0  0  0  0  0  0  0  0
    6.7606   -6.8843   26.5429 H   0  0  0  0  0  0  0  0  0  0  0  0
    6.8221   -4.9563   28.9212 H   0  0  0  0  0  0  0  0  0  0  0  0
    7.1526   -6.6910   28.9757 H   0  0  0  0  0  0  0  0  0  0  0  0
    9.0539   -4.6418   28.6288 H   0  0  0  0  0  0  0  0  0  0  0  0
    9.3393   -6.3684   28.4053 H   0  0  0  0  0  0  0  0  0  0  0  0
    9.9475   -4.7506   26.4523 H   0  0  0  0  0  0  0  0  0  0  0  0
    9.0509   -6.2236   26.0372 H   0  0  0  0  0  0  0  0  0  0  0  0
   15.7795   -1.3568   23.4547 H   0  0  0  0  0  0  0  0  0  0  0  0
   15.0759   -2.9483   23.9007 H   0  0  0  0  0  0  0  0  0  0  0  0
   14.9053   -2.3434   22.2334 H   0  0  0  0  0  0  0  0  0  0  0  0
   10.4316    1.3089   24.0208 H   0  0  0  0  0  0  0  0  0  0  0  0
   11.0719    1.3385   22.3955 H   0  0  0  0  0  0  0  0  0  0  0  0
   10.5438   -0.9939   22.0202 H   0  0  0  0  0  0  0  0  0  0  0  0
    8.0917   -1.6083   21.0911 H   0  0  0  0  0  0  0  0  0  0  0  0
  1  3  2  0  0  0  0
  1  7  1  0  0  0  0
  2  4  1  0  0  0  0
  2  7  2  0  0  0  0
  3  9  1  0  0  0  0
  4  9  2  0  0  0  0
  5  8  1  0  0  0  0
  5 25  2  0  0  0  0
  6  8  2  0  0  0  0
  6 28  1  0  0  0  0
  7 24  1  0  0  0  0
  8 23  1  0  0  0  0
  9 30  1  0  0  0  0
 10 12  1  0  0  0  0
 10 26  2  0  0  0  0
 10 29  1  0  0  0  0
 11 27  2  0  0  0  0
 11 29  1  0  0  0  0
 11 31  1  0  0  0  0
 12 13  2  0  0  0  0
 13 14  1  0  0  0  0
 14 15  2  0  0  0  0
 15 29  1  0  0  0  0
 16 18  1  0  0  0  0
 16 30  1  0  0  0  0
 16 32  2  0  0  0  0
 17 24  1  0  0  0  0
 17 31  1  0  0  0  0
 17 33  2  0  0  0  0
 18 19  1  0  0  0  0
 19 20  1  0  0  0  0
 20 21  1  0  0  0  0
 21 30  1  0  0  0  0
 22 28  1  0  0  0  0
 23 24  1  6  0  0  0
 25 28  1  0  0  0  0
 26 27  1  0  0  0  0
  1 34  1  0  0  0  0
  2 35  1  0  0  0  0
  3 36  1  0  0  0  0
  4 37  1  0  0  0  0
  5 38  1  0  0  0  0
  6 39  1  0  0  0  0
 12 40  1  0  0  0  0
 13 41  1  0  0  0  0
 14 42  1  0  0  0  0
 15 43  1  0  0  0  0
 18 44  1  0  0  0  0
 18 45  1  0  0  0  0
 19 46  1  0  0  0  0
 19 47  1  0  0  0  0
 20 48  1  0  0  0  0
 20 49  1  0  0  0  0
 21 50  1  0  0  0  0
 21 51  1  0  0  0  0
 22 52  1  0  0  0  0
 22 53  1  0  0  0  0
 22 54  1  0  0  0  0
 23 55  1  0  0  0  0
 23 56  1  0  0  0  0
 24 57  1  0  0  0  0
 31 58  1  0  0  0  0
M  END
> <clash_score>
0

> <docking_score>
-7.592447280883789

> <overlap_score>
0.9785135388374329

$$$$
BENZO_331_1
  -OEChem-08222022473D

 58 62  0     1  0  0  0  0  0999 V2000
    9.5890   -2.4950   23.2210 C   0  0  0  0  0  0  0  0  0  0  0  0
    8.2550   -1.0010   24.5520 C   0  0  0  0  0  0  0  0  0  0  0  0
    9.1890   -3.5540   24.0140 C   0  0  0  0  0  0  0  0  0  0  0  0
    7.8700   -2.0610   25.3550 C   0  0  0  0  0  0  0  0  0  0  0  0
   13.3380    0.6111   23.0072 C   0  0  0  0  0  0  0  0  0  0  0  0
   12.2787   -0.9819   21.9231 C   0  0  0  0  0  0  0  0  0  0  0  0
    9.1280   -1.2090   23.4870 C   0  0  0  0  0  0  0  0  0  0  0  0
   12.0527    0.1137   22.7200 C   0  0  0  0  0  0  0  0  0  0  0  0
    8.3450   -3.3440   25.0980 C   0  0  0  0  0  0  0  0  0  0  0  0
    5.7970    0.9500   18.6730 C   0  0  0  0  0  0  0  0  0  0  0  0
    7.2710   -0.1460   19.8310 C   0  0  0  0  0  0  0  0  0  0  0  0
    4.6610    1.7170   18.4380 C   0  0  0  0  0  0  0  0  0  0  0  0
    3.8860    2.1050   19.5250 C   0  0  0  0  0  0  0  0  0  0  0  0
    4.2460    1.7520   20.8250 C   0  0  0  0  0  0  0  0  0  0  0  0
    5.3890    1.0010   21.0690 C   0  0  0  0  0  0  0  0  0  0  0  0
    8.2612   -4.4533   27.3232 C   0  0  0  0  0  0  0  0  0  0  0  0
    9.0430    0.2380   21.4940 C   0  0  0  0  0  0  0  0  0  0  0  0
    7.7639   -5.6979   28.0369 C   0  0  0  0  0  0  0  0  0  0  0  0
    6.3258   -5.9996   27.6538 C   0  0  0  0  0  0  0  0  0  0  0  0
    6.1385   -6.0983   26.1431 C   0  0  0  0  0  0  0  0  0  0  0  0
    7.3646   -5.6395   25.3553 C   0  0  0  0  0  0  0  0  0  0  0  0
   14.3540   -2.0687   21.0338 C   0  0  0  0  0  0  0  0  0  0  0  0
   10.7220    0.6590   23.1850 C   0  0  0  0  0  0  0  0  0  0  0  0
    9.5820   -0.1080   22.7000 C   0  0  1  0  0  0  0  0  0  0  0  0
   14.3086   -0.1095   22.4392 N   0  0  0  0  0  0  0  0  0  0  0  0
    6.7100    0.3850   17.8100 N   0  0  0  0  0  0  0  0  0  0  0  0
    7.5840   -0.2700   18.5160 N   0  0  0  0  0  0  0  0  0  0  0  0
   13.6329   -1.0709   21.7870 N   0  0  0  0  0  0  0  0  0  0  0  0
    6.1460    0.6070   19.9750 N   0  0  0  0  0  0  0  0  0  0  0  0
    7.9658   -4.4385   25.9450 N   0  0  0  0  0  0  0  0  0  0  0  0
    8.0950   -0.7700   20.8440 N   0  0  0  0  0  0  0  0  0  0  0  0
    8.9160   -3.6176   27.9452 O   0  0  0  0  0  0  0  0  0  0  0  0
    9.2950    1.3000   20.9480 O   0  0  0  0  0  0  0  0  0  0  0  0
   10.2695   -2.6718   22.3873 H   0  0  0  0  0  0  0  0  0  0  0  0
    7.8712   -0.0014   24.7587 H   0  0  0  0  0  0  0  0  0  0  0  0
    9.5431   -4.5618   23.7801 H   0  0  0  0  0  0  0  0  0  0  0  0
    7.1923   -1.8823   26.1912 H   0  0  0  0  0  0  0  0  0  0  0  0
   13.6104    1.4678   23.6073 H   0  0  0  0  0  0  0  0  0  0  0  0
   11.6080   -1.6889   21.4540 H   0  0  0  0  0  0  0  0  0  0  0  0
    4.3710    2.0145   17.4451 H   0  0  0  0  0  0  0  0  0  0  0  0
    2.9929    2.6891   19.3400 H   0  0  0  0  0  0  0  0  0  0  0  0
    3.6320    2.0596   21.6814 H   0  0  0  0  0  0  0  0  0  0  0  0
    5.6863    0.7288   22.0575 H   0  0  0  0  0  0  0  0  0  0  0  0
    8.3914   -6.5295   27.7556 H   0  0  0  0  0  0  0  0  0  0  0  0
    7.8414   -5.5198   29.0990 H   0  0  0  0  0  0  0  0  0  0  0  0
    5.9977   -6.9465   28.1311 H   0  0  0  0  0  0  0  0  0  0  0  0
    5.6587   -5.2139   28.0619 H   0  0  0  0  0  0  0  0  0  0  0  0
    5.8986   -7.1470   25.8680 H   0  0  0  0  0  0  0  0  0  0  0  0
    5.2500   -5.5067   25.8324 H   0  0  0  0  0  0  0  0  0  0  0  0
    8.1195   -6.4201   25.3688 H   0  0  0  0  0  0  0  0  0  0  0  0
    7.0780   -5.4282   24.3307 H   0  0  0  0  0  0  0  0  0  0  0  0
   14.4774   -1.6970   20.0132 H   0  0  0  0  0  0  0  0  0  0  0  0
   15.3288   -2.2415   21.4983 H   0  0  0  0  0  0  0  0  0  0  0  0
   13.7859   -3.0032   21.0354 H   0  0  0  0  0  0  0  0  0  0  0  0
   10.7177    0.7189   24.2812 H   0  0  0  0  0  0  0  0  0  0  0  0
   10.6426    1.6980   22.8361 H   0  0  0  0  0  0  0  0  0  0  0  0
    8.7036    0.8022   23.4008 H   0  0  0  0  0  0  0  0  0  0  0  0
    8.0917   -1.6083   21.0911 H   0  0  0  0  0  0  0  0  0  0  0  0
  1  3  2  0  0  0  0
  1  7  1  0  0  0  0
  2  4  1  0  0  0  0
  2  7  2  0  0  0  0
  3  9  1  0  0  0  0
  4  9  2  0  0  0  0
  5  8  1  0  0  0  0
  5 25  2  0  0  0  0
  6  8  2  0  0  0  0
  6 28  1  0  0  0  0
  7 24  1  0  0  0  0
  8 23  1  0  0  0  0
  9 30  1  0  0  0  0
 10 12  1  0  0  0  0
 10 26  2  0  0  0  0
 10 29  1  0  0  0  0
 11 27  2  0  0  0  0
 11 29  1  0  0  0  0
 11 31  1  0  0  0  0
 12 13  2  0  0  0  0
 13 14  1  0  0  0  0
 14 15  2  0  0  0  0
 15 29  1  0  0  0  0
 16 18  1  0  0  0  0
 16 30  1  0  0  0  0
 16 32  2  0  0  0  0
 17 24  1  0  0  0  0
 17 31  1  0  0  0  0
 17 33  2  0  0  0  0
 18 19  1  0  0  0  0
 19 20  1  0  0  0  0
 20 21  1  0  0  0  0
 21 30  1  0  0  0  0
 22 28  1  0  0  0  0
 23 24  1  1  0  0  0
 25 28  1  0  0  0  0
 26 27  1  0  0  0  0
  1 34  1  0  0  0  0
  2 35  1  0  0  0  0
  3 36  1  0  0  0  0
  4 37  1  0  0  0  0
  5 38  1  0  0  0  0
  6 39  1  0  0  0  0
 12 40  1  0  0  0  0
 13 41  1  0  0  0  0
 14 42  1  0  0  0  0
 15 43  1  0  0  0  0
 18 44  1  0  0  0  0
 18 45  1  0  0  0  0
 19 46  1  0  0  0  0
 19 47  1  0  0  0  0
 20 48  1  0  0  0  0
 20 49  1  0  0  0  0
 21 50  1  0  0  0  0
 21 51  1  0  0  0  0
 22 52  1  0  0  0  0
 22 53  1  0  0  0  0
 22 54  1  0  0  0  0
 23 55  1  0  0  0  0
 23 56  1  0  0  0  0
 24 57  1  0  0  0  0
 31 58  1  0  0  0  0
M  END
> <clash_score>
0

> <docking_score>
-9.423627853393555

> <overlap_score>
0.9715062975883484

$$$$
BENZO_333_1
  -OEChem-08222022473D

 57 61  0     1  0  0  0  0  0999 V2000
   14.0446   -1.7964   24.3813 C   0  0  0  0  0  0  0  0  0  0  0  0
   13.0634   -1.4503   25.3102 C   0  0  0  0  0  0  0  0  0  0  0  0
   13.9483   -1.3461   23.0646 C   0  0  0  0  0  0  0  0  0  0  0  0
   11.9858   -0.6540   24.9225 C   0  0  0  0  0  0  0  0  0  0  0  0
   12.8708   -0.5498   22.6769 C   0  0  0  0  0  0  0  0  0  0  0  0
    9.5890   -2.4950   23.2210 C   0  0  0  0  0  0  0  0  0  0  0  0
    8.2550   -1.0010   24.5520 C   0  0  0  0  0  0  0  0  0  0  0  0
    9.1890   -3.5540   24.0140 C   0  0  0  0  0  0  0  0  0  0  0  0
    7.8700   -2.0610   25.3550 C   0  0  0  0  0  0  0  0  0  0  0  0
   11.8895   -0.2037   23.6058 C   0  0  0  0  0  0  0  0  0  0  0  0
    9.1280   -1.2090   23.4870 C   0  0  0  0  0  0  0  0  0  0  0  0
    8.3450   -3.3440   25.0980 C   0  0  0  0  0  0  0  0  0  0  0  0
    5.7970    0.9500   18.6730 C   0  0  0  0  0  0  0  0  0  0  0  0
    7.2710   -0.1460   19.8310 C   0  0  0  0  0  0  0  0  0  0  0  0
    4.6610    1.7170   18.4380 C   0  0  0  0  0  0  0  0  0  0  0  0
    3.8860    2.1050   19.5250 C   0  0  0  0  0  0  0  0  0  0  0  0
    4.2460    1.7520   20.8250 C   0  0  0  0  0  0  0  0  0  0  0  0
    5.3890    1.0010   21.0690 C   0  0  0  0  0  0  0  0  0  0  0  0
    9.0430    0.2380   21.4940 C   0  0  0  0  0  0  0  0  0  0  0  0
    8.9526   -5.2008   26.6600 C   0  0  0  0  0  0  0  0  0  0  0  0
    6.6115   -4.5057   26.4392 C   0  0  0  0  0  0  0  0  0  0  0  0
    8.9053   -4.7827   28.1257 C   0  0  0  0  0  0  0  0  0  0  0  0
    6.6391   -4.1219   27.9194 C   0  0  0  0  0  0  0  0  0  0  0  0
   10.7220    0.6590   23.1850 C   0  0  0  0  0  0  0  0  0  0  0  0
    9.5820   -0.1080   22.7000 C   0  0  1  0  0  0  0  0  0  0  0  0
    6.7100    0.3850   17.8100 N   0  0  0  0  0  0  0  0  0  0  0  0
    7.5840   -0.2700   18.5160 N   0  0  0  0  0  0  0  0  0  0  0  0
    6.1460    0.6070   19.9750 N   0  0  0  0  0  0  0  0  0  0  0  0
    7.9774   -4.4013   25.9152 N   0  0  0  0  0  0  0  0  0  0  0  0
    8.0950   -0.7700   20.8440 N   0  0  0  0  0  0  0  0  0  0  0  0
    9.2950    1.3000   20.9480 O   0  0  0  0  0  0  0  0  0  0  0  0
    7.5748   -4.9364   28.6347 O   0  0  0  0  0  0  0  0  0  0  0  0
   14.8843   -2.4154   24.6836 H   0  0  0  0  0  0  0  0  0  0  0  0
   13.1388   -1.8000   26.3358 H   0  0  0  0  0  0  0  0  0  0  0  0
   14.7127   -1.6145   22.3413 H   0  0  0  0  0  0  0  0  0  0  0  0
   11.2259   -0.3895   25.6531 H   0  0  0  0  0  0  0  0  0  0  0  0
   12.8039   -0.2037   21.6488 H   0  0  0  0  0  0  0  0  0  0  0  0
   10.2684   -2.6719   22.3867 H   0  0  0  0  0  0  0  0  0  0  0  0
    7.8717   -0.0016   24.7596 H   0  0  0  0  0  0  0  0  0  0  0  0
    9.5443   -4.5616   23.7817 H   0  0  0  0  0  0  0  0  0  0  0  0
    7.1921   -1.8821   26.1908 H   0  0  0  0  0  0  0  0  0  0  0  0
    4.3710    2.0145   17.4451 H   0  0  0  0  0  0  0  0  0  0  0  0
    2.9929    2.6891   19.3400 H   0  0  0  0  0  0  0  0  0  0  0  0
    3.6320    2.0596   21.6814 H   0  0  0  0  0  0  0  0  0  0  0  0
    5.6863    0.7288   22.0575 H   0  0  0  0  0  0  0  0  0  0  0  0
    9.9614   -5.0503   26.2701 H   0  0  0  0  0  0  0  0  0  0  0  0
    8.6932   -6.2593   26.5731 H   0  0  0  0  0  0  0  0  0  0  0  0
    6.2625   -5.5339   26.3355 H   0  0  0  0  0  0  0  0  0  0  0  0
    5.9348   -3.8414   25.9036 H   0  0  0  0  0  0  0  0  0  0  0  0
    9.5615   -5.4255   28.7162 H   0  0  0  0  0  0  0  0  0  0  0  0
    9.2365   -3.7494   28.2620 H   0  0  0  0  0  0  0  0  0  0  0  0
    6.8895   -3.0633   28.0551 H   0  0  0  0  0  0  0  0  0  0  0  0
    5.6514   -4.2861   28.3610 H   0  0  0  0  0  0  0  0  0  0  0  0
   10.4315    1.3089   24.0208 H   0  0  0  0  0  0  0  0  0  0  0  0
   11.0719    1.3385   22.3955 H   0  0  0  0  0  0  0  0  0  0  0  0
   10.5438   -0.9939   22.0202 H   0  0  0  0  0  0  0  0  0  0  0  0
    8.0917   -1.6083   21.0911 H   0  0  0  0  0  0  0  0  0  0  0  0
  1  2  1  0  0  0  0
  1  3  2  0  0  0  0
  2  4  2  0  0  0  0
  3  5  1  0  0  0  0
  4 10  1  0  0  0  0
  5 10  2  0  0  0  0
  6  8  2  0  0  0  0
  6 11  1  0  0  0  0
  7  9  1  0  0  0  0
  7 11  2  0  0  0  0
  8 12  1  0  0  0  0
  9 12  2  0  0  0  0
 10 24  1  0  0  0  0
 11 25  1  0  0  0  0
 12 29  1  0  0  0  0
 13 15  1  0  0  0  0
 13 26  2  0  0  0  0
 13 28  1  0  0  0  0
 14 27  2  0  0  0  0
 14 28  1  0  0  0  0
 14 30  1  0  0  0  0
 15 16  2  0  0  0  0
 16 17  1  0  0  0  0
 17 18  2  0  0  0  0
 18 28  1  0  0  0  0
 19 25  1  1  0  0  0
 19 30  1  0  0  0  0
 19 31  2  0  0  0  0
 20 22  1  0  0  0  0
 20 29  1  0  0  0  0
 21 23  1  0  0  0  0
 21 29  1  0  0  0  0
 22 32  1  0  0  0  0
 23 32  1  0  0  0  0
 24 25  1  0  0  0  0
 26 27  1  0  0  0  0
  1 33  1  0  0  0  0
  2 34  1  0  0  0  0
  3 35  1  0  0  0  0
  4 36  1  0  0  0  0
  5 37  1  0  0  0  0
  6 38  1  0  0  0  0
  7 39  1  0  0  0  0
  8 40  1  0  0  0  0
  9 41  1  0  0  0  0
 15 42  1  0  0  0  0
 16 43  1  0  0  0  0
 17 44  1  0  0  0  0
 18 45  1  0  0  0  0
 20 46  1  0  0  0  0
 20 47  1  0  0  0  0
 21 48  1  0  0  0  0
 21 49  1  0  0  0  0
 22 50  1  0  0  0  0
 22 51  1  0  0  0  0
 23 52  1  0  0  0  0
 23 53  1  0  0  0  0
 24 54  1  0  0  0  0
 24 55  1  0  0  0  0
 25 56  1  0  0  0  0
 30 57  1  0  0  0  0
M  END
> <clash_score>
0

> <docking_score>
-8.677413940429688

> <overlap_score>
0.9756206274032593

$$$$
BENZO_333_2
  -OEChem-08222022473D

 57 61  0     1  0  0  0  0  0999 V2000
   14.5084   -0.8935   21.8609 C   0  0  0  0  0  0  0  0  0  0  0  0
   14.4162   -0.2303   23.0845 C   0  0  0  0  0  0  0  0  0  0  0  0
   13.3727   -1.0531   21.0668 C   0  0  0  0  0  0  0  0  0  0  0  0
   13.1884    0.2733   23.5141 C   0  0  0  0  0  0  0  0  0  0  0  0
   12.1449   -0.5495   21.4964 C   0  0  0  0  0  0  0  0  0  0  0  0
    9.5890   -2.4950   23.2210 C   0  0  0  0  0  0  0  0  0  0  0  0
    8.2550   -1.0010   24.5520 C   0  0  0  0  0  0  0  0  0  0  0  0
    9.1890   -3.5540   24.0140 C   0  0  0  0  0  0  0  0  0  0  0  0
    7.8700   -2.0610   25.3550 C   0  0  0  0  0  0  0  0  0  0  0  0
   12.0528    0.1138   22.7200 C   0  0  0  0  0  0  0  0  0  0  0  0
    9.1280   -1.2090   23.4870 C   0  0  0  0  0  0  0  0  0  0  0  0
    8.3450   -3.3440   25.0980 C   0  0  0  0  0  0  0  0  0  0  0  0
    5.7970    0.9500   18.6730 C   0  0  0  0  0  0  0  0  0  0  0  0
    7.2710   -0.1460   19.8310 C   0  0  0  0  0  0  0  0  0  0  0  0
    4.6610    1.7170   18.4380 C   0  0  0  0  0  0  0  0  0  0  0  0
    3.8860    2.1050   19.5250 C   0  0  0  0  0  0  0  0  0  0  0  0
    4.2460    1.7520   20.8250 C   0  0  0  0  0  0  0  0  0  0  0  0
    5.3890    1.0010   21.0690 C   0  0  0  0  0  0  0  0  0  0  0  0
    9.0430    0.2380   21.4940 C   0  0  0  0  0  0  0  0  0  0  0  0
    6.7636   -5.1648   25.5740 C   0  0  0  0  0  0  0  0  0  0  0  0
    8.3038   -4.3778   27.3502 C   0  0  0  0  0  0  0  0  0  0  0  0
    6.8057   -6.5368   26.2370 C   0  0  0  0  0  0  0  0  0  0  0  0
    8.2632   -5.7919   27.9188 C   0  0  0  0  0  0  0  0  0  0  0  0
   10.7220    0.6590   23.1850 C   0  0  0  0  0  0  0  0  0  0  0  0
    9.5820   -0.1080   22.7000 C   0  0  2  0  0  0  0  0  0  0  0  0
    6.7100    0.3850   17.8100 N   0  0  0  0  0  0  0  0  0  0  0  0
    7.5840   -0.2700   18.5160 N   0  0  0  0  0  0  0  0  0  0  0  0
    6.1460    0.6070   19.9750 N   0  0  0  0  0  0  0  0  0  0  0  0
    7.9748   -4.4087   25.9209 N   0  0  0  0  0  0  0  0  0  0  0  0
    8.0950   -0.7700   20.8440 N   0  0  0  0  0  0  0  0  0  0  0  0
    9.2950    1.3000   20.9480 O   0  0  0  0  0  0  0  0  0  0  0  0
    7.0041   -6.4052   27.6445 O   0  0  0  0  0  0  0  0  0  0  0  0
   15.4647   -1.2844   21.5259 H   0  0  0  0  0  0  0  0  0  0  0  0
   15.3006   -0.1050   23.7024 H   0  0  0  0  0  0  0  0  0  0  0  0
   13.4443   -1.5684   20.1136 H   0  0  0  0  0  0  0  0  0  0  0  0
   13.1260    0.7885   24.4690 H   0  0  0  0  0  0  0  0  0  0  0  0
   11.2654   -0.6786   20.8711 H   0  0  0  0  0  0  0  0  0  0  0  0
   10.2684   -2.6719   22.3867 H   0  0  0  0  0  0  0  0  0  0  0  0
    7.8717   -0.0016   24.7596 H   0  0  0  0  0  0  0  0  0  0  0  0
    9.5443   -4.5616   23.7817 H   0  0  0  0  0  0  0  0  0  0  0  0
    7.1922   -1.8821   26.1908 H   0  0  0  0  0  0  0  0  0  0  0  0
    4.3710    2.0145   17.4451 H   0  0  0  0  0  0  0  0  0  0  0  0
    2.9929    2.6891   19.3400 H   0  0  0  0  0  0  0  0  0  0  0  0
    3.6320    2.0596   21.6814 H   0  0  0  0  0  0  0  0  0  0  0  0
    5.6863    0.7288   22.0575 H   0  0  0  0  0  0  0  0  0  0  0  0
    6.6795   -5.2859   24.4876 H   0  0  0  0  0  0  0  0  0  0  0  0
    5.8835   -4.6130   25.9282 H   0  0  0  0  0  0  0  0  0  0  0  0
    7.5706   -3.7507   27.8738 H   0  0  0  0  0  0  0  0  0  0  0  0
    9.2992   -3.9474   27.5112 H   0  0  0  0  0  0  0  0  0  0  0  0
    5.8522   -7.0520   26.0823 H   0  0  0  0  0  0  0  0  0  0  0  0
    7.5937   -7.1675   25.8080 H   0  0  0  0  0  0  0  0  0  0  0  0
    9.0741   -6.4110   27.5161 H   0  0  0  0  0  0  0  0  0  0  0  0
    8.3861   -5.7563   29.0060 H   0  0  0  0  0  0  0  0  0  0  0  0
   10.7177    0.7189   24.2812 H   0  0  0  0  0  0  0  0  0  0  0  0
   10.6426    1.6980   22.8361 H   0  0  0  0  0  0  0  0  0  0  0  0
    8.7036    0.8022   23.4008 H   0  0  0  0  0  0  0  0  0  0  0  0
    8.0917   -1.6083   21.0911 H   0  0  0  0  0  0  0  0  0  0  0  0
  1  2  1  0  0  0  0
  1  3  2  0  0  0  0
  2  4  2  0  0  0  0
  3  5  1  0  0  0  0
  4 10  1  0  0  0  0
  5 10  2  0  0  0  0
  6  8  2  0  0  0  0
  6 11  1  0  0  0  0
  7  9  1  0  0  0  0
  7 11  2  0  0  0  0
  8 12  1  0  0  0  0
  9 12  2  0  0  0  0
 10 24  1  0  0  0  0
 11 25  1  0  0  0  0
 12 29  1  0  0  0  0
 13 15  1  0  0  0  0
 13 26  2  0  0  0  0
 13 28  1  0  0  0  0
 14 27  2  0  0  0  0
 14 28  1  0  0  0  0
 14 30  1  0  0  0  0
 15 16  2  0  0  0  0
 16 17  1  0  0  0  0
 17 18  2  0  0  0  0
 18 28  1  0  0  0  0
 19 25  1  6  0  0  0
 19 30  1  0  0  0  0
 19 31  2  0  0  0  0
 20 22  1  0  0  0  0
 20 29  1  0  0  0  0
 21 23  1  0  0  0  0
 21 29  1  0  0  0  0
 22 32  1  0  0  0  0
 23 32  1  0  0  0  0
 24 25  1  0  0  0  0
 26 27  1  0  0  0  0
  1 33  1  0  0  0  0
  2 34  1  0  0  0  0
  3 35  1  0  0  0  0
  4 36  1  0  0  0  0
  5 37  1  0  0  0  0
  6 38  1  0  0  0  0
  7 39  1  0  0  0  0
  8 40  1  0  0  0  0
  9 41  1  0  0  0  0
 15 42  1  0  0  0  0
 16 43  1  0  0  0  0
 17 44  1  0  0  0  0
 18 45  1  0  0  0  0
 20 46  1  0  0  0  0
 20 47  1  0  0  0  0
 21 48  1  0  0  0  0
 21 49  1  0  0  0  0
 22 50  1  0  0  0  0
 22 51  1  0  0  0  0
 23 52  1  0  0  0  0
 23 53  1  0  0  0  0
 24 54  1  0  0  0  0
 24 55  1  0  0  0  0
 25 56  1  0  0  0  0
 30 57  1  0  0  0  0
M  END
> <clash_score>
0

> <docking_score>
-7.79172945022583

> <overlap_score>
0.9552539587020874

$$$$
BENZO_332_1
  -OEChem-08222022473D

 54 58  0     1  0  0  0  0  0999 V2000
    9.5890   -2.4950   23.2210 C   0  0  0  0  0  0  0  0  0  0  0  0
    8.2550   -1.0010   24.5520 C   0  0  0  0  0  0  0  0  0  0  0  0
    9.1890   -3.5540   24.0140 C   0  0  0  0  0  0  0  0  0  0  0  0
    7.8700   -2.0610   25.3550 C   0  0  0  0  0  0  0  0  0  0  0  0
   12.0564    0.2022   25.3592 C   0  0  0  0  0  0  0  0  0  0  0  0
   12.9336   -0.7085   25.9059 C   0  0  0  0  0  0  0  0  0  0  0  0
   12.2727   -1.3216   23.6174 C   0  0  0  0  0  0  0  0  0  0  0  0
    9.1280   -1.2090   23.4870 C   0  0  0  0  0  0  0  0  0  0  0  0
   11.6734   -0.1530   24.0335 C   0  0  0  0  0  0  0  0  0  0  0  0
    8.3450   -3.3440   25.0980 C   0  0  0  0  0  0  0  0  0  0  0  0
    5.7970    0.9500   18.6730 C   0  0  0  0  0  0  0  0  0  0  0  0
    7.2710   -0.1460   19.8310 C   0  0  0  0  0  0  0  0  0  0  0  0
    4.6610    1.7170   18.4380 C   0  0  0  0  0  0  0  0  0  0  0  0
    3.8860    2.1050   19.5250 C   0  0  0  0  0  0  0  0  0  0  0  0
    4.2460    1.7520   20.8250 C   0  0  0  0  0  0  0  0  0  0  0  0
    5.3890    1.0010   21.0690 C   0  0  0  0  0  0  0  0  0  0  0  0
    9.0430    0.2380   21.4940 C   0  0  0  0  0  0  0  0  0  0  0  0
    6.7636   -5.1648   25.5740 C   0  0  0  0  0  0  0  0  0  0  0  0
    8.3038   -4.3778   27.3502 C   0  0  0  0  0  0  0  0  0  0  0  0
    6.8057   -6.5368   26.2370 C   0  0  0  0  0  0  0  0  0  0  0  0
    8.2632   -5.7919   27.9188 C   0  0  0  0  0  0  0  0  0  0  0  0
   10.7220    0.6590   23.1850 C   0  0  0  0  0  0  0  0  0  0  0  0
    9.5820   -0.1080   22.7000 C   0  0  1  0  0  0  0  0  0  0  0  0
    6.7100    0.3850   17.8100 N   0  0  0  0  0  0  0  0  0  0  0  0
    7.5840   -0.2700   18.5160 N   0  0  0  0  0  0  0  0  0  0  0  0
    6.1460    0.6070   19.9750 N   0  0  0  0  0  0  0  0  0  0  0  0
    7.9748   -4.4087   25.9209 N   0  0  0  0  0  0  0  0  0  0  0  0
    8.0950   -0.7700   20.8440 N   0  0  0  0  0  0  0  0  0  0  0  0
    9.2950    1.3000   20.9480 O   0  0  0  0  0  0  0  0  0  0  0  0
    7.0041   -6.4052   27.6445 O   0  0  0  0  0  0  0  0  0  0  0  0
   13.2921   -1.9853   24.8226 S   0  0  0  0  0  0  0  0  0  0  0  0
   10.2684   -2.6719   22.3867 H   0  0  0  0  0  0  0  0  0  0  0  0
    7.8717   -0.0016   24.7596 H   0  0  0  0  0  0  0  0  0  0  0  0
    9.5443   -4.5616   23.7817 H   0  0  0  0  0  0  0  0  0  0  0  0
    7.1922   -1.8821   26.1908 H   0  0  0  0  0  0  0  0  0  0  0  0
   11.7089    1.0804   25.8886 H   0  0  0  0  0  0  0  0  0  0  0  0
   13.3816   -0.6847   26.8892 H   0  0  0  0  0  0  0  0  0  0  0  0
   12.1644   -1.8199   22.6640 H   0  0  0  0  0  0  0  0  0  0  0  0
    4.3710    2.0145   17.4451 H   0  0  0  0  0  0  0  0  0  0  0  0
    2.9929    2.6891   19.3400 H   0  0  0  0  0  0  0  0  0  0  0  0
    3.6320    2.0596   21.6814 H   0  0  0  0  0  0  0  0  0  0  0  0
    5.6863    0.7288   22.0575 H   0  0  0  0  0  0  0  0  0  0  0  0
    6.6795   -5.2859   24.4876 H   0  0  0  0  0  0  0  0  0  0  0  0
    5.8835   -4.6130   25.9282 H   0  0  0  0  0  0  0  0  0  0  0  0
    7.5706   -3.7507   27.8738 H   0  0  0  0  0  0  0  0  0  0  0  0
    9.2992   -3.9474   27.5112 H   0  0  0  0  0  0  0  0  0  0  0  0
    5.8522   -7.0520   26.0823 H   0  0  0  0  0  0  0  0  0  0  0  0
    7.5937   -7.1675   25.8080 H   0  0  0  0  0  0  0  0  0  0  0  0
    9.0741   -6.4110   27.5161 H   0  0  0  0  0  0  0  0  0  0  0  0
    8.3861   -5.7563   29.0060 H   0  0  0  0  0  0  0  0  0  0  0  0
   10.3911    1.5389   23.7520 H   0  0  0  0  0  0  0  0  0  0  0  0
   11.2877    1.0581   22.3316 H   0  0  0  0  0  0  0  0  0  0  0  0
   10.5438   -0.9939   22.0202 H   0  0  0  0  0  0  0  0  0  0  0  0
    8.0917   -1.6083   21.0911 H   0  0  0  0  0  0  0  0  0  0  0  0
  1  3  2  0  0  0  0
  1  8  1  0  0  0  0
  2  4  1  0  0  0  0
  2  8  2  0  0  0  0
  3 10  1  0  0  0  0
  4 10  2  0  0  0  0
  5  6  2  0  0  0  0
  5  9  1  0  0  0  0
  6 31  1  0  0  0  0
  7  9  2  0  0  0  0
  7 31  1  0  0  0  0
  8 23  1  0  0  0  0
  9 22  1  0  0  0  0
 10 27  1  0  0  0  0
 11 13  1  0  0  0  0
 11 24  2  0  0  0  0
 11 26  1  0  0  0  0
 12 25  2  0  0  0  0
 12 26  1  0  0  0  0
 12 28  1  0  0  0  0
 13 14  2  0  0  0  0
 14 15  1  0  0  0  0
 15 16  2  0  0  0  0
 16 26  1  0  0  0  0
 17 23  1  1  0  0  0
 17 28  1  0  0  0  0
 17 29  2  0  0  0  0
 18 20  1  0  0  0  0
 18 27  1  0  0  0  0
 19 21  1  0  0  0  0
 19 27  1  0  0  0  0
 20 30  1  0  0  0  0
 21 30  1  0  0  0  0
 22 23  1  0  0  0  0
 24 25  1  0  0  0  0
  1 32  1  0  0  0  0
  2 33  1  0  0  0  0
  3 34  1  0  0  0  0
  4 35  1  0  0  0  0
  5 36  1  0  0  0  0
  6 37  1  0  0  0  0
  7 38  1  0  0  0  0
 13 39  1  0  0  0  0
 14 40  1  0  0  0  0
 15 41  1  0  0  0  0
 16 42  1  0  0  0  0
 18 43  1  0  0  0  0
 18 44  1  0  0  0  0
 19 45  1  0  0  0  0
 19 46  1  0  0  0  0
 20 47  1  0  0  0  0
 20 48  1  0  0  0  0
 21 49  1  0  0  0  0
 21 50  1  0  0  0  0
 22 51  1  0  0  0  0
 22 52  1  0  0  0  0
 23 53  1  0  0  0  0
 28 54  1  0  0  0  0
M  END
> <clash_score>
0

> <docking_score>
-6.223287582397461

> <overlap_score>
0.9189088940620422

$$$$
BENZO_332_2
  -OEChem-08222022473D

 54 58  0     1  0  0  0  0  0999 V2000
    9.5890   -2.4950   23.2210 C   0  0  0  0  0  0  0  0  0  0  0  0
    8.2550   -1.0010   24.5520 C   0  0  0  0  0  0  0  0  0  0  0  0
    9.1890   -3.5540   24.0140 C   0  0  0  0  0  0  0  0  0  0  0  0
    7.8700   -2.0610   25.3550 C   0  0  0  0  0  0  0  0  0  0  0  0
   13.1119   -0.2538   23.5994 C   0  0  0  0  0  0  0  0  0  0  0  0
   14.2134   -0.7202   22.9163 C   0  0  0  0  0  0  0  0  0  0  0  0
   12.3853   -0.0855   21.3980 C   0  0  0  0  0  0  0  0  0  0  0  0
    9.1280   -1.2090   23.4870 C   0  0  0  0  0  0  0  0  0  0  0  0
   12.0528    0.1138   22.7200 C   0  0  0  0  0  0  0  0  0  0  0  0
    8.3450   -3.3440   25.0980 C   0  0  0  0  0  0  0  0  0  0  0  0
    5.7970    0.9500   18.6730 C   0  0  0  0  0  0  0  0  0  0  0  0
    7.2710   -0.1460   19.8310 C   0  0  0  0  0  0  0  0  0  0  0  0
    4.6610    1.7170   18.4380 C   0  0  0  0  0  0  0  0  0  0  0  0
    3.8860    2.1050   19.5250 C   0  0  0  0  0  0  0  0  0  0  0  0
    4.2460    1.7520   20.8250 C   0  0  0  0  0  0  0  0  0  0  0  0
    5.3890    1.0010   21.0690 C   0  0  0  0  0  0  0  0  0  0  0  0
    9.0430    0.2380   21.4940 C   0  0  0  0  0  0  0  0  0  0  0  0
    8.9526   -5.2008   26.6600 C   0  0  0  0  0  0  0  0  0  0  0  0
    6.6115   -4.5057   26.4392 C   0  0  0  0  0  0  0  0  0  0  0  0
    8.9053   -4.7827   28.1257 C   0  0  0  0  0  0  0  0  0  0  0  0
    6.6391   -4.1219   27.9194 C   0  0  0  0  0  0  0  0  0  0  0  0
   10.7220    0.6590   23.1850 C   0  0  0  0  0  0  0  0  0  0  0  0
    9.5820   -0.1080   22.7000 C   0  0  2  0  0  0  0  0  0  0  0  0
    6.7100    0.3850   17.8100 N   0  0  0  0  0  0  0  0  0  0  0  0
    7.5840   -0.2700   18.5160 N   0  0  0  0  0  0  0  0  0  0  0  0
    6.1460    0.6070   19.9750 N   0  0  0  0  0  0  0  0  0  0  0  0
    7.9774   -4.4013   25.9152 N   0  0  0  0  0  0  0  0  0  0  0  0
    8.0950   -0.7700   20.8440 N   0  0  0  0  0  0  0  0  0  0  0  0
    9.2950    1.3000   20.9480 O   0  0  0  0  0  0  0  0  0  0  0  0
    7.5748   -4.9364   28.6347 O   0  0  0  0  0  0  0  0  0  0  0  0
   13.9685   -0.7136   21.2215 S   0  0  0  0  0  0  0  0  0  0  0  0
   10.2684   -2.6719   22.3867 H   0  0  0  0  0  0  0  0  0  0  0  0
    7.8717   -0.0016   24.7596 H   0  0  0  0  0  0  0  0  0  0  0  0
    9.5443   -4.5616   23.7817 H   0  0  0  0  0  0  0  0  0  0  0  0
    7.1921   -1.8821   26.1908 H   0  0  0  0  0  0  0  0  0  0  0  0
   13.0722   -0.1810   24.6789 H   0  0  0  0  0  0  0  0  0  0  0  0
   15.1504   -1.0638   23.3311 H   0  0  0  0  0  0  0  0  0  0  0  0
   11.7779    0.1073   20.5246 H   0  0  0  0  0  0  0  0  0  0  0  0
    4.3710    2.0145   17.4451 H   0  0  0  0  0  0  0  0  0  0  0  0
    2.9929    2.6891   19.3400 H   0  0  0  0  0  0  0  0  0  0  0  0
    3.6320    2.0596   21.6814 H   0  0  0  0  0  0  0  0  0  0  0  0
    5.6863    0.7288   22.0575 H   0  0  0  0  0  0  0  0  0  0  0  0
    9.9614   -5.0503   26.2701 H   0  0  0  0  0  0  0  0  0  0  0  0
    8.6932   -6.2593   26.5731 H   0  0  0  0  0  0  0  0  0  0  0  0
    6.2625   -5.5339   26.3355 H   0  0  0  0  0  0  0  0  0  0  0  0
    5.9348   -3.8414   25.9036 H   0  0  0  0  0  0  0  0  0  0  0  0
    9.5615   -5.4255   28.7162 H   0  0  0  0  0  0  0  0  0  0  0  0
    9.2365   -3.7494   28.2620 H   0  0  0  0  0  0  0  0  0  0  0  0
    6.8895   -3.0633   28.0551 H   0  0  0  0  0  0  0  0  0  0  0  0
    5.6514   -4.2861   28.3610 H   0  0  0  0  0  0  0  0  0  0  0  0
   10.7177    0.7189   24.2812 H   0  0  0  0  0  0  0  0  0  0  0  0
   10.6426    1.6980   22.8361 H   0  0  0  0  0  0  0  0  0  0  0  0
    8.7036    0.8022   23.4008 H   0  0  0  0  0  0  0  0  0  0  0  0
    8.0917   -1.6083   21.0911 H   0  0  0  0  0  0  0  0  0  0  0  0
  1  3  2  0  0  0  0
  1  8  1  0  0  0  0
  2  4  1  0  0  0  0
  2  8  2  0  0  0  0
  3 10  1  0  0  0  0
  4 10  2  0  0  0  0
  5  6  2  0  0  0  0
  5  9  1  0  0  0  0
  6 31  1  0  0  0  0
  7  9  2  0  0  0  0
  7 31  1  0  0  0  0
  8 23  1  0  0  0  0
  9 22  1  0  0  0  0
 10 27  1  0  0  0  0
 11 13  1  0  0  0  0
 11 24  2  0  0  0  0
 11 26  1  0  0  0  0
 12 25  2  0  0  0  0
 12 26  1  0  0  0  0
 12 28  1  0  0  0  0
 13 14  2  0  0  0  0
 14 15  1  0  0  0  0
 15 16  2  0  0  0  0
 16 26  1  0  0  0  0
 17 23  1  6  0  0  0
 17 28  1  0  0  0  0
 17 29  2  0  0  0  0
 18 20  1  0  0  0  0
 18 27  1  0  0  0  0
 19 21  1  0  0  0  0
 19 27  1  0  0  0  0
 20 30  1  0  0  0  0
 21 30  1  0  0  0  0
 22 23  1  0  0  0  0
 24 25  1  0  0  0  0
  1 32  1  0  0  0  0
  2 33  1  0  0  0  0
  3 34  1  0  0  0  0
  4 35  1  0  0  0  0
  5 36  1  0  0  0  0
  6 37  1  0  0  0  0
  7 38  1  0  0  0  0
 13 39  1  0  0  0  0
 14 40  1  0  0  0  0
 15 41  1  0  0  0  0
 16 42  1  0  0  0  0
 18 43  1  0  0  0  0
 18 44  1  0  0  0  0
 19 45  1  0  0  0  0
 19 46  1  0  0  0  0
 20 47  1  0  0  0  0
 20 48  1  0  0  0  0
 21 49  1  0  0  0  0
 21 50  1  0  0  0  0
 22 51  1  0  0  0  0
 22 52  1  0  0  0  0
 23 53  1  0  0  0  0
 28 54  1  0  0  0  0
M  END
> <clash_score>
0

> <docking_score>
-7.8345794677734375

> <overlap_score>
0.9507242441177368

$$$$
BENZO_337_1
  -OEChem-08222022473D

 52 55  0     0  0  0  0  0  0999 V2000
   14.2642   -1.7450   23.4813 C   0  0  0  0  0  0  0  0  0  0  0  0
   14.0779   -0.6681   24.3480 C   0  0  0  0  0  0  0  0  0  0  0  0
   13.2991   -2.0403   22.5184 C   0  0  0  0  0  0  0  0  0  0  0  0
    3.8860    2.1050   19.5250 C   0  0  0  0  0  0  0  0  0  0  0  0
    4.2460    1.7520   20.8250 C   0  0  0  0  0  0  0  0  0  0  0  0
   12.9266    0.1135   24.2518 C   0  0  0  0  0  0  0  0  0  0  0  0
   12.1478   -1.2587   22.4222 C   0  0  0  0  0  0  0  0  0  0  0  0
    4.6610    1.7170   18.4380 C   0  0  0  0  0  0  0  0  0  0  0  0
    5.3890    1.0010   21.0690 C   0  0  0  0  0  0  0  0  0  0  0  0
    9.5890   -2.4950   23.2210 C   0  0  0  0  0  0  0  0  0  0  0  0
    8.2550   -1.0010   24.5520 C   0  0  0  0  0  0  0  0  0  0  0  0
    9.1890   -3.5540   24.0140 C   0  0  0  0  0  0  0  0  0  0  0  0
    7.8700   -2.0610   25.3550 C   0  0  0  0  0  0  0  0  0  0  0  0
   11.9616   -0.1817   23.2889 C   0  0  0  0  0  0  0  0  0  0  0  0
    5.7970    0.9500   18.6730 C   0  0  0  0  0  0  0  0  0  0  0  0
    6.1460    0.6070   19.9750 C   0  0  0  0  0  0  0  0  0  0  0  0
    9.1280   -1.2090   23.4870 C   0  0  0  0  0  0  0  0  0  0  0  0
    8.3450   -3.3440   25.0980 C   0  0  0  0  0  0  0  0  0  0  0  0
    9.0430    0.2380   21.4940 C   0  0  0  0  0  0  0  0  0  0  0  0
    8.4650   -5.7553   25.6628 C   0  0  0  0  0  0  0  0  0  0  0  0
    7.1035   -4.1983   27.0666 C   0  0  0  0  0  0  0  0  0  0  0  0
   10.7220    0.6590   23.1850 C   0  0  0  0  0  0  0  0  0  0  0  0
    8.0950   -0.7700   20.8440 C   0  0  0  0  0  0  0  0  0  0  0  0
    6.7100    0.3850   17.8100 N   0  0  0  0  0  0  0  0  0  0  0  0
    7.5840   -0.2700   18.5160 N   0  0  0  0  0  0  0  0  0  0  0  0
    7.2710   -0.1460   19.8310 N   0  0  0  0  0  0  0  0  0  0  0  0
    9.5820   -0.1080   22.7000 N   0  0  0  0  0  0  0  0  0  0  0  0
    7.9731   -4.4180   25.9279 N   0  0  0  0  0  0  0  0  0  0  0  0
    9.2950    1.3000   20.9480 O   0  0  0  0  0  0  0  0  0  0  0  0
   15.1613   -2.3527   23.5555 H   0  0  0  0  0  0  0  0  0  0  0  0
   14.8297   -0.4373   25.0971 H   0  0  0  0  0  0  0  0  0  0  0  0
   13.4443   -2.8780   21.8427 H   0  0  0  0  0  0  0  0  0  0  0  0
    2.9847    2.6930   19.3611 H   0  0  0  0  0  0  0  0  0  0  0  0
    3.6232    2.0694   21.6565 H   0  0  0  0  0  0  0  0  0  0  0  0
   12.7899    0.9506   24.9315 H   0  0  0  0  0  0  0  0  0  0  0  0
   11.4013   -1.4963   21.6690 H   0  0  0  0  0  0  0  0  0  0  0  0
    4.3785    2.0112   17.4257 H   0  0  0  0  0  0  0  0  0  0  0  0
    5.6780    0.7321   22.0906 H   0  0  0  0  0  0  0  0  0  0  0  0
   10.2682   -2.6746   22.3864 H   0  0  0  0  0  0  0  0  0  0  0  0
    7.8692   -0.0022   24.7600 H   0  0  0  0  0  0  0  0  0  0  0  0
    9.5433   -4.5619   23.7809 H   0  0  0  0  0  0  0  0  0  0  0  0
    7.1923   -1.8829   26.1908 H   0  0  0  0  0  0  0  0  0  0  0  0
    8.0645   -6.4499   26.4159 H   0  0  0  0  0  0  0  0  0  0  0  0
    8.1402   -6.0735   24.6612 H   0  0  0  0  0  0  0  0  0  0  0  0
    9.5640   -5.7576   25.7098 H   0  0  0  0  0  0  0  0  0  0  0  0
    6.9301   -5.1525   27.5856 H   0  0  0  0  0  0  0  0  0  0  0  0
    7.5777   -3.4859   27.7578 H   0  0  0  0  0  0  0  0  0  0  0  0
    6.1428   -3.7893   26.7206 H   0  0  0  0  0  0  0  0  0  0  0  0
   10.4561    1.0772   24.1620 H   0  0  0  0  0  0  0  0  0  0  0  0
   10.8743    1.5008   22.5014 H   0  0  0  0  0  0  0  0  0  0  0  0
    8.6619   -1.5627   20.3589 H   0  0  0  0  0  0  0  0  0  0  0  0
    7.4230   -1.1880   21.5916 H   0  0  0  0  0  0  0  0  0  0  0  0
  1  2  1  0  0  0  0
  1  3  2  0  0  0  0
  2  6  2  0  0  0  0
  3  7  1  0  0  0  0
  4  5  1  0  0  0  0
  4  8  2  0  0  0  0
  5  9  2  0  0  0  0
  6 14  1  0  0  0  0
  7 14  2  0  0  0  0
  8 15  1  0  0  0  0
  9 16  1  0  0  0  0
 10 12  2  0  0  0  0
 10 17  1  0  0  0  0
 11 13  1  0  0  0  0
 11 17  2  0  0  0  0
 12 18  1  0  0  0  0
 13 18  2  0  0  0  0
 14 22  1  0  0  0  0
 15 16  2  0  0  0  0
 15 24  1  0  0  0  0
 16 26  1  0  0  0  0
 17 27  1  0  0  0  0
 18 28  1  0  0  0  0
 19 23  1  0  0  0  0
 19 27  1  0  0  0  0
 19 29  2  0  0  0  0
 20 28  1  0  0  0  0
 21 28  1  0  0  0  0
 22 27  1  0  0  0  0
 23 26  1  0  0  0  0
 24 25  2  0  0  0  0
 25 26  1  0  0  0  0
  1 30  1  0  0  0  0
  2 31  1  0  0  0  0
  3 32  1  0  0  0  0
  4 33  1  0  0  0  0
  5 34  1  0  0  0  0
  6 35  1  0  0  0  0
  7 36  1  0  0  0  0
  8 37  1  0  0  0  0
  9 38  1  0  0  0  0
 10 39  1  0  0  0  0
 11 40  1  0  0  0  0
 12 41  1  0  0  0  0
 13 42  1  0  0  0  0
 20 43  1  0  0  0  0
 20 44  1  0  0  0  0
 20 45  1  0  0  0  0
 21 46  1  0  0  0  0
 21 47  1  0  0  0  0
 21 48  1  0  0  0  0
 22 49  1  0  0  0  0
 22 50  1  0  0  0  0
 23 51  1  0  0  0  0
 23 52  1  0  0  0  0
M  END
> <clash_score>
0

> <docking_score>
-10.088418006896973

> <overlap_score>
0.934486985206604

$$$$
BENZO_336_1
  -OEChem-08222022473D

 49 52  0     0  0  0  0  0  0999 V2000
    3.8860    2.1050   19.5250 C   0  0  0  0  0  0  0  0  0  0  0  0
    4.2460    1.7520   20.8250 C   0  0  0  0  0  0  0  0  0  0  0  0
    4.6610    1.7170   18.4380 C   0  0  0  0  0  0  0  0  0  0  0  0
    5.3890    1.0010   21.0690 C   0  0  0  0  0  0  0  0  0  0  0  0
    9.5890   -2.4950   23.2210 C   0  0  0  0  0  0  0  0  0  0  0  0
    8.2550   -1.0010   24.5520 C   0  0  0  0  0  0  0  0  0  0  0  0
    9.1890   -3.5540   24.0140 C   0  0  0  0  0  0  0  0  0  0  0  0
    7.8700   -2.0610   25.3550 C   0  0  0  0  0  0  0  0  0  0  0  0
   12.6785   -0.3936   24.5018 C   0  0  0  0  0  0  0  0  0  0  0  0
   13.7775   -1.2037   24.3186 C   0  0  0  0  0  0  0  0  0  0  0  0
   12.5401   -0.8378   22.2246 C   0  0  0  0  0  0  0  0  0  0  0  0
   11.9616   -0.1817   23.2889 C   0  0  0  0  0  0  0  0  0  0  0  0
    5.7970    0.9500   18.6730 C   0  0  0  0  0  0  0  0  0  0  0  0
    6.1460    0.6070   19.9750 C   0  0  0  0  0  0  0  0  0  0  0  0
    9.1280   -1.2090   23.4870 C   0  0  0  0  0  0  0  0  0  0  0  0
    8.3450   -3.3440   25.0980 C   0  0  0  0  0  0  0  0  0  0  0  0
    9.0430    0.2380   21.4940 C   0  0  0  0  0  0  0  0  0  0  0  0
    7.2639   -5.5574   25.3806 C   0  0  0  0  0  0  0  0  0  0  0  0
    8.3061   -4.4046   27.3385 C   0  0  0  0  0  0  0  0  0  0  0  0
   10.7220    0.6590   23.1850 C   0  0  0  0  0  0  0  0  0  0  0  0
    8.0950   -0.7700   20.8440 C   0  0  0  0  0  0  0  0  0  0  0  0
    6.7100    0.3850   17.8100 N   0  0  0  0  0  0  0  0  0  0  0  0
    7.5840   -0.2700   18.5160 N   0  0  0  0  0  0  0  0  0  0  0  0
    7.2710   -0.1460   19.8310 N   0  0  0  0  0  0  0  0  0  0  0  0
    9.5820   -0.1080   22.7000 N   0  0  0  0  0  0  0  0  0  0  0  0
    7.9731   -4.4180   25.9279 N   0  0  0  0  0  0  0  0  0  0  0  0
    9.2950    1.3000   20.9480 O   0  0  0  0  0  0  0  0  0  0  0  0
   13.9416   -1.7050   22.6894 S   0  0  0  0  0  0  0  0  0  0  0  0
    2.9847    2.6930   19.3611 H   0  0  0  0  0  0  0  0  0  0  0  0
    3.6232    2.0694   21.6565 H   0  0  0  0  0  0  0  0  0  0  0  0
    4.3785    2.0112   17.4257 H   0  0  0  0  0  0  0  0  0  0  0  0
    5.6780    0.7321   22.0906 H   0  0  0  0  0  0  0  0  0  0  0  0
   10.2682   -2.6746   22.3864 H   0  0  0  0  0  0  0  0  0  0  0  0
    7.8692   -0.0022   24.7600 H   0  0  0  0  0  0  0  0  0  0  0  0
    9.5433   -4.5619   23.7809 H   0  0  0  0  0  0  0  0  0  0  0  0
    7.1923   -1.8829   26.1908 H   0  0  0  0  0  0  0  0  0  0  0  0
   12.4058    0.0253   25.4623 H   0  0  0  0  0  0  0  0  0  0  0  0
   14.4923   -1.5245   25.0631 H   0  0  0  0  0  0  0  0  0  0  0  0
   12.2108   -0.8511   21.1948 H   0  0  0  0  0  0  0  0  0  0  0  0
    7.0640   -6.2847   26.1813 H   0  0  0  0  0  0  0  0  0  0  0  0
    6.3116   -5.2214   24.9445 H   0  0  0  0  0  0  0  0  0  0  0  0
    7.8778   -6.0309   24.6003 H   0  0  0  0  0  0  0  0  0  0  0  0
    7.9324   -5.3241   27.8128 H   0  0  0  0  0  0  0  0  0  0  0  0
    9.3984   -4.3491   27.4567 H   0  0  0  0  0  0  0  0  0  0  0  0
    7.8406   -3.5302   27.8168 H   0  0  0  0  0  0  0  0  0  0  0  0
   10.4561    1.0772   24.1620 H   0  0  0  0  0  0  0  0  0  0  0  0
   10.8743    1.5008   22.5014 H   0  0  0  0  0  0  0  0  0  0  0  0
    8.6619   -1.5627   20.3589 H   0  0  0  0  0  0  0  0  0  0  0  0
    7.4230   -1.1880   21.5916 H   0  0  0  0  0  0  0  0  0  0  0  0
  1  2  1  0  0  0  0
  1  3  2  0  0  0  0
  2  4  2  0  0  0  0
  3 13  1  0  0  0  0
  4 14  1  0  0  0  0
  5  7  2  0  0  0  0
  5 15  1  0  0  0  0
  6  8  1  0  0  0  0
  6 15  2  0  0  0  0
  7 16  1  0  0  0  0
  8 16  2  0  0  0  0
  9 10  2  0  0  0  0
  9 12  1  0  0  0  0
 10 28  1  0  0  0  0
 11 12  2  0  0  0  0
 11 28  1  0  0  0  0
 12 20  1  0  0  0  0
 13 14  2  0  0  0  0
 13 22  1  0  0  0  0
 14 24  1  0  0  0  0
 15 25  1  0  0  0  0
 16 26  1  0  0  0  0
 17 21  1  0  0  0  0
 17 25  1  0  0  0  0
 17 27  2  0  0  0  0
 18 26  1  0  0  0  0
 19 26  1  0  0  0  0
 20 25  1  0  0  0  0
 21 24  1  0  0  0  0
 22 23  2  0  0  0  0
 23 24  1  0  0  0  0
  1 29  1  0  0  0  0
  2 30  1  0  0  0  0
  3 31  1  0  0  0  0
  4 32  1  0  0  0  0
  5 33  1  0  0  0  0
  6 34  1  0  0  0  0
  7 35  1  0  0  0  0
  8 36  1  0  0  0  0
  9 37  1  0  0  0  0
 10 38  1  0  0  0  0
 11 39  1  0  0  0  0
 18 40  1  0  0  0  0
 18 41  1  0  0  0  0
 18 42  1  0  0  0  0
 19 43  1  0  0  0  0
 19 44  1  0  0  0  0
 19 45  1  0  0  0  0
 20 46  1  0  0  0  0
 20 47  1  0  0  0  0
 21 48  1  0  0  0  0
 21 49  1  0  0  0  0
M  END
> <clash_score>
0

> <docking_score>
-9.661288261413574

> <overlap_score>
0.9331515431404114

$$$$
BENZO_339_1
  -OEChem-08222022473D

 52 55  0     0  0  0  0  0  0999 V2000
    3.8860    2.1050   19.5250 C   0  0  0  0  0  0  0  0  0  0  0  0
    4.2460    1.7520   20.8250 C   0  0  0  0  0  0  0  0  0  0  0  0
    4.6610    1.7170   18.4380 C   0  0  0  0  0  0  0  0  0  0  0  0
    5.3890    1.0010   21.0690 C   0  0  0  0  0  0  0  0  0  0  0  0
    9.5890   -2.4950   23.2210 C   0  0  0  0  0  0  0  0  0  0  0  0
    8.2550   -1.0010   24.5520 C   0  0  0  0  0  0  0  0  0  0  0  0
    9.1890   -3.5540   24.0140 C   0  0  0  0  0  0  0  0  0  0  0  0
    7.8700   -2.0610   25.3550 C   0  0  0  0  0  0  0  0  0  0  0  0
   12.7320   -0.4464   24.4370 C   0  0  0  0  0  0  0  0  0  0  0  0
   12.5970   -0.8682   22.2832 C   0  0  0  0  0  0  0  0  0  0  0  0
   11.9616   -0.1817   23.2889 C   0  0  0  0  0  0  0  0  0  0  0  0
    5.7970    0.9500   18.6730 C   0  0  0  0  0  0  0  0  0  0  0  0
    6.1460    0.6070   19.9750 C   0  0  0  0  0  0  0  0  0  0  0  0
    9.1280   -1.2090   23.4870 C   0  0  0  0  0  0  0  0  0  0  0  0
    8.3450   -3.3440   25.0980 C   0  0  0  0  0  0  0  0  0  0  0  0
    9.0430    0.2380   21.4940 C   0  0  0  0  0  0  0  0  0  0  0  0
   14.6393   -2.3180   22.2082 C   0  0  0  0  0  0  0  0  0  0  0  0
    7.2639   -5.5574   25.3806 C   0  0  0  0  0  0  0  0  0  0  0  0
    8.3061   -4.4046   27.3385 C   0  0  0  0  0  0  0  0  0  0  0  0
   10.7220    0.6590   23.1850 C   0  0  0  0  0  0  0  0  0  0  0  0
    8.0950   -0.7700   20.8440 C   0  0  0  0  0  0  0  0  0  0  0  0
   13.7770   -1.2393   24.1852 N   0  0  0  0  0  0  0  0  0  0  0  0
    6.7100    0.3850   17.8100 N   0  0  0  0  0  0  0  0  0  0  0  0
    7.5840   -0.2700   18.5160 N   0  0  0  0  0  0  0  0  0  0  0  0
   13.6676   -1.4788   22.8673 N   0  0  0  0  0  0  0  0  0  0  0  0
    7.2710   -0.1460   19.8310 N   0  0  0  0  0  0  0  0  0  0  0  0
    9.5820   -0.1080   22.7000 N   0  0  0  0  0  0  0  0  0  0  0  0
    7.9731   -4.4180   25.9279 N   0  0  0  0  0  0  0  0  0  0  0  0
    9.2950    1.3000   20.9480 O   0  0  0  0  0  0  0  0  0  0  0  0
    2.9847    2.6930   19.3611 H   0  0  0  0  0  0  0  0  0  0  0  0
    3.6232    2.0694   21.6565 H   0  0  0  0  0  0  0  0  0  0  0  0
    4.3785    2.0112   17.4257 H   0  0  0  0  0  0  0  0  0  0  0  0
    5.6780    0.7321   22.0906 H   0  0  0  0  0  0  0  0  0  0  0  0
   10.2682   -2.6746   22.3864 H   0  0  0  0  0  0  0  0  0  0  0  0
    7.8692   -0.0022   24.7600 H   0  0  0  0  0  0  0  0  0  0  0  0
    9.5433   -4.5619   23.7809 H   0  0  0  0  0  0  0  0  0  0  0  0
    7.1923   -1.8829   26.1908 H   0  0  0  0  0  0  0  0  0  0  0  0
   12.5771   -0.0965   25.4478 H   0  0  0  0  0  0  0  0  0  0  0  0
   12.3832   -0.9726   21.2281 H   0  0  0  0  0  0  0  0  0  0  0  0
   15.4522   -1.6787   21.8540 H   0  0  0  0  0  0  0  0  0  0  0  0
   15.0179   -3.0612   22.9154 H   0  0  0  0  0  0  0  0  0  0  0  0
   14.1626   -2.8324   21.3691 H   0  0  0  0  0  0  0  0  0  0  0  0
    7.0640   -6.2847   26.1813 H   0  0  0  0  0  0  0  0  0  0  0  0
    6.3116   -5.2214   24.9445 H   0  0  0  0  0  0  0  0  0  0  0  0
    7.8778   -6.0309   24.6003 H   0  0  0  0  0  0  0  0  0  0  0  0
    7.9324   -5.3241   27.8128 H   0  0  0  0  0  0  0  0  0  0  0  0
    9.3984   -4.3491   27.4567 H   0  0  0  0  0  0  0  0  0  0  0  0
    7.8406   -3.5302   27.8168 H   0  0  0  0  0  0  0  0  0  0  0  0
   10.4561    1.0772   24.1620 H   0  0  0  0  0  0  0  0  0  0  0  0
   10.8743    1.5008   22.5014 H   0  0  0  0  0  0  0  0  0  0  0  0
    8.6619   -1.5627   20.3589 H   0  0  0  0  0  0  0  0  0  0  0  0
    7.4230   -1.1880   21.5916 H   0  0  0  0  0  0  0  0  0  0  0  0
  1  2  1  0  0  0  0
  1  3  2  0  0  0  0
  2  4  2  0  0  0  0
  3 12  1  0  0  0  0
  4 13  1  0  0  0  0
  5  7  2  0  0  0  0
  5 14  1  0  0  0  0
  6  8  1  0  0  0  0
  6 14  2  0  0  0  0
  7 15  1  0  0  0  0
  8 15  2  0  0  0  0
  9 11  1  0  0  0  0
  9 22  2  0  0  0  0
 10 11  2  0  0  0  0
 10 25  1  0  0  0  0
 11 20  1  0  0  0  0
 12 13  2  0  0  0  0
 12 23  1  0  0  0  0
 13 26  1  0  0  0  0
 14 27  1  0  0  0  0
 15 28  1  0  0  0  0
 16 21  1  0  0  0  0
 16 27  1  0  0  0  0
 16 29  2  0  0  0  0
 17 25  1  0  0  0  0
 18 28  1  0  0  0  0
 19 28  1  0  0  0  0
 20 27  1  0  0  0  0
 21 26  1  0  0  0  0
 22 25  1  0  0  0  0
 23 24  2  0  0  0  0
 24 26  1  0  0  0  0
  1 30  1  0  0  0  0
  2 31  1  0  0  0  0
  3 32  1  0  0  0  0
  4 33  1  0  0  0  0
  5 34  1  0  0  0  0
  6 35  1  0  0  0  0
  7 36  1  0  0  0  0
  8 37  1  0  0  0  0
  9 38  1  0  0  0  0
 10 39  1  0  0  0  0
 17 40  1  0  0  0  0
 17 41  1  0  0  0  0
 17 42  1  0  0  0  0
 18 43  1  0  0  0  0
 18 44  1  0  0  0  0
 18 45  1  0  0  0  0
 19 46  1  0  0  0  0
 19 47  1  0  0  0  0
 19 48  1  0  0  0  0
 20 49  1  0  0  0  0
 20 50  1  0  0  0  0
 21 51  1  0  0  0  0
 21 52  1  0  0  0  0
M  END
> <clash_score>
0

> <docking_score>
-8.41051197052002

> <overlap_score>
0.9499813914299011

$$$$
BENZO_338_1
  -OEChem-08222022473D

 52 55  0     0  0  0  0  0  0999 V2000
    3.8860    2.1050   19.5250 C   0  0  0  0  0  0  0  0  0  0  0  0
    4.2460    1.7520   20.8250 C   0  0  0  0  0  0  0  0  0  0  0  0
   13.7501   -1.1157   24.6176 C   0  0  0  0  0  0  0  0  0  0  0  0
   12.5991   -0.3339   24.5202 C   0  0  0  0  0  0  0  0  0  0  0  0
    4.6610    1.7170   18.4380 C   0  0  0  0  0  0  0  0  0  0  0  0
    5.3890    1.0010   21.0690 C   0  0  0  0  0  0  0  0  0  0  0  0
    9.5890   -2.4950   23.2210 C   0  0  0  0  0  0  0  0  0  0  0  0
    8.2550   -1.0010   24.5520 C   0  0  0  0  0  0  0  0  0  0  0  0
    9.1890   -3.5540   24.0140 C   0  0  0  0  0  0  0  0  0  0  0  0
    7.8700   -2.0610   25.3550 C   0  0  0  0  0  0  0  0  0  0  0  0
   14.2636   -1.7454   23.4838 C   0  0  0  0  0  0  0  0  0  0  0  0
   12.4750   -0.8115   22.1551 C   0  0  0  0  0  0  0  0  0  0  0  0
   11.9616   -0.1817   23.2889 C   0  0  0  0  0  0  0  0  0  0  0  0
    5.7970    0.9500   18.6730 C   0  0  0  0  0  0  0  0  0  0  0  0
    6.1460    0.6070   19.9750 C   0  0  0  0  0  0  0  0  0  0  0  0
    9.1280   -1.2090   23.4870 C   0  0  0  0  0  0  0  0  0  0  0  0
    8.3450   -3.3440   25.0980 C   0  0  0  0  0  0  0  0  0  0  0  0
   13.6261   -1.5933   22.2526 C   0  0  0  0  0  0  0  0  0  0  0  0
    9.0430    0.2380   21.4940 C   0  0  0  0  0  0  0  0  0  0  0  0
    7.2639   -5.5574   25.3806 C   0  0  0  0  0  0  0  0  0  0  0  0
    8.3061   -4.4046   27.3385 C   0  0  0  0  0  0  0  0  0  0  0  0
   10.7220    0.6590   23.1850 C   0  0  0  0  0  0  0  0  0  0  0  0
    8.0950   -0.7700   20.8440 C   0  0  0  0  0  0  0  0  0  0  0  0
    6.7100    0.3850   17.8100 N   0  0  0  0  0  0  0  0  0  0  0  0
    7.5840   -0.2700   18.5160 N   0  0  0  0  0  0  0  0  0  0  0  0
    7.2710   -0.1460   19.8310 N   0  0  0  0  0  0  0  0  0  0  0  0
    9.5820   -0.1080   22.7000 N   0  0  0  0  0  0  0  0  0  0  0  0
    7.9731   -4.4180   25.9279 N   0  0  0  0  0  0  0  0  0  0  0  0
    9.2950    1.3000   20.9480 O   0  0  0  0  0  0  0  0  0  0  0  0
   14.2594   -2.3714   20.8543 Cl  0  0  0  0  0  0  0  0  0  0  0  0
    2.9847    2.6930   19.3611 H   0  0  0  0  0  0  0  0  0  0  0  0
    3.6232    2.0694   21.6565 H   0  0  0  0  0  0  0  0  0  0  0  0
   14.2462   -1.2340   25.5766 H   0  0  0  0  0  0  0  0  0  0  0  0
   12.2060    0.1530   25.4088 H   0  0  0  0  0  0  0  0  0  0  0  0
    4.3785    2.0112   17.4257 H   0  0  0  0  0  0  0  0  0  0  0  0
    5.6780    0.7321   22.0906 H   0  0  0  0  0  0  0  0  0  0  0  0
   10.2682   -2.6746   22.3864 H   0  0  0  0  0  0  0  0  0  0  0  0
    7.8692   -0.0022   24.7600 H   0  0  0  0  0  0  0  0  0  0  0  0
    9.5433   -4.5619   23.7809 H   0  0  0  0  0  0  0  0  0  0  0  0
    7.1923   -1.8829   26.1908 H   0  0  0  0  0  0  0  0  0  0  0  0
   15.1613   -2.3520   23.5748 H   0  0  0  0  0  0  0  0  0  0  0  0
   11.9745   -0.6893   21.1973 H   0  0  0  0  0  0  0  0  0  0  0  0
    7.0640   -6.2847   26.1813 H   0  0  0  0  0  0  0  0  0  0  0  0
    6.3116   -5.2214   24.9445 H   0  0  0  0  0  0  0  0  0  0  0  0
    7.8778   -6.0309   24.6003 H   0  0  0  0  0  0  0  0  0  0  0  0
    7.9324   -5.3241   27.8128 H   0  0  0  0  0  0  0  0  0  0  0  0
    9.3984   -4.3491   27.4567 H   0  0  0  0  0  0  0  0  0  0  0  0
    7.8406   -3.5302   27.8168 H   0  0  0  0  0  0  0  0  0  0  0  0
   10.4561    1.0772   24.1620 H   0  0  0  0  0  0  0  0  0  0  0  0
   10.8743    1.5008   22.5014 H   0  0  0  0  0  0  0  0  0  0  0  0
    8.6619   -1.5627   20.3589 H   0  0  0  0  0  0  0  0  0  0  0  0
    7.4230   -1.1880   21.5916 H   0  0  0  0  0  0  0  0  0  0  0  0
  1  2  1  0  0  0  0
  1  5  2  0  0  0  0
  2  6  2  0  0  0  0
  3  4  2  0  0  0  0
  3 11  1  0  0  0  0
  4 13  1  0  0  0  0
  5 14  1  0  0  0  0
  6 15  1  0  0  0  0
  7  9  2  0  0  0  0
  7 16  1  0  0  0  0
  8 10  1  0  0  0  0
  8 16  2  0  0  0  0
  9 17  1  0  0  0  0
 10 17  2  0  0  0  0
 11 18  2  0  0  0  0
 12 13  2  0  0  0  0
 12 18  1  0  0  0  0
 13 22  1  0  0  0  0
 14 15  2  0  0  0  0
 14 24  1  0  0  0  0
 15 26  1  0  0  0  0
 16 27  1  0  0  0  0
 17 28  1  0  0  0  0
 18 30  1  0  0  0  0
 19 23  1  0  0  0  0
 19 27  1  0  0  0  0
 19 29  2  0  0  0  0
 20 28  1  0  0  0  0
 21 28  1  0  0  0  0
 22 27  1  0  0  0  0
 23 26  1  0  0  0  0
 24 25  2  0  0  0  0
 25 26  1  0  0  0  0
  1 31  1  0  0  0  0
  2 32  1  0  0  0  0
  3 33  1  0  0  0  0
  4 34  1  0  0  0  0
  5 35  1  0  0  0  0
  6 36  1  0  0  0  0
  7 37  1  0  0  0  0
  8 38  1  0  0  0  0
  9 39  1  0  0  0  0
 10 40  1  0  0  0  0
 11 41  1  0  0  0  0
 12 42  1  0  0  0  0
 20 43  1  0  0  0  0
 20 44  1  0  0  0  0
 20 45  1  0  0  0  0
 21 46  1  0  0  0  0
 21 47  1  0  0  0  0
 21 48  1  0  0  0  0
 22 49  1  0  0  0  0
 22 50  1  0  0  0  0
 23 51  1  0  0  0  0
 23 52  1  0  0  0  0
M  END
> <clash_score>
0

> <docking_score>
-9.174483299255371

> <overlap_score>
0.9545654654502869

$$$$
BENZO_335_2
  -OEChem-08222022473D

 57 61  0     1  0  0  0  0  0999 V2000
    9.5890   -2.4950   23.2210 C   0  0  0  0  0  0  0  0  0  0  0  0
    8.2550   -1.0010   24.5520 C   0  0  0  0  0  0  0  0  0  0  0  0
    9.1890   -3.5540   24.0140 C   0  0  0  0  0  0  0  0  0  0  0  0
    7.8700   -2.0610   25.3550 C   0  0  0  0  0  0  0  0  0  0  0  0
   12.1478   -0.7466   24.8788 C   0  0  0  0  0  0  0  0  0  0  0  0
   12.9365   -0.6363   22.8292 C   0  0  0  0  0  0  0  0  0  0  0  0
    9.1280   -1.2090   23.4870 C   0  0  0  0  0  0  0  0  0  0  0  0
   11.8895   -0.2037   23.6058 C   0  0  0  0  0  0  0  0  0  0  0  0
    8.3450   -3.3440   25.0980 C   0  0  0  0  0  0  0  0  0  0  0  0
    5.7970    0.9500   18.6730 C   0  0  0  0  0  0  0  0  0  0  0  0
    7.2710   -0.1460   19.8310 C   0  0  0  0  0  0  0  0  0  0  0  0
    4.6610    1.7170   18.4380 C   0  0  0  0  0  0  0  0  0  0  0  0
    3.8860    2.1050   19.5250 C   0  0  0  0  0  0  0  0  0  0  0  0
    4.2460    1.7520   20.8250 C   0  0  0  0  0  0  0  0  0  0  0  0
    5.3890    1.0010   21.0690 C   0  0  0  0  0  0  0  0  0  0  0  0
    9.0430    0.2380   21.4940 C   0  0  0  0  0  0  0  0  0  0  0  0
    8.9526   -5.2008   26.6600 C   0  0  0  0  0  0  0  0  0  0  0  0
    6.6115   -4.5057   26.4392 C   0  0  0  0  0  0  0  0  0  0  0  0
    8.9053   -4.7827   28.1257 C   0  0  0  0  0  0  0  0  0  0  0  0
    6.6391   -4.1219   27.9194 C   0  0  0  0  0  0  0  0  0  0  0  0
   14.9529   -2.0519   23.2864 C   0  0  0  0  0  0  0  0  0  0  0  0
   10.7220    0.6590   23.1850 C   0  0  0  0  0  0  0  0  0  0  0  0
    9.5820   -0.1080   22.7000 C   0  0  2  0  0  0  0  0  0  0  0  0
   13.2706   -1.4691   24.9131 N   0  0  0  0  0  0  0  0  0  0  0  0
    6.7100    0.3850   17.8100 N   0  0  0  0  0  0  0  0  0  0  0  0
    7.5840   -0.2700   18.5160 N   0  0  0  0  0  0  0  0  0  0  0  0
   13.7272   -1.3833   23.6520 N   0  0  0  0  0  0  0  0  0  0  0  0
    6.1460    0.6070   19.9750 N   0  0  0  0  0  0  0  0  0  0  0  0
    7.9774   -4.4013   25.9152 N   0  0  0  0  0  0  0  0  0  0  0  0
    8.0950   -0.7700   20.8440 N   0  0  0  0  0  0  0  0  0  0  0  0
    9.2950    1.3000   20.9480 O   0  0  0  0  0  0  0  0  0  0  0  0
    7.5748   -4.9364   28.6347 O   0  0  0  0  0  0  0  0  0  0  0  0
   10.2684   -2.6719   22.3867 H   0  0  0  0  0  0  0  0  0  0  0  0
    7.8717   -0.0016   24.7596 H   0  0  0  0  0  0  0  0  0  0  0  0
    9.5443   -4.5616   23.7817 H   0  0  0  0  0  0  0  0  0  0  0  0
    7.1921   -1.8821   26.1908 H   0  0  0  0  0  0  0  0  0  0  0  0
   11.5656   -0.6480   25.7841 H   0  0  0  0  0  0  0  0  0  0  0  0
   13.1794   -0.4813   21.7867 H   0  0  0  0  0  0  0  0  0  0  0  0
    4.3710    2.0145   17.4451 H   0  0  0  0  0  0  0  0  0  0  0  0
    2.9929    2.6891   19.3400 H   0  0  0  0  0  0  0  0  0  0  0  0
    3.6320    2.0596   21.6814 H   0  0  0  0  0  0  0  0  0  0  0  0
    5.6863    0.7288   22.0575 H   0  0  0  0  0  0  0  0  0  0  0  0
    9.9614   -5.0503   26.2701 H   0  0  0  0  0  0  0  0  0  0  0  0
    8.6932   -6.2593   26.5731 H   0  0  0  0  0  0  0  0  0  0  0  0
    6.2625   -5.5339   26.3355 H   0  0  0  0  0  0  0  0  0  0  0  0
    5.9348   -3.8414   25.9036 H   0  0  0  0  0  0  0  0  0  0  0  0
    9.5615   -5.4255   28.7162 H   0  0  0  0  0  0  0  0  0  0  0  0
    9.2365   -3.7494   28.2620 H   0  0  0  0  0  0  0  0  0  0  0  0
    6.8895   -3.0633   28.0551 H   0  0  0  0  0  0  0  0  0  0  0  0
    5.6514   -4.2861   28.3610 H   0  0  0  0  0  0  0  0  0  0  0  0
   15.7795   -1.3567   23.4548 H   0  0  0  0  0  0  0  0  0  0  0  0
   15.0760   -2.9481   23.9008 H   0  0  0  0  0  0  0  0  0  0  0  0
   14.9053   -2.3433   22.2334 H   0  0  0  0  0  0  0  0  0  0  0  0
   10.4315    1.3089   24.0208 H   0  0  0  0  0  0  0  0  0  0  0  0
   11.0719    1.3385   22.3955 H   0  0  0  0  0  0  0  0  0  0  0  0
   10.5438   -0.9939   22.0202 H   0  0  0  0  0  0  0  0  0  0  0  0
    8.0917   -1.6083   21.0911 H   0  0  0  0  0  0  0  0  0  0  0  0
  1  3  2  0  0  0  0
  1  7  1  0  0  0  0
  2  4  1  0  0  0  0
  2  7  2  0  0  0  0
  3  9  1  0  0  0  0
  4  9  2  0  0  0  0
  5  8  1  0  0  0  0
  5 24  2  0  0  0  0
  6  8  2  0  0  0  0
  6 27  1  0  0  0  0
  7 23  1  0  0  0  0
  8 22  1  0  0  0  0
  9 29  1  0  0  0  0
 10 12  1  0  0  0  0
 10 25  2  0  0  0  0
 10 28  1  0  0  0  0
 11 26  2  0  0  0  0
 11 28  1  0  0  0  0
 11 30  1  0  0  0  0
 12 13  2  0  0  0  0
 13 14  1  0  0  0  0
 14 15  2  0  0  0  0
 15 28  1  0  0  0  0
 16 23  1  0  0  0  0
 16 30  1  0  0  0  0
 16 31  2  0  0  0  0
 17 19  1  0  0  0  0
 17 29  1  0  0  0  0
 18 20  1  0  0  0  0
 18 29  1  0  0  0  0
 19 32  1  0  0  0  0
 20 32  1  0  0  0  0
 21 27  1  0  0  0  0
 22 23  1  6  0  0  0
 24 27  1  0  0  0  0
 25 26  1  0  0  0  0
  1 33  1  0  0  0  0
  2 34  1  0  0  0  0
  3 35  1  0  0  0  0
  4 36  1  0  0  0  0
  5 37  1  0  0  0  0
  6 38  1  0  0  0  0
 12 39  1  0  0  0  0
 13 40  1  0  0  0  0
 14 41  1  0  0  0  0
 15 42  1  0  0  0  0
 17 43  1  0  0  0  0
 17 44  1  0  0  0  0
 18 45  1  0  0  0  0
 18 46  1  0  0  0  0
 19 47  1  0  0  0  0
 19 48  1  0  0  0  0
 20 49  1  0  0  0  0
 20 50  1  0  0  0  0
 21 51  1  0  0  0  0
 21 52  1  0  0  0  0
 21 53  1  0  0  0  0
 22 54  1  0  0  0  0
 22 55  1  0  0  0  0
 23 56  1  0  0  0  0
 30 57  1  0  0  0  0
M  END
> <clash_score>
0

> <docking_score>
-7.736537933349609

> <overlap_score>
0.9773151278495789

$$$$
BENZO_335_1
  -OEChem-08222022473D

 57 61  0     1  0  0  0  0  0999 V2000
    9.5890   -2.4950   23.2210 C   0  0  0  0  0  0  0  0  0  0  0  0
    8.2550   -1.0010   24.5520 C   0  0  0  0  0  0  0  0  0  0  0  0
    9.1890   -3.5540   24.0140 C   0  0  0  0  0  0  0  0  0  0  0  0
    7.8700   -2.0610   25.3550 C   0  0  0  0  0  0  0  0  0  0  0  0
   13.2924    0.1786   23.3840 C   0  0  0  0  0  0  0  0  0  0  0  0
   12.3227   -0.5596   21.5537 C   0  0  0  0  0  0  0  0  0  0  0  0
    9.1280   -1.2090   23.4870 C   0  0  0  0  0  0  0  0  0  0  0  0
   12.0528    0.1138   22.7200 C   0  0  0  0  0  0  0  0  0  0  0  0
    8.3450   -3.3440   25.0980 C   0  0  0  0  0  0  0  0  0  0  0  0
    5.7970    0.9500   18.6730 C   0  0  0  0  0  0  0  0  0  0  0  0
    7.2710   -0.1460   19.8310 C   0  0  0  0  0  0  0  0  0  0  0  0
    4.6610    1.7170   18.4380 C   0  0  0  0  0  0  0  0  0  0  0  0
    3.8860    2.1050   19.5250 C   0  0  0  0  0  0  0  0  0  0  0  0
    4.2460    1.7520   20.8250 C   0  0  0  0  0  0  0  0  0  0  0  0
    5.3890    1.0010   21.0690 C   0  0  0  0  0  0  0  0  0  0  0  0
    9.0430    0.2380   21.4940 C   0  0  0  0  0  0  0  0  0  0  0  0
    8.9526   -5.2008   26.6600 C   0  0  0  0  0  0  0  0  0  0  0  0
    6.6115   -4.5057   26.4392 C   0  0  0  0  0  0  0  0  0  0  0  0
    8.9053   -4.7827   28.1257 C   0  0  0  0  0  0  0  0  0  0  0  0
    6.6391   -4.1219   27.9194 C   0  0  0  0  0  0  0  0  0  0  0  0
   14.4073   -1.5490   20.5768 C   0  0  0  0  0  0  0  0  0  0  0  0
   10.7220    0.6590   23.1850 C   0  0  0  0  0  0  0  0  0  0  0  0
    9.5820   -0.1080   22.7000 C   0  0  1  0  0  0  0  0  0  0  0  0
   14.2767   -0.4070   22.6967 N   0  0  0  0  0  0  0  0  0  0  0  0
    6.7100    0.3850   17.8100 N   0  0  0  0  0  0  0  0  0  0  0  0
    7.5840   -0.2700   18.5160 N   0  0  0  0  0  0  0  0  0  0  0  0
   13.6557   -0.8463   21.5888 N   0  0  0  0  0  0  0  0  0  0  0  0
    6.1460    0.6070   19.9750 N   0  0  0  0  0  0  0  0  0  0  0  0
    7.9774   -4.4013   25.9152 N   0  0  0  0  0  0  0  0  0  0  0  0
    8.0950   -0.7700   20.8440 N   0  0  0  0  0  0  0  0  0  0  0  0
    9.2950    1.3000   20.9480 O   0  0  0  0  0  0  0  0  0  0  0  0
    7.5748   -4.9364   28.6347 O   0  0  0  0  0  0  0  0  0  0  0  0
   10.2684   -2.6719   22.3867 H   0  0  0  0  0  0  0  0  0  0  0  0
    7.8717   -0.0016   24.7596 H   0  0  0  0  0  0  0  0  0  0  0  0
    9.5443   -4.5616   23.7817 H   0  0  0  0  0  0  0  0  0  0  0  0
    7.1921   -1.8821   26.1908 H   0  0  0  0  0  0  0  0  0  0  0  0
   13.5219    0.6268   24.3404 H   0  0  0  0  0  0  0  0  0  0  0  0
   11.6952   -0.8530   20.7231 H   0  0  0  0  0  0  0  0  0  0  0  0
    4.3710    2.0145   17.4451 H   0  0  0  0  0  0  0  0  0  0  0  0
    2.9929    2.6891   19.3400 H   0  0  0  0  0  0  0  0  0  0  0  0
    3.6320    2.0596   21.6814 H   0  0  0  0  0  0  0  0  0  0  0  0
    5.6863    0.7288   22.0575 H   0  0  0  0  0  0  0  0  0  0  0  0
    9.9614   -5.0503   26.2701 H   0  0  0  0  0  0  0  0  0  0  0  0
    8.6932   -6.2593   26.5731 H   0  0  0  0  0  0  0  0  0  0  0  0
    6.2625   -5.5339   26.3355 H   0  0  0  0  0  0  0  0  0  0  0  0
    5.9348   -3.8414   25.9036 H   0  0  0  0  0  0  0  0  0  0  0  0
    9.5615   -5.4255   28.7162 H   0  0  0  0  0  0  0  0  0  0  0  0
    9.2365   -3.7494   28.2620 H   0  0  0  0  0  0  0  0  0  0  0  0
    6.8895   -3.0633   28.0551 H   0  0  0  0  0  0  0  0  0  0  0  0
    5.6514   -4.2861   28.3610 H   0  0  0  0  0  0  0  0  0  0  0  0
   14.7895   -0.8108   19.8669 H   0  0  0  0  0  0  0  0  0  0  0  0
   15.2329   -2.0907   21.0468 H   0  0  0  0  0  0  0  0  0  0  0  0
   13.7520   -2.2637   20.0711 H   0  0  0  0  0  0  0  0  0  0  0  0
   10.7177    0.7189   24.2812 H   0  0  0  0  0  0  0  0  0  0  0  0
   10.6426    1.6980   22.8361 H   0  0  0  0  0  0  0  0  0  0  0  0
    8.7036    0.8022   23.4008 H   0  0  0  0  0  0  0  0  0  0  0  0
    8.0917   -1.6083   21.0911 H   0  0  0  0  0  0  0  0  0  0  0  0
  1  3  2  0  0  0  0
  1  7  1  0  0  0  0
  2  4  1  0  0  0  0
  2  7  2  0  0  0  0
  3  9  1  0  0  0  0
  4  9  2  0  0  0  0
  5  8  1  0  0  0  0
  5 24  2  0  0  0  0
  6  8  2  0  0  0  0
  6 27  1  0  0  0  0
  7 23  1  0  0  0  0
  8 22  1  0  0  0  0
  9 29  1  0  0  0  0
 10 12  1  0  0  0  0
 10 25  2  0  0  0  0
 10 28  1  0  0  0  0
 11 26  2  0  0  0  0
 11 28  1  0  0  0  0
 11 30  1  0  0  0  0
 12 13  2  0  0  0  0
 13 14  1  0  0  0  0
 14 15  2  0  0  0  0
 15 28  1  0  0  0  0
 16 23  1  0  0  0  0
 16 30  1  0  0  0  0
 16 31  2  0  0  0  0
 17 19  1  0  0  0  0
 17 29  1  0  0  0  0
 18 20  1  0  0  0  0
 18 29  1  0  0  0  0
 19 32  1  0  0  0  0
 20 32  1  0  0  0  0
 21 27  1  0  0  0  0
 22 23  1  1  0  0  0
 24 27  1  0  0  0  0
 25 26  1  0  0  0  0
  1 33  1  0  0  0  0
  2 34  1  0  0  0  0
  3 35  1  0  0  0  0
  4 36  1  0  0  0  0
  5 37  1  0  0  0  0
  6 38  1  0  0  0  0
 12 39  1  0  0  0  0
 13 40  1  0  0  0  0
 14 41  1  0  0  0  0
 15 42  1  0  0  0  0
 17 43  1  0  0  0  0
 17 44  1  0  0  0  0
 18 45  1  0  0  0  0
 18 46  1  0  0  0  0
 19 47  1  0  0  0  0
 19 48  1  0  0  0  0
 20 49  1  0  0  0  0
 20 50  1  0  0  0  0
 21 51  1  0  0  0  0
 21 52  1  0  0  0  0
 21 53  1  0  0  0  0
 22 54  1  0  0  0  0
 22 55  1  0  0  0  0
 23 56  1  0  0  0  0
 30 57  1  0  0  0  0
M  END
> <clash_score>
0

> <docking_score>
-9.206836700439453

> <overlap_score>
0.9540113806724548

$$$$
BENZO_334_1
  -OEChem-08222022473D

 57 61  0     1  0  0  0  0  0999 V2000
   13.0607   -1.4512   25.3114 C   0  0  0  0  0  0  0  0  0  0  0  0
   11.9841   -0.6540   24.9226 C   0  0  0  0  0  0  0  0  0  0  0  0
    9.5890   -2.4950   23.2210 C   0  0  0  0  0  0  0  0  0  0  0  0
    8.2550   -1.0010   24.5520 C   0  0  0  0  0  0  0  0  0  0  0  0
    9.1890   -3.5540   24.0140 C   0  0  0  0  0  0  0  0  0  0  0  0
    7.8700   -2.0610   25.3550 C   0  0  0  0  0  0  0  0  0  0  0  0
   14.0427   -1.7979   24.3834 C   0  0  0  0  0  0  0  0  0  0  0  0
   12.8715   -0.5505   22.6778 C   0  0  0  0  0  0  0  0  0  0  0  0
    9.1280   -1.2090   23.4870 C   0  0  0  0  0  0  0  0  0  0  0  0
   11.8895   -0.2037   23.6058 C   0  0  0  0  0  0  0  0  0  0  0  0
    8.3450   -3.3440   25.0980 C   0  0  0  0  0  0  0  0  0  0  0  0
   13.9481   -1.3476   23.0666 C   0  0  0  0  0  0  0  0  0  0  0  0
    5.7970    0.9500   18.6730 C   0  0  0  0  0  0  0  0  0  0  0  0
    7.2710   -0.1460   19.8310 C   0  0  0  0  0  0  0  0  0  0  0  0
    4.6610    1.7170   18.4380 C   0  0  0  0  0  0  0  0  0  0  0  0
    3.8860    2.1050   19.5250 C   0  0  0  0  0  0  0  0  0  0  0  0
    4.2460    1.7520   20.8250 C   0  0  0  0  0  0  0  0  0  0  0  0
    5.3890    1.0010   21.0690 C   0  0  0  0  0  0  0  0  0  0  0  0
    9.0430    0.2380   21.4940 C   0  0  0  0  0  0  0  0  0  0  0  0
    8.9526   -5.2008   26.6600 C   0  0  0  0  0  0  0  0  0  0  0  0
    6.6115   -4.5057   26.4392 C   0  0  0  0  0  0  0  0  0  0  0  0
    8.9053   -4.7827   28.1257 C   0  0  0  0  0  0  0  0  0  0  0  0
    6.6391   -4.1219   27.9194 C   0  0  0  0  0  0  0  0  0  0  0  0
   10.7220    0.6590   23.1850 C   0  0  0  0  0  0  0  0  0  0  0  0
    9.5820   -0.1080   22.7000 C   0  0  1  0  0  0  0  0  0  0  0  0
    6.7100    0.3850   17.8100 N   0  0  0  0  0  0  0  0  0  0  0  0
    7.5840   -0.2700   18.5160 N   0  0  0  0  0  0  0  0  0  0  0  0
    6.1460    0.6070   19.9750 N   0  0  0  0  0  0  0  0  0  0  0  0
    7.9774   -4.4013   25.9152 N   0  0  0  0  0  0  0  0  0  0  0  0
    8.0950   -0.7700   20.8440 N   0  0  0  0  0  0  0  0  0  0  0  0
    9.2950    1.3000   20.9480 O   0  0  0  0  0  0  0  0  0  0  0  0
    7.5748   -4.9364   28.6347 O   0  0  0  0  0  0  0  0  0  0  0  0
   15.1593   -1.7768   21.9219 Cl  0  0  0  0  0  0  0  0  0  0  0  0
   13.1340   -1.8017   26.3368 H   0  0  0  0  0  0  0  0  0  0  0  0
   11.2236   -0.3888   25.6524 H   0  0  0  0  0  0  0  0  0  0  0  0
   10.2684   -2.6719   22.3867 H   0  0  0  0  0  0  0  0  0  0  0  0
    7.8717   -0.0016   24.7596 H   0  0  0  0  0  0  0  0  0  0  0  0
    9.5443   -4.5616   23.7817 H   0  0  0  0  0  0  0  0  0  0  0  0
    7.1921   -1.8821   26.1908 H   0  0  0  0  0  0  0  0  0  0  0  0
   14.8761   -2.4201   24.7005 H   0  0  0  0  0  0  0  0  0  0  0  0
   12.7934   -0.1965   21.6525 H   0  0  0  0  0  0  0  0  0  0  0  0
    4.3710    2.0145   17.4451 H   0  0  0  0  0  0  0  0  0  0  0  0
    2.9929    2.6891   19.3400 H   0  0  0  0  0  0  0  0  0  0  0  0
    3.6320    2.0596   21.6814 H   0  0  0  0  0  0  0  0  0  0  0  0
    5.6863    0.7288   22.0575 H   0  0  0  0  0  0  0  0  0  0  0  0
    9.9614   -5.0503   26.2701 H   0  0  0  0  0  0  0  0  0  0  0  0
    8.6932   -6.2593   26.5731 H   0  0  0  0  0  0  0  0  0  0  0  0
    6.2625   -5.5339   26.3355 H   0  0  0  0  0  0  0  0  0  0  0  0
    5.9348   -3.8414   25.9036 H   0  0  0  0  0  0  0  0  0  0  0  0
    9.5615   -5.4255   28.7162 H   0  0  0  0  0  0  0  0  0  0  0  0
    9.2365   -3.7494   28.2620 H   0  0  0  0  0  0  0  0  0  0  0  0
    6.8895   -3.0633   28.0551 H   0  0  0  0  0  0  0  0  0  0  0  0
    5.6514   -4.2861   28.3610 H   0  0  0  0  0  0  0  0  0  0  0  0
   10.4315    1.3089   24.0208 H   0  0  0  0  0  0  0  0  0  0  0  0
   11.0719    1.3385   22.3955 H   0  0  0  0  0  0  0  0  0  0  0  0
   10.5438   -0.9939   22.0202 H   0  0  0  0  0  0  0  0  0  0  0  0
    8.0917   -1.6083   21.0911 H   0  0  0  0  0  0  0  0  0  0  0  0
  1  2  2  0  0  0  0
  1  7  1  0  0  0  0
  2 10  1  0  0  0  0
  3  5  2  0  0  0  0
  3  9  1  0  0  0  0
  4  6  1  0  0  0  0
  4  9  2  0  0  0  0
  5 11  1  0  0  0  0
  6 11  2  0  0  0  0
  7 12  2  0  0  0  0
  8 10  2  0  0  0  0
  8 12  1  0  0  0  0
  9 25  1  0  0  0  0
 10 24  1  0  0  0  0
 11 29  1  0  0  0  0
 12 33  1  0  0  0  0
 13 15  1  0  0  0  0
 13 26  2  0  0  0  0
 13 28  1  0  0  0  0
 14 27  2  0  0  0  0
 14 28  1  0  0  0  0
 14 30  1  0  0  0  0
 15 16  2  0  0  0  0
 16 17  1  0  0  0  0
 17 18  2  0  0  0  0
 18 28  1  0  0  0  0
 19 25  1  1  0  0  0
 19 30  1  0  0  0  0
 19 31  2  0  0  0  0
 20 22  1  0  0  0  0
 20 29  1  0  0  0  0
 21 23  1  0  0  0  0
 21 29  1  0  0  0  0
 22 32  1  0  0  0  0
 23 32  1  0  0  0  0
 24 25  1  0  0  0  0
 26 27  1  0  0  0  0
  1 34  1  0  0  0  0
  2 35  1  0  0  0  0
  3 36  1  0  0  0  0
  4 37  1  0  0  0  0
  5 38  1  0  0  0  0
  6 39  1  0  0  0  0
  7 40  1  0  0  0  0
  8 41  1  0  0  0  0
 15 42  1  0  0  0  0
 16 43  1  0  0  0  0
 17 44  1  0  0  0  0
 18 45  1  0  0  0  0
 20 46  1  0  0  0  0
 20 47  1  0  0  0  0
 21 48  1  0  0  0  0
 21 49  1  0  0  0  0
 22 50  1  0  0  0  0
 22 51  1  0  0  0  0
 23 52  1  0  0  0  0
 23 53  1  0  0  0  0
 24 54  1  0  0  0  0
 24 55  1  0  0  0  0
 25 56  1  0  0  0  0
 30 57  1  0  0  0  0
M  END
> <clash_score>
0

> <docking_score>
-7.806585311889648

> <overlap_score>
0.9814106822013855

$$$$
BENZO_334_2
  -OEChem-08222022473D

 57 61  0     1  0  0  0  0  0999 V2000
   13.3731   -1.0509   21.0656 C   0  0  0  0  0  0  0  0  0  0  0  0
   12.1451   -0.5485   21.4959 C   0  0  0  0  0  0  0  0  0  0  0  0
    9.5890   -2.4950   23.2210 C   0  0  0  0  0  0  0  0  0  0  0  0
    8.2550   -1.0010   24.5520 C   0  0  0  0  0  0  0  0  0  0  0  0
    9.1890   -3.5540   24.0140 C   0  0  0  0  0  0  0  0  0  0  0  0
    7.8700   -2.0610   25.3550 C   0  0  0  0  0  0  0  0  0  0  0  0
   14.5088   -0.8912   21.8596 C   0  0  0  0  0  0  0  0  0  0  0  0
   13.1885    0.2735   23.5140 C   0  0  0  0  0  0  0  0  0  0  0  0
    9.1280   -1.2090   23.4870 C   0  0  0  0  0  0  0  0  0  0  0  0
   12.0528    0.1138   22.7200 C   0  0  0  0  0  0  0  0  0  0  0  0
    8.3450   -3.3440   25.0980 C   0  0  0  0  0  0  0  0  0  0  0  0
   14.4165   -0.2290   23.0837 C   0  0  0  0  0  0  0  0  0  0  0  0
    5.7970    0.9500   18.6730 C   0  0  0  0  0  0  0  0  0  0  0  0
    7.2710   -0.1460   19.8310 C   0  0  0  0  0  0  0  0  0  0  0  0
    4.6610    1.7170   18.4380 C   0  0  0  0  0  0  0  0  0  0  0  0
    3.8860    2.1050   19.5250 C   0  0  0  0  0  0  0  0  0  0  0  0
    4.2460    1.7520   20.8250 C   0  0  0  0  0  0  0  0  0  0  0  0
    5.3890    1.0010   21.0690 C   0  0  0  0  0  0  0  0  0  0  0  0
    9.0430    0.2380   21.4940 C   0  0  0  0  0  0  0  0  0  0  0  0
    8.9526   -5.2008   26.6600 C   0  0  0  0  0  0  0  0  0  0  0  0
    6.6115   -4.5057   26.4392 C   0  0  0  0  0  0  0  0  0  0  0  0
    8.9053   -4.7827   28.1257 C   0  0  0  0  0  0  0  0  0  0  0  0
    6.6391   -4.1219   27.9194 C   0  0  0  0  0  0  0  0  0  0  0  0
   10.7220    0.6590   23.1850 C   0  0  0  0  0  0  0  0  0  0  0  0
    9.5820   -0.1080   22.7000 C   0  0  2  0  0  0  0  0  0  0  0  0
    6.7100    0.3850   17.8100 N   0  0  0  0  0  0  0  0  0  0  0  0
    7.5840   -0.2700   18.5160 N   0  0  0  0  0  0  0  0  0  0  0  0
    6.1460    0.6070   19.9750 N   0  0  0  0  0  0  0  0  0  0  0  0
    7.9774   -4.4013   25.9152 N   0  0  0  0  0  0  0  0  0  0  0  0
    8.0950   -0.7700   20.8440 N   0  0  0  0  0  0  0  0  0  0  0  0
    9.2950    1.3000   20.9480 O   0  0  0  0  0  0  0  0  0  0  0  0
    7.5748   -4.9364   28.6347 O   0  0  0  0  0  0  0  0  0  0  0  0
   15.8183   -0.0312   24.0623 Cl  0  0  0  0  0  0  0  0  0  0  0  0
   13.4446   -1.5664   20.1122 H   0  0  0  0  0  0  0  0  0  0  0  0
   11.2654   -0.6774   20.8707 H   0  0  0  0  0  0  0  0  0  0  0  0
   10.2684   -2.6719   22.3867 H   0  0  0  0  0  0  0  0  0  0  0  0
    7.8717   -0.0016   24.7596 H   0  0  0  0  0  0  0  0  0  0  0  0
    9.5443   -4.5616   23.7817 H   0  0  0  0  0  0  0  0  0  0  0  0
    7.1921   -1.8821   26.1908 H   0  0  0  0  0  0  0  0  0  0  0  0
   15.4594   -1.2877   21.5114 H   0  0  0  0  0  0  0  0  0  0  0  0
   13.1112    0.7902   24.4679 H   0  0  0  0  0  0  0  0  0  0  0  0
    4.3710    2.0145   17.4451 H   0  0  0  0  0  0  0  0  0  0  0  0
    2.9929    2.6891   19.3400 H   0  0  0  0  0  0  0  0  0  0  0  0
    3.6320    2.0596   21.6814 H   0  0  0  0  0  0  0  0  0  0  0  0
    5.6863    0.7288   22.0575 H   0  0  0  0  0  0  0  0  0  0  0  0
    9.9614   -5.0503   26.2701 H   0  0  0  0  0  0  0  0  0  0  0  0
    8.6932   -6.2593   26.5731 H   0  0  0  0  0  0  0  0  0  0  0  0
    6.2625   -5.5339   26.3355 H   0  0  0  0  0  0  0  0  0  0  0  0
    5.9348   -3.8414   25.9036 H   0  0  0  0  0  0  0  0  0  0  0  0
    9.5615   -5.4255   28.7162 H   0  0  0  0  0  0  0  0  0  0  0  0
    9.2365   -3.7494   28.2620 H   0  0  0  0  0  0  0  0  0  0  0  0
    6.8895   -3.0633   28.0551 H   0  0  0  0  0  0  0  0  0  0  0  0
    5.6514   -4.2861   28.3610 H   0  0  0  0  0  0  0  0  0  0  0  0
   10.7177    0.7189   24.2812 H   0  0  0  0  0  0  0  0  0  0  0  0
   10.6426    1.6980   22.8361 H   0  0  0  0  0  0  0  0  0  0  0  0
    8.7036    0.8022   23.4008 H   0  0  0  0  0  0  0  0  0  0  0  0
    8.0917   -1.6083   21.0911 H   0  0  0  0  0  0  0  0  0  0  0  0
  1  2  2  0  0  0  0
  1  7  1  0  0  0  0
  2 10  1  0  0  0  0
  3  5  2  0  0  0  0
  3  9  1  0  0  0  0
  4  6  1  0  0  0  0
  4  9  2  0  0  0  0
  5 11  1  0  0  0  0
  6 11  2  0  0  0  0
  7 12  2  0  0  0  0
  8 10  2  0  0  0  0
  8 12  1  0  0  0  0
  9 25  1  0  0  0  0
 10 24  1  0  0  0  0
 11 29  1  0  0  0  0
 12 33  1  0  0  0  0
 13 15  1  0  0  0  0
 13 26  2  0  0  0  0
 13 28  1  0  0  0  0
 14 27  2  0  0  0  0
 14 28  1  0  0  0  0
 14 30  1  0  0  0  0
 15 16  2  0  0  0  0
 16 17  1  0  0  0  0
 17 18  2  0  0  0  0
 18 28  1  0  0  0  0
 19 25  1  6  0  0  0
 19 30  1  0  0  0  0
 19 31  2  0  0  0  0
 20 22  1  0  0  0  0
 20 29  1  0  0  0  0
 21 23  1  0  0  0  0
 21 29  1  0  0  0  0
 22 32  1  0  0  0  0
 23 32  1  0  0  0  0
 24 25  1  0  0  0  0
 26 27  1  0  0  0  0
  1 34  1  0  0  0  0
  2 35  1  0  0  0  0
  3 36  1  0  0  0  0
  4 37  1  0  0  0  0
  5 38  1  0  0  0  0
  6 39  1  0  0  0  0
  7 40  1  0  0  0  0
  8 41  1  0  0  0  0
 15 42  1  0  0  0  0
 16 43  1  0  0  0  0
 17 44  1  0  0  0  0
 18 45  1  0  0  0  0
 20 46  1  0  0  0  0
 20 47  1  0  0  0  0
 21 48  1  0  0  0  0
 21 49  1  0  0  0  0
 22 50  1  0  0  0  0
 22 51  1  0  0  0  0
 23 52  1  0  0  0  0
 23 53  1  0  0  0  0
 24 54  1  0  0  0  0
 24 55  1  0  0  0  0
 25 56  1  0  0  0  0
 30 57  1  0  0  0  0
M  END
> <clash_score>
1.470581667490539

> <docking_score>
-7.212427139282227

> <overlap_score>
0.9555860161781311

$$$$
BENZO_341_1
  -OEChem-08222022473D

 54 57  0     0  0  0  0  0  0999 V2000
   14.2642   -1.7450   23.4813 C   0  0  0  0  0  0  0  0  0  0  0  0
   14.0779   -0.6681   24.3480 C   0  0  0  0  0  0  0  0  0  0  0  0
   13.2991   -2.0403   22.5184 C   0  0  0  0  0  0  0  0  0  0  0  0
    3.8860    2.1050   19.5250 C   0  0  0  0  0  0  0  0  0  0  0  0
    4.2460    1.7520   20.8250 C   0  0  0  0  0  0  0  0  0  0  0  0
   12.9266    0.1135   24.2518 C   0  0  0  0  0  0  0  0  0  0  0  0
   12.1478   -1.2587   22.4222 C   0  0  0  0  0  0  0  0  0  0  0  0
    4.6610    1.7170   18.4380 C   0  0  0  0  0  0  0  0  0  0  0  0
    5.3890    1.0010   21.0690 C   0  0  0  0  0  0  0  0  0  0  0  0
    9.1890   -3.5540   24.0140 C   0  0  0  0  0  0  0  0  0  0  0  0
    7.8700   -2.0610   25.3550 C   0  0  0  0  0  0  0  0  0  0  0  0
    9.5890   -2.4950   23.2210 C   0  0  0  0  0  0  0  0  0  0  0  0
    8.2550   -1.0010   24.5520 C   0  0  0  0  0  0  0  0  0  0  0  0
   11.9616   -0.1817   23.2889 C   0  0  0  0  0  0  0  0  0  0  0  0
    5.7970    0.9500   18.6730 C   0  0  0  0  0  0  0  0  0  0  0  0
    6.1460    0.6070   19.9750 C   0  0  0  0  0  0  0  0  0  0  0  0
    8.3450   -3.3440   25.0980 C   0  0  0  0  0  0  0  0  0  0  0  0
    9.1280   -1.2090   23.4870 C   0  0  0  0  0  0  0  0  0  0  0  0
    7.1413   -4.3826   27.0478 C   0  0  0  0  0  0  0  0  0  0  0  0
    9.0430    0.2380   21.4940 C   0  0  0  0  0  0  0  0  0  0  0  0
    8.0785   -6.0699   28.6851 C   0  0  0  0  0  0  0  0  0  0  0  0
   10.7220    0.6590   23.1850 C   0  0  0  0  0  0  0  0  0  0  0  0
    7.0020   -5.7696   27.6575 C   0  0  0  0  0  0  0  0  0  0  0  0
    8.0950   -0.7700   20.8440 C   0  0  0  0  0  0  0  0  0  0  0  0
    6.7100    0.3850   17.8100 N   0  0  0  0  0  0  0  0  0  0  0  0
    7.5840   -0.2700   18.5160 N   0  0  0  0  0  0  0  0  0  0  0  0
    7.2710   -0.1460   19.8310 N   0  0  0  0  0  0  0  0  0  0  0  0
    7.9771   -4.4058   25.9196 N   0  0  0  0  0  0  0  0  0  0  0  0
    9.5820   -0.1080   22.7000 N   0  0  0  0  0  0  0  0  0  0  0  0
    6.5735   -3.4039   27.5215 O   0  0  0  0  0  0  0  0  0  0  0  0
    9.2950    1.3000   20.9480 O   0  0  0  0  0  0  0  0  0  0  0  0
   15.1613   -2.3527   23.5555 H   0  0  0  0  0  0  0  0  0  0  0  0
   14.8297   -0.4373   25.0971 H   0  0  0  0  0  0  0  0  0  0  0  0
   13.4443   -2.8780   21.8427 H   0  0  0  0  0  0  0  0  0  0  0  0
    2.9847    2.6930   19.3611 H   0  0  0  0  0  0  0  0  0  0  0  0
    3.6232    2.0694   21.6565 H   0  0  0  0  0  0  0  0  0  0  0  0
   12.7899    0.9506   24.9315 H   0  0  0  0  0  0  0  0  0  0  0  0
   11.4013   -1.4963   21.6690 H   0  0  0  0  0  0  0  0  0  0  0  0
    4.3785    2.0112   17.4257 H   0  0  0  0  0  0  0  0  0  0  0  0
    5.6780    0.7321   22.0906 H   0  0  0  0  0  0  0  0  0  0  0  0
    9.5436   -4.5614   23.7799 H   0  0  0  0  0  0  0  0  0  0  0  0
    7.1918   -1.8823   26.1906 H   0  0  0  0  0  0  0  0  0  0  0  0
   10.2676   -2.6754   22.3861 H   0  0  0  0  0  0  0  0  0  0  0  0
    7.8686   -0.0026   24.7598 H   0  0  0  0  0  0  0  0  0  0  0  0
    9.0767   -6.0023   28.2401 H   0  0  0  0  0  0  0  0  0  0  0  0
    7.9509   -7.0798   29.0867 H   0  0  0  0  0  0  0  0  0  0  0  0
    8.0342   -5.3619   29.5192 H   0  0  0  0  0  0  0  0  0  0  0  0
   10.4561    1.0772   24.1620 H   0  0  0  0  0  0  0  0  0  0  0  0
   10.8743    1.5008   22.5014 H   0  0  0  0  0  0  0  0  0  0  0  0
    6.0155   -5.8444   28.1293 H   0  0  0  0  0  0  0  0  0  0  0  0
    7.0497   -6.5103   26.8509 H   0  0  0  0  0  0  0  0  0  0  0  0
    8.6619   -1.5627   20.3589 H   0  0  0  0  0  0  0  0  0  0  0  0
    7.4230   -1.1880   21.5916 H   0  0  0  0  0  0  0  0  0  0  0  0
    8.3624   -5.3252   25.6741 H   0  0  0  0  0  0  0  0  0  0  0  0
  1  2  1  0  0  0  0
  1  3  2  0  0  0  0
  2  6  2  0  0  0  0
  3  7  1  0  0  0  0
  4  5  1  0  0  0  0
  4  8  2  0  0  0  0
  5  9  2  0  0  0  0
  6 14  1  0  0  0  0
  7 14  2  0  0  0  0
  8 15  1  0  0  0  0
  9 16  1  0  0  0  0
 10 12  2  0  0  0  0
 10 17  1  0  0  0  0
 11 13  1  0  0  0  0
 11 17  2  0  0  0  0
 12 18  1  0  0  0  0
 13 18  2  0  0  0  0
 14 22  1  0  0  0  0
 15 16  2  0  0  0  0
 15 25  1  0  0  0  0
 16 27  1  0  0  0  0
 17 28  1  0  0  0  0
 18 29  1  0  0  0  0
 19 23  1  0  0  0  0
 19 28  1  0  0  0  0
 19 30  2  0  0  0  0
 20 24  1  0  0  0  0
 20 29  1  0  0  0  0
 20 31  2  0  0  0  0
 21 23  1  0  0  0  0
 22 29  1  0  0  0  0
 24 27  1  0  0  0  0
 25 26  2  0  0  0  0
 26 27  1  0  0  0  0
  1 32  1  0  0  0  0
  2 33  1  0  0  0  0
  3 34  1  0  0  0  0
  4 35  1  0  0  0  0
  5 36  1  0  0  0  0
  6 37  1  0  0  0  0
  7 38  1  0  0  0  0
  8 39  1  0  0  0  0
  9 40  1  0  0  0  0
 10 41  1  0  0  0  0
 11 42  1  0  0  0  0
 12 43  1  0  0  0  0
 13 44  1  0  0  0  0
 21 45  1  0  0  0  0
 21 46  1  0  0  0  0
 21 47  1  0  0  0  0
 22 48  1  0  0  0  0
 22 49  1  0  0  0  0
 23 50  1  0  0  0  0
 23 51  1  0  0  0  0
 24 52  1  0  0  0  0
 24 53  1  0  0  0  0
 28 54  1  0  0  0  0
M  END
> <clash_score>
0

> <docking_score>
-9.649004936218262

> <overlap_score>
0.9713112115859985

$$$$
BENZO_340_1
  -OEChem-08222022473D

 51 54  0     0  0  0  0  0  0999 V2000
    3.8860    2.1050   19.5250 C   0  0  0  0  0  0  0  0  0  0  0  0
    4.2460    1.7520   20.8250 C   0  0  0  0  0  0  0  0  0  0  0  0
    4.6610    1.7170   18.4380 C   0  0  0  0  0  0  0  0  0  0  0  0
    5.3890    1.0010   21.0690 C   0  0  0  0  0  0  0  0  0  0  0  0
    9.1890   -3.5540   24.0140 C   0  0  0  0  0  0  0  0  0  0  0  0
    7.8700   -2.0610   25.3550 C   0  0  0  0  0  0  0  0  0  0  0  0
    9.5890   -2.4950   23.2210 C   0  0  0  0  0  0  0  0  0  0  0  0
    8.2550   -1.0010   24.5520 C   0  0  0  0  0  0  0  0  0  0  0  0
   12.6785   -0.3936   24.5018 C   0  0  0  0  0  0  0  0  0  0  0  0
   13.7775   -1.2037   24.3186 C   0  0  0  0  0  0  0  0  0  0  0  0
   12.5401   -0.8378   22.2246 C   0  0  0  0  0  0  0  0  0  0  0  0
   11.9616   -0.1817   23.2889 C   0  0  0  0  0  0  0  0  0  0  0  0
    5.7970    0.9500   18.6730 C   0  0  0  0  0  0  0  0  0  0  0  0
    6.1460    0.6070   19.9750 C   0  0  0  0  0  0  0  0  0  0  0  0
    8.3450   -3.3440   25.0980 C   0  0  0  0  0  0  0  0  0  0  0  0
    9.1280   -1.2090   23.4870 C   0  0  0  0  0  0  0  0  0  0  0  0
    8.2014   -4.5567   27.2977 C   0  0  0  0  0  0  0  0  0  0  0  0
    9.0430    0.2380   21.4940 C   0  0  0  0  0  0  0  0  0  0  0  0
    7.8867   -6.0886   29.2876 C   0  0  0  0  0  0  0  0  0  0  0  0
   10.7220    0.6590   23.1850 C   0  0  0  0  0  0  0  0  0  0  0  0
    7.6333   -5.8733   27.8063 C   0  0  0  0  0  0  0  0  0  0  0  0
    8.0950   -0.7700   20.8440 C   0  0  0  0  0  0  0  0  0  0  0  0
    6.7100    0.3850   17.8100 N   0  0  0  0  0  0  0  0  0  0  0  0
    7.5840   -0.2700   18.5160 N   0  0  0  0  0  0  0  0  0  0  0  0
    7.2710   -0.1460   19.8310 N   0  0  0  0  0  0  0  0  0  0  0  0
    7.9771   -4.4058   25.9196 N   0  0  0  0  0  0  0  0  0  0  0  0
    9.5820   -0.1080   22.7000 N   0  0  0  0  0  0  0  0  0  0  0  0
    8.7726   -3.7646   28.0400 O   0  0  0  0  0  0  0  0  0  0  0  0
    9.2950    1.3000   20.9480 O   0  0  0  0  0  0  0  0  0  0  0  0
   13.9416   -1.7050   22.6894 S   0  0  0  0  0  0  0  0  0  0  0  0
    2.9847    2.6930   19.3611 H   0  0  0  0  0  0  0  0  0  0  0  0
    3.6232    2.0694   21.6565 H   0  0  0  0  0  0  0  0  0  0  0  0
    4.3785    2.0112   17.4257 H   0  0  0  0  0  0  0  0  0  0  0  0
    5.6780    0.7321   22.0906 H   0  0  0  0  0  0  0  0  0  0  0  0
    9.5436   -4.5614   23.7799 H   0  0  0  0  0  0  0  0  0  0  0  0
    7.1918   -1.8823   26.1906 H   0  0  0  0  0  0  0  0  0  0  0  0
   10.2676   -2.6754   22.3861 H   0  0  0  0  0  0  0  0  0  0  0  0
    7.8686   -0.0026   24.7598 H   0  0  0  0  0  0  0  0  0  0  0  0
   12.4058    0.0253   25.4623 H   0  0  0  0  0  0  0  0  0  0  0  0
   14.4923   -1.5245   25.0631 H   0  0  0  0  0  0  0  0  0  0  0  0
   12.2108   -0.8511   21.1948 H   0  0  0  0  0  0  0  0  0  0  0  0
    8.9593   -6.0834   29.5079 H   0  0  0  0  0  0  0  0  0  0  0  0
    7.4763   -7.0510   29.6084 H   0  0  0  0  0  0  0  0  0  0  0  0
    7.4174   -5.3003   29.8854 H   0  0  0  0  0  0  0  0  0  0  0  0
   10.4561    1.0772   24.1620 H   0  0  0  0  0  0  0  0  0  0  0  0
   10.8743    1.5008   22.5014 H   0  0  0  0  0  0  0  0  0  0  0  0
    6.5541   -5.8831   27.6149 H   0  0  0  0  0  0  0  0  0  0  0  0
    8.0870   -6.6914   27.2350 H   0  0  0  0  0  0  0  0  0  0  0  0
    8.6619   -1.5627   20.3589 H   0  0  0  0  0  0  0  0  0  0  0  0
    7.4230   -1.1880   21.5916 H   0  0  0  0  0  0  0  0  0  0  0  0
    7.4775   -5.1796   25.4661 H   0  0  0  0  0  0  0  0  0  0  0  0
  1  2  1  0  0  0  0
  1  3  2  0  0  0  0
  2  4  2  0  0  0  0
  3 13  1  0  0  0  0
  4 14  1  0  0  0  0
  5  7  2  0  0  0  0
  5 15  1  0  0  0  0
  6  8  1  0  0  0  0
  6 15  2  0  0  0  0
  7 16  1  0  0  0  0
  8 16  2  0  0  0  0
  9 10  2  0  0  0  0
  9 12  1  0  0  0  0
 10 30  1  0  0  0  0
 11 12  2  0  0  0  0
 11 30  1  0  0  0  0
 12 20  1  0  0  0  0
 13 14  2  0  0  0  0
 13 23  1  0  0  0  0
 14 25  1  0  0  0  0
 15 26  1  0  0  0  0
 16 27  1  0  0  0  0
 17 21  1  0  0  0  0
 17 26  1  0  0  0  0
 17 28  2  0  0  0  0
 18 22  1  0  0  0  0
 18 27  1  0  0  0  0
 18 29  2  0  0  0  0
 19 21  1  0  0  0  0
 20 27  1  0  0  0  0
 22 25  1  0  0  0  0
 23 24  2  0  0  0  0
 24 25  1  0  0  0  0
  1 31  1  0  0  0  0
  2 32  1  0  0  0  0
  3 33  1  0  0  0  0
  4 34  1  0  0  0  0
  5 35  1  0  0  0  0
  6 36  1  0  0  0  0
  7 37  1  0  0  0  0
  8 38  1  0  0  0  0
  9 39  1  0  0  0  0
 10 40  1  0  0  0  0
 11 41  1  0  0  0  0
 19 42  1  0  0  0  0
 19 43  1  0  0  0  0
 19 44  1  0  0  0  0
 20 45  1  0  0  0  0
 20 46  1  0  0  0  0
 21 47  1  0  0  0  0
 21 48  1  0  0  0  0
 22 49  1  0  0  0  0
 22 50  1  0  0  0  0
 26 51  1  0  0  0  0
M  END
> <clash_score>
0

> <docking_score>
-9.941266059875488

> <overlap_score>
0.9895491003990173

$$$$
BENZO_345_1
  -OEChem-08222022473D

 59 63  0     0  0  0  0  0  0999 V2000
   14.2642   -1.7450   23.4813 C   0  0  0  0  0  0  0  0  0  0  0  0
   14.0779   -0.6681   24.3480 C   0  0  0  0  0  0  0  0  0  0  0  0
   13.2991   -2.0403   22.5184 C   0  0  0  0  0  0  0  0  0  0  0  0
    3.8860    2.1050   19.5250 C   0  0  0  0  0  0  0  0  0  0  0  0
    4.2460    1.7520   20.8250 C   0  0  0  0  0  0  0  0  0  0  0  0
   12.9266    0.1135   24.2518 C   0  0  0  0  0  0  0  0  0  0  0  0
   12.1478   -1.2587   22.4222 C   0  0  0  0  0  0  0  0  0  0  0  0
    4.6610    1.7170   18.4380 C   0  0  0  0  0  0  0  0  0  0  0  0
    5.3890    1.0010   21.0690 C   0  0  0  0  0  0  0  0  0  0  0  0
    9.1890   -3.5540   24.0140 C   0  0  0  0  0  0  0  0  0  0  0  0
    7.8700   -2.0610   25.3550 C   0  0  0  0  0  0  0  0  0  0  0  0
    9.5890   -2.4950   23.2210 C   0  0  0  0  0  0  0  0  0  0  0  0
    8.2550   -1.0010   24.5520 C   0  0  0  0  0  0  0  0  0  0  0  0
   11.9616   -0.1817   23.2889 C   0  0  0  0  0  0  0  0  0  0  0  0
    5.7970    0.9500   18.6730 C   0  0  0  0  0  0  0  0  0  0  0  0
    6.1460    0.6070   19.9750 C   0  0  0  0  0  0  0  0  0  0  0  0
    8.3450   -3.3440   25.0980 C   0  0  0  0  0  0  0  0  0  0  0  0
    9.1280   -1.2090   23.4870 C   0  0  0  0  0  0  0  0  0  0  0  0
    9.0430    0.2380   21.4940 C   0  0  0  0  0  0  0  0  0  0  0  0
    7.3495   -6.6199   27.6701 C   0  0  0  0  0  0  0  0  0  0  0  0
    6.9542   -6.6348   26.1986 C   0  0  0  0  0  0  0  0  0  0  0  0
    7.3959   -5.1872   28.1871 C   0  0  0  0  0  0  0  0  0  0  0  0
    7.8834   -5.7613   25.3569 C   0  0  0  0  0  0  0  0  0  0  0  0
    8.3297   -4.3204   27.3453 C   0  0  0  0  0  0  0  0  0  0  0  0
   10.7220    0.6590   23.1850 C   0  0  0  0  0  0  0  0  0  0  0  0
    8.0950   -0.7700   20.8440 C   0  0  0  0  0  0  0  0  0  0  0  0
    6.7100    0.3850   17.8100 N   0  0  0  0  0  0  0  0  0  0  0  0
    7.5840   -0.2700   18.5160 N   0  0  0  0  0  0  0  0  0  0  0  0
    7.2710   -0.1460   19.8310 N   0  0  0  0  0  0  0  0  0  0  0  0
    7.9745   -4.4101   25.9218 N   0  0  0  0  0  0  0  0  0  0  0  0
    9.5820   -0.1080   22.7000 N   0  0  0  0  0  0  0  0  0  0  0  0
    9.2950    1.3000   20.9480 O   0  0  0  0  0  0  0  0  0  0  0  0
   15.1613   -2.3527   23.5555 H   0  0  0  0  0  0  0  0  0  0  0  0
   14.8297   -0.4373   25.0971 H   0  0  0  0  0  0  0  0  0  0  0  0
   13.4443   -2.8780   21.8427 H   0  0  0  0  0  0  0  0  0  0  0  0
    2.9847    2.6930   19.3611 H   0  0  0  0  0  0  0  0  0  0  0  0
    3.6232    2.0694   21.6565 H   0  0  0  0  0  0  0  0  0  0  0  0
   12.7899    0.9506   24.9315 H   0  0  0  0  0  0  0  0  0  0  0  0
   11.4013   -1.4963   21.6690 H   0  0  0  0  0  0  0  0  0  0  0  0
    4.3785    2.0112   17.4257 H   0  0  0  0  0  0  0  0  0  0  0  0
    5.6780    0.7321   22.0906 H   0  0  0  0  0  0  0  0  0  0  0  0
    9.5426   -4.5618   23.7797 H   0  0  0  0  0  0  0  0  0  0  0  0
    7.1914   -1.8824   26.1903 H   0  0  0  0  0  0  0  0  0  0  0  0
   10.2669   -2.6745   22.3854 H   0  0  0  0  0  0  0  0  0  0  0  0
    7.8690   -0.0020   24.7587 H   0  0  0  0  0  0  0  0  0  0  0  0
    6.6275   -7.2030   28.2544 H   0  0  0  0  0  0  0  0  0  0  0  0
    8.3286   -7.0944   27.7981 H   0  0  0  0  0  0  0  0  0  0  0  0
    6.9785   -7.6646   25.8205 H   0  0  0  0  0  0  0  0  0  0  0  0
    5.9224   -6.2815   26.0912 H   0  0  0  0  0  0  0  0  0  0  0  0
    6.3874   -4.7586   28.1744 H   0  0  0  0  0  0  0  0  0  0  0  0
    7.7314   -5.1812   29.2316 H   0  0  0  0  0  0  0  0  0  0  0  0
    8.8752   -6.2297   25.3260 H   0  0  0  0  0  0  0  0  0  0  0  0
    7.5092   -5.7078   24.3260 H   0  0  0  0  0  0  0  0  0  0  0  0
    8.2703   -3.2761   27.6782 H   0  0  0  0  0  0  0  0  0  0  0  0
    9.3614   -4.6600   27.5015 H   0  0  0  0  0  0  0  0  0  0  0  0
   10.4561    1.0772   24.1620 H   0  0  0  0  0  0  0  0  0  0  0  0
   10.8743    1.5008   22.5014 H   0  0  0  0  0  0  0  0  0  0  0  0
    8.6688   -1.5655   20.3666 H   0  0  0  0  0  0  0  0  0  0  0  0
    7.4298   -1.1908   21.5994 H   0  0  0  0  0  0  0  0  0  0  0  0
  1  2  1  0  0  0  0
  1  3  2  0  0  0  0
  2  6  2  0  0  0  0
  3  7  1  0  0  0  0
  4  5  1  0  0  0  0
  4  8  2  0  0  0  0
  5  9  2  0  0  0  0
  6 14  1  0  0  0  0
  7 14  2  0  0  0  0
  8 15  1  0  0  0  0
  9 16  1  0  0  0  0
 10 12  2  0  0  0  0
 10 17  1  0  0  0  0
 11 13  1  0  0  0  0
 11 17  2  0  0  0  0
 12 18  1  0  0  0  0
 13 18  2  0  0  0  0
 14 25  1  0  0  0  0
 15 16  2  0  0  0  0
 15 27  1  0  0  0  0
 16 29  1  0  0  0  0
 17 30  1  0  0  0  0
 18 31  1  0  0  0  0
 19 26  1  0  0  0  0
 19 31  1  0  0  0  0
 19 32  2  0  0  0  0
 20 21  1  0  0  0  0
 20 22  1  0  0  0  0
 21 23  1  0  0  0  0
 22 24  1  0  0  0  0
 23 30  1  0  0  0  0
 24 30  1  0  0  0  0
 25 31  1  0  0  0  0
 26 29  1  0  0  0  0
 27 28  2  0  0  0  0
 28 29  1  0  0  0  0
  1 33  1  0  0  0  0
  2 34  1  0  0  0  0
  3 35  1  0  0  0  0
  4 36  1  0  0  0  0
  5 37  1  0  0  0  0
  6 38  1  0  0  0  0
  7 39  1  0  0  0  0
  8 40  1  0  0  0  0
  9 41  1  0  0  0  0
 10 42  1  0  0  0  0
 11 43  1  0  0  0  0
 12 44  1  0  0  0  0
 13 45  1  0  0  0  0
 20 46  1  0  0  0  0
 20 47  1  0  0  0  0
 21 48  1  0  0  0  0
 21 49  1  0  0  0  0
 22 50  1  0  0  0  0
 22 51  1  0  0  0  0
 23 52  1  0  0  0  0
 23 53  1  0  0  0  0
 24 54  1  0  0  0  0
 24 55  1  0  0  0  0
 25 56  1  0  0  0  0
 25 57  1  0  0  0  0
 26 58  1  0  0  0  0
 26 59  1  0  0  0  0
M  END
> <clash_score>
0

> <docking_score>
-9.734597206115723

> <overlap_score>
0.9952272772789001

$$$$
BENZO_344_1
  -OEChem-08222022473D

 56 60  0     0  0  0  0  0  0999 V2000
    3.8860    2.1050   19.5250 C   0  0  0  0  0  0  0  0  0  0  0  0
    4.2460    1.7520   20.8250 C   0  0  0  0  0  0  0  0  0  0  0  0
    4.6610    1.7170   18.4380 C   0  0  0  0  0  0  0  0  0  0  0  0
    5.3890    1.0010   21.0690 C   0  0  0  0  0  0  0  0  0  0  0  0
    9.1890   -3.5540   24.0140 C   0  0  0  0  0  0  0  0  0  0  0  0
    7.8700   -2.0610   25.3550 C   0  0  0  0  0  0  0  0  0  0  0  0
    9.5890   -2.4950   23.2210 C   0  0  0  0  0  0  0  0  0  0  0  0
    8.2550   -1.0010   24.5520 C   0  0  0  0  0  0  0  0  0  0  0  0
   12.6785   -0.3936   24.5018 C   0  0  0  0  0  0  0  0  0  0  0  0
   13.7775   -1.2037   24.3186 C   0  0  0  0  0  0  0  0  0  0  0  0
   12.5401   -0.8378   22.2246 C   0  0  0  0  0  0  0  0  0  0  0  0
   11.9616   -0.1817   23.2889 C   0  0  0  0  0  0  0  0  0  0  0  0
    5.7970    0.9500   18.6730 C   0  0  0  0  0  0  0  0  0  0  0  0
    6.1460    0.6070   19.9750 C   0  0  0  0  0  0  0  0  0  0  0  0
    8.3450   -3.3440   25.0980 C   0  0  0  0  0  0  0  0  0  0  0  0
    9.1280   -1.2090   23.4870 C   0  0  0  0  0  0  0  0  0  0  0  0
    9.0430    0.2380   21.4940 C   0  0  0  0  0  0  0  0  0  0  0  0
    7.5748   -4.8280   28.7278 C   0  0  0  0  0  0  0  0  0  0  0  0
    8.9776   -4.7555   28.1204 C   0  0  0  0  0  0  0  0  0  0  0  0
    6.5554   -4.0713   27.8732 C   0  0  0  0  0  0  0  0  0  0  0  0
    8.9620   -5.1961   26.6568 C   0  0  0  0  0  0  0  0  0  0  0  0
    6.6009   -4.5253   26.4110 C   0  0  0  0  0  0  0  0  0  0  0  0
   10.7220    0.6590   23.1850 C   0  0  0  0  0  0  0  0  0  0  0  0
    8.0950   -0.7700   20.8440 C   0  0  0  0  0  0  0  0  0  0  0  0
    6.7100    0.3850   17.8100 N   0  0  0  0  0  0  0  0  0  0  0  0
    7.5840   -0.2700   18.5160 N   0  0  0  0  0  0  0  0  0  0  0  0
    7.2710   -0.1460   19.8310 N   0  0  0  0  0  0  0  0  0  0  0  0
    7.9770   -4.4029   25.9162 N   0  0  0  0  0  0  0  0  0  0  0  0
    9.5820   -0.1080   22.7000 N   0  0  0  0  0  0  0  0  0  0  0  0
    9.2950    1.3000   20.9480 O   0  0  0  0  0  0  0  0  0  0  0  0
   13.9416   -1.7050   22.6894 S   0  0  0  0  0  0  0  0  0  0  0  0
    2.9847    2.6930   19.3611 H   0  0  0  0  0  0  0  0  0  0  0  0
    3.6232    2.0694   21.6565 H   0  0  0  0  0  0  0  0  0  0  0  0
    4.3785    2.0112   17.4257 H   0  0  0  0  0  0  0  0  0  0  0  0
    5.6780    0.7321   22.0906 H   0  0  0  0  0  0  0  0  0  0  0  0
    9.5426   -4.5618   23.7797 H   0  0  0  0  0  0  0  0  0  0  0  0
    7.1914   -1.8824   26.1903 H   0  0  0  0  0  0  0  0  0  0  0  0
   10.2669   -2.6745   22.3854 H   0  0  0  0  0  0  0  0  0  0  0  0
    7.8690   -0.0020   24.7587 H   0  0  0  0  0  0  0  0  0  0  0  0
   12.4058    0.0253   25.4623 H   0  0  0  0  0  0  0  0  0  0  0  0
   14.4923   -1.5246   25.0631 H   0  0  0  0  0  0  0  0  0  0  0  0
   12.2108   -0.8511   21.1948 H   0  0  0  0  0  0  0  0  0  0  0  0
    7.2681   -5.8807   28.8239 H   0  0  0  0  0  0  0  0  0  0  0  0
    7.5891   -4.4101   29.7448 H   0  0  0  0  0  0  0  0  0  0  0  0
    9.3554   -3.7320   28.1920 H   0  0  0  0  0  0  0  0  0  0  0  0
    9.6558   -5.3943   28.6900 H   0  0  0  0  0  0  0  0  0  0  0  0
    5.5496   -4.2322   28.2751 H   0  0  0  0  0  0  0  0  0  0  0  0
    6.7545   -2.9948   27.9293 H   0  0  0  0  0  0  0  0  0  0  0  0
    9.9612   -5.0560   26.2363 H   0  0  0  0  0  0  0  0  0  0  0  0
    8.7097   -6.2583   26.5922 H   0  0  0  0  0  0  0  0  0  0  0  0
    6.2649   -5.5600   26.3335 H   0  0  0  0  0  0  0  0  0  0  0  0
    5.9271   -3.8964   25.8283 H   0  0  0  0  0  0  0  0  0  0  0  0
   10.4561    1.0772   24.1620 H   0  0  0  0  0  0  0  0  0  0  0  0
   10.8743    1.5008   22.5014 H   0  0  0  0  0  0  0  0  0  0  0  0
    8.6688   -1.5655   20.3666 H   0  0  0  0  0  0  0  0  0  0  0  0
    7.4298   -1.1908   21.5994 H   0  0  0  0  0  0  0  0  0  0  0  0
  1  2  1  0  0  0  0
  1  3  2  0  0  0  0
  2  4  2  0  0  0  0
  3 13  1  0  0  0  0
  4 14  1  0  0  0  0
  5  7  2  0  0  0  0
  5 15  1  0  0  0  0
  6  8  1  0  0  0  0
  6 15  2  0  0  0  0
  7 16  1  0  0  0  0
  8 16  2  0  0  0  0
  9 10  2  0  0  0  0
  9 12  1  0  0  0  0
 10 31  1  0  0  0  0
 11 12  2  0  0  0  0
 11 31  1  0  0  0  0
 12 23  1  0  0  0  0
 13 14  2  0  0  0  0
 13 25  1  0  0  0  0
 14 27  1  0  0  0  0
 15 28  1  0  0  0  0
 16 29  1  0  0  0  0
 17 24  1  0  0  0  0
 17 29  1  0  0  0  0
 17 30  2  0  0  0  0
 18 19  1  0  0  0  0
 18 20  1  0  0  0  0
 19 21  1  0  0  0  0
 20 22  1  0  0  0  0
 21 28  1  0  0  0  0
 22 28  1  0  0  0  0
 23 29  1  0  0  0  0
 24 27  1  0  0  0  0
 25 26  2  0  0  0  0
 26 27  1  0  0  0  0
  1 32  1  0  0  0  0
  2 33  1  0  0  0  0
  3 34  1  0  0  0  0
  4 35  1  0  0  0  0
  5 36  1  0  0  0  0
  6 37  1  0  0  0  0
  7 38  1  0  0  0  0
  8 39  1  0  0  0  0
  9 40  1  0  0  0  0
 10 41  1  0  0  0  0
 11 42  1  0  0  0  0
 18 43  1  0  0  0  0
 18 44  1  0  0  0  0
 19 45  1  0  0  0  0
 19 46  1  0  0  0  0
 20 47  1  0  0  0  0
 20 48  1  0  0  0  0
 21 49  1  0  0  0  0
 21 50  1  0  0  0  0
 22 51  1  0  0  0  0
 22 52  1  0  0  0  0
 23 53  1  0  0  0  0
 23 54  1  0  0  0  0
 24 55  1  0  0  0  0
 24 56  1  0  0  0  0
M  END
> <clash_score>
0

> <docking_score>
-10.300357818603516

> <overlap_score>
0.9766672849655151

$$$$
BENZO_343_1
  -OEChem-08222022473D

 54 57  0     0  0  0  0  0  0999 V2000
    3.8860    2.1050   19.5250 C   0  0  0  0  0  0  0  0  0  0  0  0
    4.2460    1.7520   20.8250 C   0  0  0  0  0  0  0  0  0  0  0  0
    4.6610    1.7170   18.4380 C   0  0  0  0  0  0  0  0  0  0  0  0
    5.3890    1.0010   21.0690 C   0  0  0  0  0  0  0  0  0  0  0  0
    9.1890   -3.5540   24.0140 C   0  0  0  0  0  0  0  0  0  0  0  0
    7.8700   -2.0610   25.3550 C   0  0  0  0  0  0  0  0  0  0  0  0
    9.5890   -2.4950   23.2210 C   0  0  0  0  0  0  0  0  0  0  0  0
    8.2550   -1.0010   24.5520 C   0  0  0  0  0  0  0  0  0  0  0  0
   12.7320   -0.4464   24.4370 C   0  0  0  0  0  0  0  0  0  0  0  0
   12.5970   -0.8682   22.2832 C   0  0  0  0  0  0  0  0  0  0  0  0
   11.9616   -0.1817   23.2889 C   0  0  0  0  0  0  0  0  0  0  0  0
    5.7970    0.9500   18.6730 C   0  0  0  0  0  0  0  0  0  0  0  0
    6.1460    0.6070   19.9750 C   0  0  0  0  0  0  0  0  0  0  0  0
    8.3450   -3.3440   25.0980 C   0  0  0  0  0  0  0  0  0  0  0  0
    9.1280   -1.2090   23.4870 C   0  0  0  0  0  0  0  0  0  0  0  0
    8.2014   -4.5567   27.2977 C   0  0  0  0  0  0  0  0  0  0  0  0
    9.0430    0.2380   21.4940 C   0  0  0  0  0  0  0  0  0  0  0  0
    7.8867   -6.0886   29.2876 C   0  0  0  0  0  0  0  0  0  0  0  0
   14.6393   -2.3180   22.2082 C   0  0  0  0  0  0  0  0  0  0  0  0
   10.7220    0.6590   23.1850 C   0  0  0  0  0  0  0  0  0  0  0  0
    7.6333   -5.8733   27.8063 C   0  0  0  0  0  0  0  0  0  0  0  0
    8.0950   -0.7700   20.8440 C   0  0  0  0  0  0  0  0  0  0  0  0
   13.7770   -1.2393   24.1852 N   0  0  0  0  0  0  0  0  0  0  0  0
    6.7100    0.3850   17.8100 N   0  0  0  0  0  0  0  0  0  0  0  0
    7.5840   -0.2700   18.5160 N   0  0  0  0  0  0  0  0  0  0  0  0
   13.6676   -1.4788   22.8673 N   0  0  0  0  0  0  0  0  0  0  0  0
    7.2710   -0.1460   19.8310 N   0  0  0  0  0  0  0  0  0  0  0  0
    7.9771   -4.4058   25.9196 N   0  0  0  0  0  0  0  0  0  0  0  0
    9.5820   -0.1080   22.7000 N   0  0  0  0  0  0  0  0  0  0  0  0
    8.7726   -3.7646   28.0400 O   0  0  0  0  0  0  0  0  0  0  0  0
    9.2950    1.3000   20.9480 O   0  0  0  0  0  0  0  0  0  0  0  0
    2.9847    2.6930   19.3611 H   0  0  0  0  0  0  0  0  0  0  0  0
    3.6232    2.0694   21.6565 H   0  0  0  0  0  0  0  0  0  0  0  0
    4.3785    2.0112   17.4257 H   0  0  0  0  0  0  0  0  0  0  0  0
    5.6780    0.7321   22.0906 H   0  0  0  0  0  0  0  0  0  0  0  0
    9.5436   -4.5614   23.7799 H   0  0  0  0  0  0  0  0  0  0  0  0
    7.1918   -1.8823   26.1906 H   0  0  0  0  0  0  0  0  0  0  0  0
   10.2676   -2.6754   22.3861 H   0  0  0  0  0  0  0  0  0  0  0  0
    7.8686   -0.0026   24.7598 H   0  0  0  0  0  0  0  0  0  0  0  0
   12.5771   -0.0965   25.4478 H   0  0  0  0  0  0  0  0  0  0  0  0
   12.3832   -0.9726   21.2281 H   0  0  0  0  0  0  0  0  0  0  0  0
    8.9593   -6.0834   29.5079 H   0  0  0  0  0  0  0  0  0  0  0  0
    7.4763   -7.0510   29.6084 H   0  0  0  0  0  0  0  0  0  0  0  0
    7.4174   -5.3003   29.8854 H   0  0  0  0  0  0  0  0  0  0  0  0
   15.4522   -1.6787   21.8540 H   0  0  0  0  0  0  0  0  0  0  0  0
   15.0179   -3.0612   22.9154 H   0  0  0  0  0  0  0  0  0  0  0  0
   14.1626   -2.8324   21.3691 H   0  0  0  0  0  0  0  0  0  0  0  0
   10.4561    1.0772   24.1620 H   0  0  0  0  0  0  0  0  0  0  0  0
   10.8743    1.5008   22.5014 H   0  0  0  0  0  0  0  0  0  0  0  0
    6.5541   -5.8831   27.6149 H   0  0  0  0  0  0  0  0  0  0  0  0
    8.0870   -6.6914   27.2350 H   0  0  0  0  0  0  0  0  0  0  0  0
    8.6619   -1.5627   20.3589 H   0  0  0  0  0  0  0  0  0  0  0  0
    7.4230   -1.1880   21.5916 H   0  0  0  0  0  0  0  0  0  0  0  0
    7.4775   -5.1796   25.4661 H   0  0  0  0  0  0  0  0  0  0  0  0
  1  2  1  0  0  0  0
  1  3  2  0  0  0  0
  2  4  2  0  0  0  0
  3 12  1  0  0  0  0
  4 13  1  0  0  0  0
  5  7  2  0  0  0  0
  5 14  1  0  0  0  0
  6  8  1  0  0  0  0
  6 14  2  0  0  0  0
  7 15  1  0  0  0  0
  8 15  2  0  0  0  0
  9 11  1  0  0  0  0
  9 23  2  0  0  0  0
 10 11  2  0  0  0  0
 10 26  1  0  0  0  0
 11 20  1  0  0  0  0
 12 13  2  0  0  0  0
 12 24  1  0  0  0  0
 13 27  1  0  0  0  0
 14 28  1  0  0  0  0
 15 29  1  0  0  0  0
 16 21  1  0  0  0  0
 16 28  1  0  0  0  0
 16 30  2  0  0  0  0
 17 22  1  0  0  0  0
 17 29  1  0  0  0  0
 17 31  2  0  0  0  0
 18 21  1  0  0  0  0
 19 26  1  0  0  0  0
 20 29  1  0  0  0  0
 22 27  1  0  0  0  0
 23 26  1  0  0  0  0
 24 25  2  0  0  0  0
 25 27  1  0  0  0  0
  1 32  1  0  0  0  0
  2 33  1  0  0  0  0
  3 34  1  0  0  0  0
  4 35  1  0  0  0  0
  5 36  1  0  0  0  0
  6 37  1  0  0  0  0
  7 38  1  0  0  0  0
  8 39  1  0  0  0  0
  9 40  1  0  0  0  0
 10 41  1  0  0  0  0
 18 42  1  0  0  0  0
 18 43  1  0  0  0  0
 18 44  1  0  0  0  0
 19 45  1  0  0  0  0
 19 46  1  0  0  0  0
 19 47  1  0  0  0  0
 20 48  1  0  0  0  0
 20 49  1  0  0  0  0
 21 50  1  0  0  0  0
 21 51  1  0  0  0  0
 22 52  1  0  0  0  0
 22 53  1  0  0  0  0
 28 54  1  0  0  0  0
M  END
> <clash_score>
0

> <docking_score>
-8.690486907958984

> <overlap_score>
1.0061863660812378

$$$$
BENZO_342_1
  -OEChem-08222022473D

 54 57  0     0  0  0  0  0  0999 V2000
    3.8860    2.1050   19.5250 C   0  0  0  0  0  0  0  0  0  0  0  0
    4.2460    1.7520   20.8250 C   0  0  0  0  0  0  0  0  0  0  0  0
   13.7501   -1.1157   24.6176 C   0  0  0  0  0  0  0  0  0  0  0  0
   12.5991   -0.3339   24.5202 C   0  0  0  0  0  0  0  0  0  0  0  0
    4.6610    1.7170   18.4380 C   0  0  0  0  0  0  0  0  0  0  0  0
    5.3890    1.0010   21.0690 C   0  0  0  0  0  0  0  0  0  0  0  0
    9.1890   -3.5540   24.0140 C   0  0  0  0  0  0  0  0  0  0  0  0
    7.8700   -2.0610   25.3550 C   0  0  0  0  0  0  0  0  0  0  0  0
    9.5890   -2.4950   23.2210 C   0  0  0  0  0  0  0  0  0  0  0  0
    8.2550   -1.0010   24.5520 C   0  0  0  0  0  0  0  0  0  0  0  0
   14.2636   -1.7454   23.4838 C   0  0  0  0  0  0  0  0  0  0  0  0
   12.4750   -0.8115   22.1551 C   0  0  0  0  0  0  0  0  0  0  0  0
   11.9616   -0.1817   23.2889 C   0  0  0  0  0  0  0  0  0  0  0  0
    5.7970    0.9500   18.6730 C   0  0  0  0  0  0  0  0  0  0  0  0
    6.1460    0.6070   19.9750 C   0  0  0  0  0  0  0  0  0  0  0  0
    8.3450   -3.3440   25.0980 C   0  0  0  0  0  0  0  0  0  0  0  0
    9.1280   -1.2090   23.4870 C   0  0  0  0  0  0  0  0  0  0  0  0
   13.6261   -1.5933   22.2526 C   0  0  0  0  0  0  0  0  0  0  0  0
    8.2014   -4.5567   27.2977 C   0  0  0  0  0  0  0  0  0  0  0  0
    9.0430    0.2380   21.4940 C   0  0  0  0  0  0  0  0  0  0  0  0
    7.8867   -6.0886   29.2876 C   0  0  0  0  0  0  0  0  0  0  0  0
   10.7220    0.6590   23.1850 C   0  0  0  0  0  0  0  0  0  0  0  0
    7.6333   -5.8733   27.8063 C   0  0  0  0  0  0  0  0  0  0  0  0
    8.0950   -0.7700   20.8440 C   0  0  0  0  0  0  0  0  0  0  0  0
    6.7100    0.3850   17.8100 N   0  0  0  0  0  0  0  0  0  0  0  0
    7.5840   -0.2700   18.5160 N   0  0  0  0  0  0  0  0  0  0  0  0
    7.2710   -0.1460   19.8310 N   0  0  0  0  0  0  0  0  0  0  0  0
    7.9771   -4.4058   25.9196 N   0  0  0  0  0  0  0  0  0  0  0  0
    9.5820   -0.1080   22.7000 N   0  0  0  0  0  0  0  0  0  0  0  0
    8.7726   -3.7646   28.0400 O   0  0  0  0  0  0  0  0  0  0  0  0
    9.2950    1.3000   20.9480 O   0  0  0  0  0  0  0  0  0  0  0  0
   14.2594   -2.3714   20.8543 Cl  0  0  0  0  0  0  0  0  0  0  0  0
    2.9847    2.6930   19.3611 H   0  0  0  0  0  0  0  0  0  0  0  0
    3.6232    2.0694   21.6565 H   0  0  0  0  0  0  0  0  0  0  0  0
   14.2462   -1.2340   25.5766 H   0  0  0  0  0  0  0  0  0  0  0  0
   12.2060    0.1530   25.4088 H   0  0  0  0  0  0  0  0  0  0  0  0
    4.3785    2.0112   17.4257 H   0  0  0  0  0  0  0  0  0  0  0  0
    5.6780    0.7321   22.0906 H   0  0  0  0  0  0  0  0  0  0  0  0
    9.5436   -4.5614   23.7799 H   0  0  0  0  0  0  0  0  0  0  0  0
    7.1918   -1.8823   26.1906 H   0  0  0  0  0  0  0  0  0  0  0  0
   10.2676   -2.6754   22.3861 H   0  0  0  0  0  0  0  0  0  0  0  0
    7.8686   -0.0026   24.7598 H   0  0  0  0  0  0  0  0  0  0  0  0
   15.1613   -2.3520   23.5748 H   0  0  0  0  0  0  0  0  0  0  0  0
   11.9745   -0.6893   21.1973 H   0  0  0  0  0  0  0  0  0  0  0  0
    8.9593   -6.0834   29.5079 H   0  0  0  0  0  0  0  0  0  0  0  0
    7.4763   -7.0510   29.6084 H   0  0  0  0  0  0  0  0  0  0  0  0
    7.4174   -5.3003   29.8854 H   0  0  0  0  0  0  0  0  0  0  0  0
   10.4561    1.0772   24.1620 H   0  0  0  0  0  0  0  0  0  0  0  0
   10.8743    1.5008   22.5014 H   0  0  0  0  0  0  0  0  0  0  0  0
    6.5541   -5.8831   27.6149 H   0  0  0  0  0  0  0  0  0  0  0  0
    8.0870   -6.6914   27.2350 H   0  0  0  0  0  0  0  0  0  0  0  0
    8.6619   -1.5627   20.3589 H   0  0  0  0  0  0  0  0  0  0  0  0
    7.4230   -1.1880   21.5916 H   0  0  0  0  0  0  0  0  0  0  0  0
    7.4775   -5.1796   25.4661 H   0  0  0  0  0  0  0  0  0  0  0  0
  1  2  1  0  0  0  0
  1  5  2  0  0  0  0
  2  6  2  0  0  0  0
  3  4  2  0  0  0  0
  3 11  1  0  0  0  0
  4 13  1  0  0  0  0
  5 14  1  0  0  0  0
  6 15  1  0  0  0  0
  7  9  2  0  0  0  0
  7 16  1  0  0  0  0
  8 10  1  0  0  0  0
  8 16  2  0  0  0  0
  9 17  1  0  0  0  0
 10 17  2  0  0  0  0
 11 18  2  0  0  0  0
 12 13  2  0  0  0  0
 12 18  1  0  0  0  0
 13 22  1  0  0  0  0
 14 15  2  0  0  0  0
 14 25  1  0  0  0  0
 15 27  1  0  0  0  0
 16 28  1  0  0  0  0
 17 29  1  0  0  0  0
 18 32  1  0  0  0  0
 19 23  1  0  0  0  0
 19 28  1  0  0  0  0
 19 30  2  0  0  0  0
 20 24  1  0  0  0  0
 20 29  1  0  0  0  0
 20 31  2  0  0  0  0
 21 23  1  0  0  0  0
 22 29  1  0  0  0  0
 24 27  1  0  0  0  0
 25 26  2  0  0  0  0
 26 27  1  0  0  0  0
  1 33  1  0  0  0  0
  2 34  1  0  0  0  0
  3 35  1  0  0  0  0
  4 36  1  0  0  0  0
  5 37  1  0  0  0  0
  6 38  1  0  0  0  0
  7 39  1  0  0  0  0
  8 40  1  0  0  0  0
  9 41  1  0  0  0  0
 10 42  1  0  0  0  0
 11 43  1  0  0  0  0
 12 44  1  0  0  0  0
 21 45  1  0  0  0  0
 21 46  1  0  0  0  0
 21 47  1  0  0  0  0
 22 48  1  0  0  0  0
 22 49  1  0  0  0  0
 23 50  1  0  0  0  0
 23 51  1  0  0  0  0
 24 52  1  0  0  0  0
 24 53  1  0  0  0  0
 28 54  1  0  0  0  0
M  END
> <clash_score>
0

> <docking_score>
-9.454463005065918

> <overlap_score>
1.010699987411499

$$$$
BENZO_347_1
  -OEChem-08222022473D

 59 63  0     0  0  0  0  0  0999 V2000
    3.8860    2.1050   19.5250 C   0  0  0  0  0  0  0  0  0  0  0  0
    4.2460    1.7520   20.8250 C   0  0  0  0  0  0  0  0  0  0  0  0
    4.6610    1.7170   18.4380 C   0  0  0  0  0  0  0  0  0  0  0  0
    5.3890    1.0010   21.0690 C   0  0  0  0  0  0  0  0  0  0  0  0
    9.1890   -3.5540   24.0140 C   0  0  0  0  0  0  0  0  0  0  0  0
    7.8700   -2.0610   25.3550 C   0  0  0  0  0  0  0  0  0  0  0  0
    9.5890   -2.4950   23.2210 C   0  0  0  0  0  0  0  0  0  0  0  0
    8.2550   -1.0010   24.5520 C   0  0  0  0  0  0  0  0  0  0  0  0
   13.3010    0.2819   23.3762 C   0  0  0  0  0  0  0  0  0  0  0  0
   12.2469   -1.0164   21.9485 C   0  0  0  0  0  0  0  0  0  0  0  0
   12.0277    0.0001   22.8458 C   0  0  0  0  0  0  0  0  0  0  0  0
    5.7970    0.9500   18.6730 C   0  0  0  0  0  0  0  0  0  0  0  0
    6.1460    0.6070   19.9750 C   0  0  0  0  0  0  0  0  0  0  0  0
    8.3450   -3.3440   25.0980 C   0  0  0  0  0  0  0  0  0  0  0  0
    9.1280   -1.2090   23.4870 C   0  0  0  0  0  0  0  0  0  0  0  0
    9.0430    0.2380   21.4940 C   0  0  0  0  0  0  0  0  0  0  0  0
    7.5748   -4.8280   28.7278 C   0  0  0  0  0  0  0  0  0  0  0  0
    8.9776   -4.7555   28.1204 C   0  0  0  0  0  0  0  0  0  0  0  0
    6.5554   -4.0713   27.8732 C   0  0  0  0  0  0  0  0  0  0  0  0
    8.9620   -5.1961   26.6568 C   0  0  0  0  0  0  0  0  0  0  0  0
    6.6009   -4.5253   26.4110 C   0  0  0  0  0  0  0  0  0  0  0  0
   14.2950   -2.2646   21.2232 C   0  0  0  0  0  0  0  0  0  0  0  0
   10.7220    0.6590   23.1850 C   0  0  0  0  0  0  0  0  0  0  0  0
    8.0950   -0.7700   20.8440 C   0  0  0  0  0  0  0  0  0  0  0  0
   14.2580   -0.4932   22.8591 N   0  0  0  0  0  0  0  0  0  0  0  0
    6.7100    0.3850   17.8100 N   0  0  0  0  0  0  0  0  0  0  0  0
    7.5840   -0.2700   18.5160 N   0  0  0  0  0  0  0  0  0  0  0  0
   13.5858   -1.2720   21.9944 N   0  0  0  0  0  0  0  0  0  0  0  0
    7.2710   -0.1460   19.8310 N   0  0  0  0  0  0  0  0  0  0  0  0
    7.9770   -4.4029   25.9162 N   0  0  0  0  0  0  0  0  0  0  0  0
    9.5820   -0.1080   22.7000 N   0  0  0  0  0  0  0  0  0  0  0  0
    9.2950    1.3000   20.9480 O   0  0  0  0  0  0  0  0  0  0  0  0
    2.9847    2.6930   19.3611 H   0  0  0  0  0  0  0  0  0  0  0  0
    3.6232    2.0694   21.6565 H   0  0  0  0  0  0  0  0  0  0  0  0
    4.3785    2.0112   17.4257 H   0  0  0  0  0  0  0  0  0  0  0  0
    5.6780    0.7321   22.0906 H   0  0  0  0  0  0  0  0  0  0  0  0
    9.5426   -4.5618   23.7797 H   0  0  0  0  0  0  0  0  0  0  0  0
    7.1914   -1.8824   26.1903 H   0  0  0  0  0  0  0  0  0  0  0  0
   10.2669   -2.6745   22.3854 H   0  0  0  0  0  0  0  0  0  0  0  0
    7.8690   -0.0020   24.7587 H   0  0  0  0  0  0  0  0  0  0  0  0
   13.5736    1.0185   24.1187 H   0  0  0  0  0  0  0  0  0  0  0  0
   11.5804   -1.5669   21.2983 H   0  0  0  0  0  0  0  0  0  0  0  0
    7.2681   -5.8807   28.8239 H   0  0  0  0  0  0  0  0  0  0  0  0
    7.5891   -4.4101   29.7448 H   0  0  0  0  0  0  0  0  0  0  0  0
    9.3554   -3.7320   28.1920 H   0  0  0  0  0  0  0  0  0  0  0  0
    9.6558   -5.3943   28.6900 H   0  0  0  0  0  0  0  0  0  0  0  0
    5.5496   -4.2322   28.2751 H   0  0  0  0  0  0  0  0  0  0  0  0
    6.7545   -2.9948   27.9293 H   0  0  0  0  0  0  0  0  0  0  0  0
    9.9612   -5.0560   26.2363 H   0  0  0  0  0  0  0  0  0  0  0  0
    8.7097   -6.2583   26.5922 H   0  0  0  0  0  0  0  0  0  0  0  0
    6.2649   -5.5600   26.3335 H   0  0  0  0  0  0  0  0  0  0  0  0
    5.9271   -3.8964   25.8283 H   0  0  0  0  0  0  0  0  0  0  0  0
   14.6200   -1.7975   20.2898 H   0  0  0  0  0  0  0  0  0  0  0  0
   15.1576   -2.6206   21.7932 H   0  0  0  0  0  0  0  0  0  0  0  0
   13.6285   -3.1071   21.0185 H   0  0  0  0  0  0  0  0  0  0  0  0
   10.6163    0.7710   24.2696 H   0  0  0  0  0  0  0  0  0  0  0  0
   10.6620    1.6610   22.7472 H   0  0  0  0  0  0  0  0  0  0  0  0
    8.6688   -1.5655   20.3666 H   0  0  0  0  0  0  0  0  0  0  0  0
    7.4298   -1.1908   21.5994 H   0  0  0  0  0  0  0  0  0  0  0  0
  1  2  1  0  0  0  0
  1  3  2  0  0  0  0
  2  4  2  0  0  0  0
  3 12  1  0  0  0  0
  4 13  1  0  0  0  0
  5  7  2  0  0  0  0
  5 14  1  0  0  0  0
  6  8  1  0  0  0  0
  6 14  2  0  0  0  0
  7 15  1  0  0  0  0
  8 15  2  0  0  0  0
  9 11  1  0  0  0  0
  9 25  2  0  0  0  0
 10 11  2  0  0  0  0
 10 28  1  0  0  0  0
 11 23  1  0  0  0  0
 12 13  2  0  0  0  0
 12 26  1  0  0  0  0
 13 29  1  0  0  0  0
 14 30  1  0  0  0  0
 15 31  1  0  0  0  0
 16 24  1  0  0  0  0
 16 31  1  0  0  0  0
 16 32  2  0  0  0  0
 17 18  1  0  0  0  0
 17 19  1  0  0  0  0
 18 20  1  0  0  0  0
 19 21  1  0  0  0  0
 20 30  1  0  0  0  0
 21 30  1  0  0  0  0
 22 28  1  0  0  0  0
 23 31  1  0  0  0  0
 24 29  1  0  0  0  0
 25 28  1  0  0  0  0
 26 27  2  0  0  0  0
 27 29  1  0  0  0  0
  1 33  1  0  0  0  0
  2 34  1  0  0  0  0
  3 35  1  0  0  0  0
  4 36  1  0  0  0  0
  5 37  1  0  0  0  0
  6 38  1  0  0  0  0
  7 39  1  0  0  0  0
  8 40  1  0  0  0  0
  9 41  1  0  0  0  0
 10 42  1  0  0  0  0
 17 43  1  0  0  0  0
 17 44  1  0  0  0  0
 18 45  1  0  0  0  0
 18 46  1  0  0  0  0
 19 47  1  0  0  0  0
 19 48  1  0  0  0  0
 20 49  1  0  0  0  0
 20 50  1  0  0  0  0
 21 51  1  0  0  0  0
 21 52  1  0  0  0  0
 22 53  1  0  0  0  0
 22 54  1  0  0  0  0
 22 55  1  0  0  0  0
 23 56  1  0  0  0  0
 23 57  1  0  0  0  0
 24 58  1  0  0  0  0
 24 59  1  0  0  0  0
M  END
> <clash_score>
0

> <docking_score>
-10.303629875183105

> <overlap_score>
0.9690293073654175

$$$$
BENZO_346_1
  -OEChem-08222022473D

 59 63  0     0  0  0  0  0  0999 V2000
    3.8860    2.1050   19.5250 C   0  0  0  0  0  0  0  0  0  0  0  0
    4.2460    1.7520   20.8250 C   0  0  0  0  0  0  0  0  0  0  0  0
   13.7501   -1.1157   24.6176 C   0  0  0  0  0  0  0  0  0  0  0  0
   12.5991   -0.3339   24.5202 C   0  0  0  0  0  0  0  0  0  0  0  0
    4.6610    1.7170   18.4380 C   0  0  0  0  0  0  0  0  0  0  0  0
    5.3890    1.0010   21.0690 C   0  0  0  0  0  0  0  0  0  0  0  0
    9.1890   -3.5540   24.0140 C   0  0  0  0  0  0  0  0  0  0  0  0
    7.8700   -2.0610   25.3550 C   0  0  0  0  0  0  0  0  0  0  0  0
    9.5890   -2.4950   23.2210 C   0  0  0  0  0  0  0  0  0  0  0  0
    8.2550   -1.0010   24.5520 C   0  0  0  0  0  0  0  0  0  0  0  0
   14.2636   -1.7454   23.4838 C   0  0  0  0  0  0  0  0  0  0  0  0
   12.4750   -0.8115   22.1551 C   0  0  0  0  0  0  0  0  0  0  0  0
   11.9616   -0.1817   23.2889 C   0  0  0  0  0  0  0  0  0  0  0  0
    5.7970    0.9500   18.6730 C   0  0  0  0  0  0  0  0  0  0  0  0
    6.1460    0.6070   19.9750 C   0  0  0  0  0  0  0  0  0  0  0  0
    8.3450   -3.3440   25.0980 C   0  0  0  0  0  0  0  0  0  0  0  0
    9.1280   -1.2090   23.4870 C   0  0  0  0  0  0  0  0  0  0  0  0
   13.6261   -1.5933   22.2526 C   0  0  0  0  0  0  0  0  0  0  0  0
    9.0430    0.2380   21.4940 C   0  0  0  0  0  0  0  0  0  0  0  0
    7.5748   -4.8280   28.7278 C   0  0  0  0  0  0  0  0  0  0  0  0
    8.9776   -4.7555   28.1204 C   0  0  0  0  0  0  0  0  0  0  0  0
    6.5554   -4.0713   27.8732 C   0  0  0  0  0  0  0  0  0  0  0  0
    8.9620   -5.1961   26.6568 C   0  0  0  0  0  0  0  0  0  0  0  0
    6.6009   -4.5253   26.4110 C   0  0  0  0  0  0  0  0  0  0  0  0
   10.7220    0.6590   23.1850 C   0  0  0  0  0  0  0  0  0  0  0  0
    8.0950   -0.7700   20.8440 C   0  0  0  0  0  0  0  0  0  0  0  0
    6.7100    0.3850   17.8100 N   0  0  0  0  0  0  0  0  0  0  0  0
    7.5840   -0.2700   18.5160 N   0  0  0  0  0  0  0  0  0  0  0  0
    7.2710   -0.1460   19.8310 N   0  0  0  0  0  0  0  0  0  0  0  0
    7.9770   -4.4029   25.9162 N   0  0  0  0  0  0  0  0  0  0  0  0
    9.5820   -0.1080   22.7000 N   0  0  0  0  0  0  0  0  0  0  0  0
    9.2950    1.3000   20.9480 O   0  0  0  0  0  0  0  0  0  0  0  0
   14.2594   -2.3714   20.8543 Cl  0  0  0  0  0  0  0  0  0  0  0  0
    2.9847    2.6930   19.3611 H   0  0  0  0  0  0  0  0  0  0  0  0
    3.6232    2.0694   21.6565 H   0  0  0  0  0  0  0  0  0  0  0  0
   14.2462   -1.2340   25.5766 H   0  0  0  0  0  0  0  0  0  0  0  0
   12.2060    0.1530   25.4088 H   0  0  0  0  0  0  0  0  0  0  0  0
    4.3785    2.0112   17.4257 H   0  0  0  0  0  0  0  0  0  0  0  0
    5.6780    0.7321   22.0906 H   0  0  0  0  0  0  0  0  0  0  0  0
    9.5426   -4.5618   23.7797 H   0  0  0  0  0  0  0  0  0  0  0  0
    7.1914   -1.8824   26.1903 H   0  0  0  0  0  0  0  0  0  0  0  0
   10.2669   -2.6745   22.3854 H   0  0  0  0  0  0  0  0  0  0  0  0
    7.8690   -0.0020   24.7587 H   0  0  0  0  0  0  0  0  0  0  0  0
   15.1613   -2.3520   23.5747 H   0  0  0  0  0  0  0  0  0  0  0  0
   11.9745   -0.6893   21.1973 H   0  0  0  0  0  0  0  0  0  0  0  0
    7.2681   -5.8807   28.8239 H   0  0  0  0  0  0  0  0  0  0  0  0
    7.5891   -4.4101   29.7448 H   0  0  0  0  0  0  0  0  0  0  0  0
    9.3554   -3.7320   28.1920 H   0  0  0  0  0  0  0  0  0  0  0  0
    9.6558   -5.3943   28.6900 H   0  0  0  0  0  0  0  0  0  0  0  0
    5.5496   -4.2322   28.2751 H   0  0  0  0  0  0  0  0  0  0  0  0
    6.7545   -2.9948   27.9293 H   0  0  0  0  0  0  0  0  0  0  0  0
    9.9612   -5.0560   26.2363 H   0  0  0  0  0  0  0  0  0  0  0  0
    8.7097   -6.2583   26.5922 H   0  0  0  0  0  0  0  0  0  0  0  0
    6.2649   -5.5600   26.3335 H   0  0  0  0  0  0  0  0  0  0  0  0
    5.9271   -3.8964   25.8283 H   0  0  0  0  0  0  0  0  0  0  0  0
   10.4561    1.0772   24.1620 H   0  0  0  0  0  0  0  0  0  0  0  0
   10.8743    1.5008   22.5014 H   0  0  0  0  0  0  0  0  0  0  0  0
    8.6688   -1.5655   20.3666 H   0  0  0  0  0  0  0  0  0  0  0  0
    7.4298   -1.1908   21.5994 H   0  0  0  0  0  0  0  0  0  0  0  0
  1  2  1  0  0  0  0
  1  5  2  0  0  0  0
  2  6  2  0  0  0  0
  3  4  2  0  0  0  0
  3 11  1  0  0  0  0
  4 13  1  0  0  0  0
  5 14  1  0  0  0  0
  6 15  1  0  0  0  0
  7  9  2  0  0  0  0
  7 16  1  0  0  0  0
  8 10  1  0  0  0  0
  8 16  2  0  0  0  0
  9 17  1  0  0  0  0
 10 17  2  0  0  0  0
 11 18  2  0  0  0  0
 12 13  2  0  0  0  0
 12 18  1  0  0  0  0
 13 25  1  0  0  0  0
 14 15  2  0  0  0  0
 14 27  1  0  0  0  0
 15 29  1  0  0  0  0
 16 30  1  0  0  0  0
 17 31  1  0  0  0  0
 18 33  1  0  0  0  0
 19 26  1  0  0  0  0
 19 31  1  0  0  0  0
 19 32  2  0  0  0  0
 20 21  1  0  0  0  0
 20 22  1  0  0  0  0
 21 23  1  0  0  0  0
 22 24  1  0  0  0  0
 23 30  1  0  0  0  0
 24 30  1  0  0  0  0
 25 31  1  0  0  0  0
 26 29  1  0  0  0  0
 27 28  2  0  0  0  0
 28 29  1  0  0  0  0
  1 34  1  0  0  0  0
  2 35  1  0  0  0  0
  3 36  1  0  0  0  0
  4 37  1  0  0  0  0
  5 38  1  0  0  0  0
  6 39  1  0  0  0  0
  7 40  1  0  0  0  0
  8 41  1  0  0  0  0
  9 42  1  0  0  0  0
 10 43  1  0  0  0  0
 11 44  1  0  0  0  0
 12 45  1  0  0  0  0
 20 46  1  0  0  0  0
 20 47  1  0  0  0  0
 21 48  1  0  0  0  0
 21 49  1  0  0  0  0
 22 50  1  0  0  0  0
 22 51  1  0  0  0  0
 23 52  1  0  0  0  0
 23 53  1  0  0  0  0
 24 54  1  0  0  0  0
 24 55  1  0  0  0  0
 25 56  1  0  0  0  0
 25 57  1  0  0  0  0
 26 58  1  0  0  0  0
 26 59  1  0  0  0  0
M  END
> <clash_score>
0

> <docking_score>
-9.813559532165527

> <overlap_score>
0.9978207945823669

$$$$
BENZO_349_1
  -OEChem-08222022473D

 47 50  0     0  0  0  0  0  0999 V2000
   14.2642   -1.7450   23.4813 C   0  0  0  0  0  0  0  0  0  0  0  0
   14.0779   -0.6681   24.3480 C   0  0  0  0  0  0  0  0  0  0  0  0
   13.2991   -2.0403   22.5184 C   0  0  0  0  0  0  0  0  0  0  0  0
    3.8860    2.1050   19.5250 C   0  0  0  0  0  0  0  0  0  0  0  0
    4.2460    1.7520   20.8250 C   0  0  0  0  0  0  0  0  0  0  0  0
   12.9266    0.1135   24.2518 C   0  0  0  0  0  0  0  0  0  0  0  0
   12.1478   -1.2587   22.4222 C   0  0  0  0  0  0  0  0  0  0  0  0
    9.1890   -3.5540   24.0140 C   0  0  0  0  0  0  0  0  0  0  0  0
    7.8700   -2.0610   25.3550 C   0  0  0  0  0  0  0  0  0  0  0  0
    4.6610    1.7170   18.4380 C   0  0  0  0  0  0  0  0  0  0  0  0
    5.3890    1.0010   21.0690 C   0  0  0  0  0  0  0  0  0  0  0  0
    9.5890   -2.4950   23.2210 C   0  0  0  0  0  0  0  0  0  0  0  0
    8.2550   -1.0010   24.5520 C   0  0  0  0  0  0  0  0  0  0  0  0
    8.3450   -3.3440   25.0980 C   0  0  0  0  0  0  0  0  0  0  0  0
   11.9616   -0.1817   23.2889 C   0  0  0  0  0  0  0  0  0  0  0  0
    5.7970    0.9500   18.6730 C   0  0  0  0  0  0  0  0  0  0  0  0
    6.1460    0.6070   19.9750 C   0  0  0  0  0  0  0  0  0  0  0  0
    9.1280   -1.2090   23.4870 C   0  0  0  0  0  0  0  0  0  0  0  0
    9.0430    0.2380   21.4940 C   0  0  0  0  0  0  0  0  0  0  0  0
    7.9522   -4.4794   25.9764 C   0  0  0  0  0  0  0  0  0  0  0  0
   10.7220    0.6590   23.1850 C   0  0  0  0  0  0  0  0  0  0  0  0
    8.0950   -0.7700   20.8440 C   0  0  0  0  0  0  0  0  0  0  0  0
    6.7100    0.3850   17.8100 N   0  0  0  0  0  0  0  0  0  0  0  0
    7.5840   -0.2700   18.5160 N   0  0  0  0  0  0  0  0  0  0  0  0
    7.2710   -0.1460   19.8310 N   0  0  0  0  0  0  0  0  0  0  0  0
    9.5820   -0.1080   22.7000 N   0  0  0  0  0  0  0  0  0  0  0  0
    9.2950    1.3000   20.9480 O   0  0  0  0  0  0  0  0  0  0  0  0
   15.1613   -2.3527   23.5555 H   0  0  0  0  0  0  0  0  0  0  0  0
   14.8297   -0.4373   25.0971 H   0  0  0  0  0  0  0  0  0  0  0  0
   13.4443   -2.8780   21.8427 H   0  0  0  0  0  0  0  0  0  0  0  0
    2.9847    2.6930   19.3611 H   0  0  0  0  0  0  0  0  0  0  0  0
    3.6232    2.0694   21.6565 H   0  0  0  0  0  0  0  0  0  0  0  0
   12.7899    0.9506   24.9315 H   0  0  0  0  0  0  0  0  0  0  0  0
   11.4013   -1.4963   21.6690 H   0  0  0  0  0  0  0  0  0  0  0  0
    9.5403   -4.5627   23.7809 H   0  0  0  0  0  0  0  0  0  0  0  0
    7.1911   -1.8848   26.1904 H   0  0  0  0  0  0  0  0  0  0  0  0
    4.3785    2.0112   17.4257 H   0  0  0  0  0  0  0  0  0  0  0  0
    5.6780    0.7321   22.0906 H   0  0  0  0  0  0  0  0  0  0  0  0
   10.2682   -2.6746   22.3865 H   0  0  0  0  0  0  0  0  0  0  0  0
    7.8684   -0.0022   24.7594 H   0  0  0  0  0  0  0  0  0  0  0  0
    8.6668   -4.5891   26.8013 H   0  0  0  0  0  0  0  0  0  0  0  0
    6.9513   -4.3276   26.4010 H   0  0  0  0  0  0  0  0  0  0  0  0
    7.9196   -5.4231   25.4163 H   0  0  0  0  0  0  0  0  0  0  0  0
   10.4561    1.0772   24.1620 H   0  0  0  0  0  0  0  0  0  0  0  0
   10.8743    1.5008   22.5014 H   0  0  0  0  0  0  0  0  0  0  0  0
    8.6619   -1.5627   20.3589 H   0  0  0  0  0  0  0  0  0  0  0  0
    7.4230   -1.1880   21.5916 H   0  0  0  0  0  0  0  0  0  0  0  0
  1  2  1  0  0  0  0
  1  3  2  0  0  0  0
  2  6  2  0  0  0  0
  3  7  1  0  0  0  0
  4  5  1  0  0  0  0
  4 10  2  0  0  0  0
  5 11  2  0  0  0  0
  6 15  1  0  0  0  0
  7 15  2  0  0  0  0
  8 12  2  0  0  0  0
  8 14  1  0  0  0  0
  9 13  1  0  0  0  0
  9 14  2  0  0  0  0
 10 16  1  0  0  0  0
 11 17  1  0  0  0  0
 12 18  1  0  0  0  0
 13 18  2  0  0  0  0
 14 20  1  0  0  0  0
 15 21  1  0  0  0  0
 16 17  2  0  0  0  0
 16 23  1  0  0  0  0
 17 25  1  0  0  0  0
 18 26  1  0  0  0  0
 19 22  1  0  0  0  0
 19 26  1  0  0  0  0
 19 27  2  0  0  0  0
 21 26  1  0  0  0  0
 22 25  1  0  0  0  0
 23 24  2  0  0  0  0
 24 25  1  0  0  0  0
  1 28  1  0  0  0  0
  2 29  1  0  0  0  0
  3 30  1  0  0  0  0
  4 31  1  0  0  0  0
  5 32  1  0  0  0  0
  6 33  1  0  0  0  0
  7 34  1  0  0  0  0
  8 35  1  0  0  0  0
  9 36  1  0  0  0  0
 10 37  1  0  0  0  0
 11 38  1  0  0  0  0
 12 39  1  0  0  0  0
 13 40  1  0  0  0  0
 20 41  1  0  0  0  0
 20 42  1  0  0  0  0
 20 43  1  0  0  0  0
 21 44  1  0  0  0  0
 21 45  1  0  0  0  0
 22 46  1  0  0  0  0
 22 47  1  0  0  0  0
M  END
> <clash_score>
0

> <docking_score>
-9.958571434020996

> <overlap_score>
0.9021971225738525

$$$$
BENZO_348_1
  -OEChem-08222022473D

 44 47  0     0  0  0  0  0  0999 V2000
    3.8860    2.1050   19.5250 C   0  0  0  0  0  0  0  0  0  0  0  0
    4.2460    1.7520   20.8250 C   0  0  0  0  0  0  0  0  0  0  0  0
    9.1890   -3.5540   24.0140 C   0  0  0  0  0  0  0  0  0  0  0  0
    7.8700   -2.0610   25.3550 C   0  0  0  0  0  0  0  0  0  0  0  0
    4.6610    1.7170   18.4380 C   0  0  0  0  0  0  0  0  0  0  0  0
    5.3890    1.0010   21.0690 C   0  0  0  0  0  0  0  0  0  0  0  0
    9.5890   -2.4950   23.2210 C   0  0  0  0  0  0  0  0  0  0  0  0
    8.2550   -1.0010   24.5520 C   0  0  0  0  0  0  0  0  0  0  0  0
   12.6785   -0.3936   24.5018 C   0  0  0  0  0  0  0  0  0  0  0  0
   13.7775   -1.2037   24.3186 C   0  0  0  0  0  0  0  0  0  0  0  0
   12.5401   -0.8378   22.2246 C   0  0  0  0  0  0  0  0  0  0  0  0
    8.3450   -3.3440   25.0980 C   0  0  0  0  0  0  0  0  0  0  0  0
   11.9616   -0.1817   23.2889 C   0  0  0  0  0  0  0  0  0  0  0  0
    5.7970    0.9500   18.6730 C   0  0  0  0  0  0  0  0  0  0  0  0
    6.1460    0.6070   19.9750 C   0  0  0  0  0  0  0  0  0  0  0  0
    9.1280   -1.2090   23.4870 C   0  0  0  0  0  0  0  0  0  0  0  0
    9.0430    0.2380   21.4940 C   0  0  0  0  0  0  0  0  0  0  0  0
    7.9522   -4.4794   25.9764 C   0  0  0  0  0  0  0  0  0  0  0  0
   10.7220    0.6590   23.1850 C   0  0  0  0  0  0  0  0  0  0  0  0
    8.0950   -0.7700   20.8440 C   0  0  0  0  0  0  0  0  0  0  0  0
    6.7100    0.3850   17.8100 N   0  0  0  0  0  0  0  0  0  0  0  0
    7.5840   -0.2700   18.5160 N   0  0  0  0  0  0  0  0  0  0  0  0
    7.2710   -0.1460   19.8310 N   0  0  0  0  0  0  0  0  0  0  0  0
    9.5820   -0.1080   22.7000 N   0  0  0  0  0  0  0  0  0  0  0  0
    9.2950    1.3000   20.9480 O   0  0  0  0  0  0  0  0  0  0  0  0
   13.9416   -1.7050   22.6894 S   0  0  0  0  0  0  0  0  0  0  0  0
    2.9847    2.6930   19.3611 H   0  0  0  0  0  0  0  0  0  0  0  0
    3.6232    2.0694   21.6565 H   0  0  0  0  0  0  0  0  0  0  0  0
    9.5403   -4.5627   23.7809 H   0  0  0  0  0  0  0  0  0  0  0  0
    7.1911   -1.8848   26.1904 H   0  0  0  0  0  0  0  0  0  0  0  0
    4.3785    2.0112   17.4257 H   0  0  0  0  0  0  0  0  0  0  0  0
    5.6780    0.7321   22.0906 H   0  0  0  0  0  0  0  0  0  0  0  0
   10.2682   -2.6746   22.3865 H   0  0  0  0  0  0  0  0  0  0  0  0
    7.8684   -0.0022   24.7594 H   0  0  0  0  0  0  0  0  0  0  0  0
   12.4058    0.0253   25.4623 H   0  0  0  0  0  0  0  0  0  0  0  0
   14.4923   -1.5245   25.0631 H   0  0  0  0  0  0  0  0  0  0  0  0
   12.2108   -0.8511   21.1948 H   0  0  0  0  0  0  0  0  0  0  0  0
    8.6668   -4.5891   26.8013 H   0  0  0  0  0  0  0  0  0  0  0  0
    6.9513   -4.3276   26.4010 H   0  0  0  0  0  0  0  0  0  0  0  0
    7.9196   -5.4231   25.4163 H   0  0  0  0  0  0  0  0  0  0  0  0
   10.4561    1.0772   24.1620 H   0  0  0  0  0  0  0  0  0  0  0  0
   10.8743    1.5008   22.5014 H   0  0  0  0  0  0  0  0  0  0  0  0
    8.6619   -1.5627   20.3589 H   0  0  0  0  0  0  0  0  0  0  0  0
    7.4230   -1.1880   21.5916 H   0  0  0  0  0  0  0  0  0  0  0  0
  1  2  1  0  0  0  0
  1  5  2  0  0  0  0
  2  6  2  0  0  0  0
  3  7  2  0  0  0  0
  3 12  1  0  0  0  0
  4  8  1  0  0  0  0
  4 12  2  0  0  0  0
  5 14  1  0  0  0  0
  6 15  1  0  0  0  0
  7 16  1  0  0  0  0
  8 16  2  0  0  0  0
  9 10  2  0  0  0  0
  9 13  1  0  0  0  0
 10 26  1  0  0  0  0
 11 13  2  0  0  0  0
 11 26  1  0  0  0  0
 12 18  1  0  0  0  0
 13 19  1  0  0  0  0
 14 15  2  0  0  0  0
 14 21  1  0  0  0  0
 15 23  1  0  0  0  0
 16 24  1  0  0  0  0
 17 20  1  0  0  0  0
 17 24  1  0  0  0  0
 17 25  2  0  0  0  0
 19 24  1  0  0  0  0
 20 23  1  0  0  0  0
 21 22  2  0  0  0  0
 22 23  1  0  0  0  0
  1 27  1  0  0  0  0
  2 28  1  0  0  0  0
  3 29  1  0  0  0  0
  4 30  1  0  0  0  0
  5 31  1  0  0  0  0
  6 32  1  0  0  0  0
  7 33  1  0  0  0  0
  8 34  1  0  0  0  0
  9 35  1  0  0  0  0
 10 36  1  0  0  0  0
 11 37  1  0  0  0  0
 18 38  1  0  0  0  0
 18 39  1  0  0  0  0
 18 40  1  0  0  0  0
 19 41  1  0  0  0  0
 19 42  1  0  0  0  0
 20 43  1  0  0  0  0
 20 44  1  0  0  0  0
M  END
> <clash_score>
0

> <docking_score>
-9.399247169494629

> <overlap_score>
0.8884325623512268

$$$$
BENZO_351_1
  -OEChem-08222022473D

 47 50  0     0  0  0  0  0  0999 V2000
    3.8860    2.1050   19.5250 C   0  0  0  0  0  0  0  0  0  0  0  0
    4.2460    1.7520   20.8250 C   0  0  0  0  0  0  0  0  0  0  0  0
    9.1890   -3.5540   24.0140 C   0  0  0  0  0  0  0  0  0  0  0  0
    7.8700   -2.0610   25.3550 C   0  0  0  0  0  0  0  0  0  0  0  0
    4.6610    1.7170   18.4380 C   0  0  0  0  0  0  0  0  0  0  0  0
    5.3890    1.0010   21.0690 C   0  0  0  0  0  0  0  0  0  0  0  0
    9.5890   -2.4950   23.2210 C   0  0  0  0  0  0  0  0  0  0  0  0
    8.2550   -1.0010   24.5520 C   0  0  0  0  0  0  0  0  0  0  0  0
   12.7320   -0.4464   24.4370 C   0  0  0  0  0  0  0  0  0  0  0  0
   12.5970   -0.8682   22.2832 C   0  0  0  0  0  0  0  0  0  0  0  0
    8.3450   -3.3440   25.0980 C   0  0  0  0  0  0  0  0  0  0  0  0
   11.9616   -0.1817   23.2889 C   0  0  0  0  0  0  0  0  0  0  0  0
    5.7970    0.9500   18.6730 C   0  0  0  0  0  0  0  0  0  0  0  0
    6.1460    0.6070   19.9750 C   0  0  0  0  0  0  0  0  0  0  0  0
    9.1280   -1.2090   23.4870 C   0  0  0  0  0  0  0  0  0  0  0  0
    9.0430    0.2380   21.4940 C   0  0  0  0  0  0  0  0  0  0  0  0
    7.9522   -4.4794   25.9764 C   0  0  0  0  0  0  0  0  0  0  0  0
   14.6393   -2.3180   22.2082 C   0  0  0  0  0  0  0  0  0  0  0  0
   10.7220    0.6590   23.1850 C   0  0  0  0  0  0  0  0  0  0  0  0
    8.0950   -0.7700   20.8440 C   0  0  0  0  0  0  0  0  0  0  0  0
   13.7770   -1.2393   24.1852 N   0  0  0  0  0  0  0  0  0  0  0  0
    6.7100    0.3850   17.8100 N   0  0  0  0  0  0  0  0  0  0  0  0
    7.5840   -0.2700   18.5160 N   0  0  0  0  0  0  0  0  0  0  0  0
   13.6676   -1.4788   22.8673 N   0  0  0  0  0  0  0  0  0  0  0  0
    7.2710   -0.1460   19.8310 N   0  0  0  0  0  0  0  0  0  0  0  0
    9.5820   -0.1080   22.7000 N   0  0  0  0  0  0  0  0  0  0  0  0
    9.2950    1.3000   20.9480 O   0  0  0  0  0  0  0  0  0  0  0  0
    2.9847    2.6930   19.3611 H   0  0  0  0  0  0  0  0  0  0  0  0
    3.6232    2.0694   21.6565 H   0  0  0  0  0  0  0  0  0  0  0  0
    9.5403   -4.5627   23.7809 H   0  0  0  0  0  0  0  0  0  0  0  0
    7.1911   -1.8848   26.1904 H   0  0  0  0  0  0  0  0  0  0  0  0
    4.3785    2.0112   17.4257 H   0  0  0  0  0  0  0  0  0  0  0  0
    5.6780    0.7321   22.0906 H   0  0  0  0  0  0  0  0  0  0  0  0
   10.2682   -2.6746   22.3865 H   0  0  0  0  0  0  0  0  0  0  0  0
    7.8684   -0.0022   24.7594 H   0  0  0  0  0  0  0  0  0  0  0  0
   12.5771   -0.0965   25.4478 H   0  0  0  0  0  0  0  0  0  0  0  0
   12.3832   -0.9726   21.2281 H   0  0  0  0  0  0  0  0  0  0  0  0
    8.6668   -4.5891   26.8013 H   0  0  0  0  0  0  0  0  0  0  0  0
    6.9513   -4.3276   26.4010 H   0  0  0  0  0  0  0  0  0  0  0  0
    7.9196   -5.4231   25.4163 H   0  0  0  0  0  0  0  0  0  0  0  0
   15.4522   -1.6787   21.8540 H   0  0  0  0  0  0  0  0  0  0  0  0
   15.0179   -3.0612   22.9154 H   0  0  0  0  0  0  0  0  0  0  0  0
   14.1626   -2.8324   21.3691 H   0  0  0  0  0  0  0  0  0  0  0  0
   10.4561    1.0772   24.1620 H   0  0  0  0  0  0  0  0  0  0  0  0
   10.8743    1.5008   22.5014 H   0  0  0  0  0  0  0  0  0  0  0  0
    8.6619   -1.5627   20.3589 H   0  0  0  0  0  0  0  0  0  0  0  0
    7.4230   -1.1880   21.5916 H   0  0  0  0  0  0  0  0  0  0  0  0
  1  2  1  0  0  0  0
  1  5  2  0  0  0  0
  2  6  2  0  0  0  0
  3  7  2  0  0  0  0
  3 11  1  0  0  0  0
  4  8  1  0  0  0  0
  4 11  2  0  0  0  0
  5 13  1  0  0  0  0
  6 14  1  0  0  0  0
  7 15  1  0  0  0  0
  8 15  2  0  0  0  0
  9 12  1  0  0  0  0
  9 21  2  0  0  0  0
 10 12  2  0  0  0  0
 10 24  1  0  0  0  0
 11 17  1  0  0  0  0
 12 19  1  0  0  0  0
 13 14  2  0  0  0  0
 13 22  1  0  0  0  0
 14 25  1  0  0  0  0
 15 26  1  0  0  0  0
 16 20  1  0  0  0  0
 16 26  1  0  0  0  0
 16 27  2  0  0  0  0
 18 24  1  0  0  0  0
 19 26  1  0  0  0  0
 20 25  1  0  0  0  0
 21 24  1  0  0  0  0
 22 23  2  0  0  0  0
 23 25  1  0  0  0  0
  1 28  1  0  0  0  0
  2 29  1  0  0  0  0
  3 30  1  0  0  0  0
  4 31  1  0  0  0  0
  5 32  1  0  0  0  0
  6 33  1  0  0  0  0
  7 34  1  0  0  0  0
  8 35  1  0  0  0  0
  9 36  1  0  0  0  0
 10 37  1  0  0  0  0
 17 38  1  0  0  0  0
 17 39  1  0  0  0  0
 17 40  1  0  0  0  0
 18 41  1  0  0  0  0
 18 42  1  0  0  0  0
 18 43  1  0  0  0  0
 19 44  1  0  0  0  0
 19 45  1  0  0  0  0
 20 46  1  0  0  0  0
 20 47  1  0  0  0  0
M  END
> <clash_score>
0

> <docking_score>
-8.14847183227539

> <overlap_score>
0.9054273366928101

$$$$
BENZO_350_1
  -OEChem-08222022473D

 47 50  0     0  0  0  0  0  0999 V2000
    3.8860    2.1050   19.5250 C   0  0  0  0  0  0  0  0  0  0  0  0
    4.2460    1.7520   20.8250 C   0  0  0  0  0  0  0  0  0  0  0  0
   13.7501   -1.1157   24.6176 C   0  0  0  0  0  0  0  0  0  0  0  0
   12.5991   -0.3339   24.5202 C   0  0  0  0  0  0  0  0  0  0  0  0
    9.1890   -3.5540   24.0140 C   0  0  0  0  0  0  0  0  0  0  0  0
    7.8700   -2.0610   25.3550 C   0  0  0  0  0  0  0  0  0  0  0  0
    4.6610    1.7170   18.4380 C   0  0  0  0  0  0  0  0  0  0  0  0
    5.3890    1.0010   21.0690 C   0  0  0  0  0  0  0  0  0  0  0  0
    9.5890   -2.4950   23.2210 C   0  0  0  0  0  0  0  0  0  0  0  0
    8.2550   -1.0010   24.5520 C   0  0  0  0  0  0  0  0  0  0  0  0
   14.2636   -1.7454   23.4838 C   0  0  0  0  0  0  0  0  0  0  0  0
   12.4750   -0.8115   22.1551 C   0  0  0  0  0  0  0  0  0  0  0  0
    8.3450   -3.3440   25.0980 C   0  0  0  0  0  0  0  0  0  0  0  0
   11.9616   -0.1817   23.2889 C   0  0  0  0  0  0  0  0  0  0  0  0
    5.7970    0.9500   18.6730 C   0  0  0  0  0  0  0  0  0  0  0  0
    6.1460    0.6070   19.9750 C   0  0  0  0  0  0  0  0  0  0  0  0
    9.1280   -1.2090   23.4870 C   0  0  0  0  0  0  0  0  0  0  0  0
   13.6261   -1.5933   22.2526 C   0  0  0  0  0  0  0  0  0  0  0  0
    9.0430    0.2380   21.4940 C   0  0  0  0  0  0  0  0  0  0  0  0
    7.9522   -4.4794   25.9764 C   0  0  0  0  0  0  0  0  0  0  0  0
   10.7220    0.6590   23.1850 C   0  0  0  0  0  0  0  0  0  0  0  0
    8.0950   -0.7700   20.8440 C   0  0  0  0  0  0  0  0  0  0  0  0
    6.7100    0.3850   17.8100 N   0  0  0  0  0  0  0  0  0  0  0  0
    7.5840   -0.2700   18.5160 N   0  0  0  0  0  0  0  0  0  0  0  0
    7.2710   -0.1460   19.8310 N   0  0  0  0  0  0  0  0  0  0  0  0
    9.5820   -0.1080   22.7000 N   0  0  0  0  0  0  0  0  0  0  0  0
    9.2950    1.3000   20.9480 O   0  0  0  0  0  0  0  0  0  0  0  0
   14.2594   -2.3714   20.8543 Cl  0  0  0  0  0  0  0  0  0  0  0  0
    2.9847    2.6930   19.3611 H   0  0  0  0  0  0  0  0  0  0  0  0
    3.6232    2.0694   21.6565 H   0  0  0  0  0  0  0  0  0  0  0  0
   14.2462   -1.2340   25.5766 H   0  0  0  0  0  0  0  0  0  0  0  0
   12.2060    0.1530   25.4088 H   0  0  0  0  0  0  0  0  0  0  0  0
    9.5403   -4.5627   23.7809 H   0  0  0  0  0  0  0  0  0  0  0  0
    7.1911   -1.8848   26.1904 H   0  0  0  0  0  0  0  0  0  0  0  0
    4.3785    2.0112   17.4257 H   0  0  0  0  0  0  0  0  0  0  0  0
    5.6780    0.7321   22.0906 H   0  0  0  0  0  0  0  0  0  0  0  0
   10.2682   -2.6746   22.3865 H   0  0  0  0  0  0  0  0  0  0  0  0
    7.8684   -0.0022   24.7594 H   0  0  0  0  0  0  0  0  0  0  0  0
   15.1613   -2.3520   23.5748 H   0  0  0  0  0  0  0  0  0  0  0  0
   11.9745   -0.6893   21.1973 H   0  0  0  0  0  0  0  0  0  0  0  0
    8.6668   -4.5891   26.8013 H   0  0  0  0  0  0  0  0  0  0  0  0
    6.9513   -4.3276   26.4010 H   0  0  0  0  0  0  0  0  0  0  0  0
    7.9196   -5.4231   25.4163 H   0  0  0  0  0  0  0  0  0  0  0  0
   10.4561    1.0772   24.1620 H   0  0  0  0  0  0  0  0  0  0  0  0
   10.8743    1.5008   22.5014 H   0  0  0  0  0  0  0  0  0  0  0  0
    8.6619   -1.5627   20.3589 H   0  0  0  0  0  0  0  0  0  0  0  0
    7.4230   -1.1880   21.5916 H   0  0  0  0  0  0  0  0  0  0  0  0
  1  2  1  0  0  0  0
  1  7  2  0  0  0  0
  2  8  2  0  0  0  0
  3  4  2  0  0  0  0
  3 11  1  0  0  0  0
  4 14  1  0  0  0  0
  5  9  2  0  0  0  0
  5 13  1  0  0  0  0
  6 10  1  0  0  0  0
  6 13  2  0  0  0  0
  7 15  1  0  0  0  0
  8 16  1  0  0  0  0
  9 17  1  0  0  0  0
 10 17  2  0  0  0  0
 11 18  2  0  0  0  0
 12 14  2  0  0  0  0
 12 18  1  0  0  0  0
 13 20  1  0  0  0  0
 14 21  1  0  0  0  0
 15 16  2  0  0  0  0
 15 23  1  0  0  0  0
 16 25  1  0  0  0  0
 17 26  1  0  0  0  0
 18 28  1  0  0  0  0
 19 22  1  0  0  0  0
 19 26  1  0  0  0  0
 19 27  2  0  0  0  0
 21 26  1  0  0  0  0
 22 25  1  0  0  0  0
 23 24  2  0  0  0  0
 24 25  1  0  0  0  0
  1 29  1  0  0  0  0
  2 30  1  0  0  0  0
  3 31  1  0  0  0  0
  4 32  1  0  0  0  0
  5 33  1  0  0  0  0
  6 34  1  0  0  0  0
  7 35  1  0  0  0  0
  8 36  1  0  0  0  0
  9 37  1  0  0  0  0
 10 38  1  0  0  0  0
 11 39  1  0  0  0  0
 12 40  1  0  0  0  0
 20 41  1  0  0  0  0
 20 42  1  0  0  0  0
 20 43  1  0  0  0  0
 21 44  1  0  0  0  0
 21 45  1  0  0  0  0
 22 46  1  0  0  0  0
 22 47  1  0  0  0  0
M  END
> <clash_score>
0

> <docking_score>
-8.912445068359375

> <overlap_score>
0.9100707769393921

$$$$
BENZO_353_1
  -OEChem-08222022473D

 48 51  0     0  0  0  0  0  0999 V2000
   14.2642   -1.7450   23.4813 C   0  0  0  0  0  0  0  0  0  0  0  0
   14.0779   -0.6681   24.3480 C   0  0  0  0  0  0  0  0  0  0  0  0
   13.2991   -2.0403   22.5184 C   0  0  0  0  0  0  0  0  0  0  0  0
    3.8860    2.1050   19.5250 C   0  0  0  0  0  0  0  0  0  0  0  0
    4.2460    1.7520   20.8250 C   0  0  0  0  0  0  0  0  0  0  0  0
   12.9266    0.1135   24.2518 C   0  0  0  0  0  0  0  0  0  0  0  0
   12.1478   -1.2587   22.4222 C   0  0  0  0  0  0  0  0  0  0  0  0
    4.6610    1.7170   18.4380 C   0  0  0  0  0  0  0  0  0  0  0  0
    5.3890    1.0010   21.0690 C   0  0  0  0  0  0  0  0  0  0  0  0
    9.5890   -2.4950   23.2210 C   0  0  0  0  0  0  0  0  0  0  0  0
    8.2550   -1.0010   24.5520 C   0  0  0  0  0  0  0  0  0  0  0  0
    9.1890   -3.5540   24.0140 C   0  0  0  0  0  0  0  0  0  0  0  0
    7.8700   -2.0610   25.3550 C   0  0  0  0  0  0  0  0  0  0  0  0
   11.9616   -0.1817   23.2889 C   0  0  0  0  0  0  0  0  0  0  0  0
    5.7970    0.9500   18.6730 C   0  0  0  0  0  0  0  0  0  0  0  0
    6.1460    0.6070   19.9750 C   0  0  0  0  0  0  0  0  0  0  0  0
    9.1280   -1.2090   23.4870 C   0  0  0  0  0  0  0  0  0  0  0  0
    8.3450   -3.3440   25.0980 C   0  0  0  0  0  0  0  0  0  0  0  0
    9.0430    0.2380   21.4940 C   0  0  0  0  0  0  0  0  0  0  0  0
    8.5124   -5.6657   25.5743 C   0  0  0  0  0  0  0  0  0  0  0  0
   10.7220    0.6590   23.1850 C   0  0  0  0  0  0  0  0  0  0  0  0
    8.0950   -0.7700   20.8440 C   0  0  0  0  0  0  0  0  0  0  0  0
    6.7100    0.3850   17.8100 N   0  0  0  0  0  0  0  0  0  0  0  0
    7.5840   -0.2700   18.5160 N   0  0  0  0  0  0  0  0  0  0  0  0
    7.2710   -0.1460   19.8310 N   0  0  0  0  0  0  0  0  0  0  0  0
    9.5820   -0.1080   22.7000 N   0  0  0  0  0  0  0  0  0  0  0  0
    9.2950    1.3000   20.9480 O   0  0  0  0  0  0  0  0  0  0  0  0
    7.9864   -4.3799   25.8996 O   0  0  0  0  0  0  0  0  0  0  0  0
   15.1613   -2.3527   23.5555 H   0  0  0  0  0  0  0  0  0  0  0  0
   14.8297   -0.4373   25.0971 H   0  0  0  0  0  0  0  0  0  0  0  0
   13.4443   -2.8780   21.8427 H   0  0  0  0  0  0  0  0  0  0  0  0
    2.9847    2.6930   19.3611 H   0  0  0  0  0  0  0  0  0  0  0  0
    3.6232    2.0694   21.6565 H   0  0  0  0  0  0  0  0  0  0  0  0
   12.7899    0.9506   24.9315 H   0  0  0  0  0  0  0  0  0  0  0  0
   11.4013   -1.4963   21.6690 H   0  0  0  0  0  0  0  0  0  0  0  0
    4.3785    2.0112   17.4257 H   0  0  0  0  0  0  0  0  0  0  0  0
    5.6780    0.7321   22.0906 H   0  0  0  0  0  0  0  0  0  0  0  0
   10.2678   -2.6746   22.3862 H   0  0  0  0  0  0  0  0  0  0  0  0
    7.8691   -0.0023   24.7606 H   0  0  0  0  0  0  0  0  0  0  0  0
    9.5404   -4.5633   23.7846 H   0  0  0  0  0  0  0  0  0  0  0  0
    7.1920   -1.8875   26.1914 H   0  0  0  0  0  0  0  0  0  0  0  0
    8.1469   -6.4023   26.2940 H   0  0  0  0  0  0  0  0  0  0  0  0
    9.6045   -5.6298   25.5962 H   0  0  0  0  0  0  0  0  0  0  0  0
    8.1789   -5.9428   24.5715 H   0  0  0  0  0  0  0  0  0  0  0  0
   10.4561    1.0772   24.1620 H   0  0  0  0  0  0  0  0  0  0  0  0
   10.8743    1.5008   22.5014 H   0  0  0  0  0  0  0  0  0  0  0  0
    8.6619   -1.5627   20.3589 H   0  0  0  0  0  0  0  0  0  0  0  0
    7.4230   -1.1880   21.5916 H   0  0  0  0  0  0  0  0  0  0  0  0
  1  2  1  0  0  0  0
  1  3  2  0  0  0  0
  2  6  2  0  0  0  0
  3  7  1  0  0  0  0
  4  5  1  0  0  0  0
  4  8  2  0  0  0  0
  5  9  2  0  0  0  0
  6 14  1  0  0  0  0
  7 14  2  0  0  0  0
  8 15  1  0  0  0  0
  9 16  1  0  0  0  0
 10 12  2  0  0  0  0
 10 17  1  0  0  0  0
 11 13  1  0  0  0  0
 11 17  2  0  0  0  0
 12 18  1  0  0  0  0
 13 18  2  0  0  0  0
 14 21  1  0  0  0  0
 15 16  2  0  0  0  0
 15 23  1  0  0  0  0
 16 25  1  0  0  0  0
 17 26  1  0  0  0  0
 18 28  1  0  0  0  0
 19 22  1  0  0  0  0
 19 26  1  0  0  0  0
 19 27  2  0  0  0  0
 20 28  1  0  0  0  0
 21 26  1  0  0  0  0
 22 25  1  0  0  0  0
 23 24  2  0  0  0  0
 24 25  1  0  0  0  0
  1 29  1  0  0  0  0
  2 30  1  0  0  0  0
  3 31  1  0  0  0  0
  4 32  1  0  0  0  0
  5 33  1  0  0  0  0
  6 34  1  0  0  0  0
  7 35  1  0  0  0  0
  8 36  1  0  0  0  0
  9 37  1  0  0  0  0
 10 38  1  0  0  0  0
 11 39  1  0  0  0  0
 12 40  1  0  0  0  0
 13 41  1  0  0  0  0
 20 42  1  0  0  0  0
 20 43  1  0  0  0  0
 20 44  1  0  0  0  0
 21 45  1  0  0  0  0
 21 46  1  0  0  0  0
 22 47  1  0  0  0  0
 22 48  1  0  0  0  0
M  END
> <clash_score>
0

> <docking_score>
-10.078766822814941

> <overlap_score>
0.9154632687568665

$$$$
BENZO_352_1
  -OEChem-08222022473D

 45 48  0     0  0  0  0  0  0999 V2000
    3.8860    2.1050   19.5250 C   0  0  0  0  0  0  0  0  0  0  0  0
    4.2460    1.7520   20.8250 C   0  0  0  0  0  0  0  0  0  0  0  0
    4.6610    1.7170   18.4380 C   0  0  0  0  0  0  0  0  0  0  0  0
    5.3890    1.0010   21.0690 C   0  0  0  0  0  0  0  0  0  0  0  0
    9.5890   -2.4950   23.2210 C   0  0  0  0  0  0  0  0  0  0  0  0
    8.2550   -1.0010   24.5520 C   0  0  0  0  0  0  0  0  0  0  0  0
    9.1890   -3.5540   24.0140 C   0  0  0  0  0  0  0  0  0  0  0  0
    7.8700   -2.0610   25.3550 C   0  0  0  0  0  0  0  0  0  0  0  0
   12.5566   -0.8597   22.1860 C   0  0  0  0  0  0  0  0  0  0  0  0
   13.6839   -1.5596   22.5559 C   0  0  0  0  0  0  0  0  0  0  0  0
   12.6568   -0.3896   24.4600 C   0  0  0  0  0  0  0  0  0  0  0  0
   11.9616   -0.1817   23.2889 C   0  0  0  0  0  0  0  0  0  0  0  0
    5.7970    0.9500   18.6730 C   0  0  0  0  0  0  0  0  0  0  0  0
    6.1460    0.6070   19.9750 C   0  0  0  0  0  0  0  0  0  0  0  0
    9.1280   -1.2090   23.4870 C   0  0  0  0  0  0  0  0  0  0  0  0
    8.3450   -3.3440   25.0980 C   0  0  0  0  0  0  0  0  0  0  0  0
    9.0430    0.2380   21.4940 C   0  0  0  0  0  0  0  0  0  0  0  0
    8.5124   -5.6657   25.5743 C   0  0  0  0  0  0  0  0  0  0  0  0
   10.7220    0.6590   23.1850 C   0  0  0  0  0  0  0  0  0  0  0  0
    8.0950   -0.7700   20.8440 C   0  0  0  0  0  0  0  0  0  0  0  0
    6.7100    0.3850   17.8100 N   0  0  0  0  0  0  0  0  0  0  0  0
    7.5840   -0.2700   18.5160 N   0  0  0  0  0  0  0  0  0  0  0  0
    7.2710   -0.1460   19.8310 N   0  0  0  0  0  0  0  0  0  0  0  0
    9.5820   -0.1080   22.7000 N   0  0  0  0  0  0  0  0  0  0  0  0
    9.2950    1.3000   20.9480 O   0  0  0  0  0  0  0  0  0  0  0  0
    7.9864   -4.3799   25.8996 O   0  0  0  0  0  0  0  0  0  0  0  0
   14.0209   -1.3981   24.2270 S   0  0  0  0  0  0  0  0  0  0  0  0
    2.9847    2.6930   19.3611 H   0  0  0  0  0  0  0  0  0  0  0  0
    3.6232    2.0694   21.6565 H   0  0  0  0  0  0  0  0  0  0  0  0
    4.3785    2.0112   17.4257 H   0  0  0  0  0  0  0  0  0  0  0  0
    5.6780    0.7321   22.0906 H   0  0  0  0  0  0  0  0  0  0  0  0
   10.2678   -2.6746   22.3862 H   0  0  0  0  0  0  0  0  0  0  0  0
    7.8691   -0.0023   24.7606 H   0  0  0  0  0  0  0  0  0  0  0  0
    9.5404   -4.5633   23.7846 H   0  0  0  0  0  0  0  0  0  0  0  0
    7.1920   -1.8875   26.1914 H   0  0  0  0  0  0  0  0  0  0  0  0
   12.1799   -0.8381   21.1711 H   0  0  0  0  0  0  0  0  0  0  0  0
   14.3253   -2.1586   21.9250 H   0  0  0  0  0  0  0  0  0  0  0  0
   12.4317   -0.0003   25.4433 H   0  0  0  0  0  0  0  0  0  0  0  0
    8.1469   -6.4023   26.2940 H   0  0  0  0  0  0  0  0  0  0  0  0
    9.6045   -5.6298   25.5962 H   0  0  0  0  0  0  0  0  0  0  0  0
    8.1789   -5.9428   24.5715 H   0  0  0  0  0  0  0  0  0  0  0  0
   10.4561    1.0772   24.1620 H   0  0  0  0  0  0  0  0  0  0  0  0
   10.8743    1.5008   22.5014 H   0  0  0  0  0  0  0  0  0  0  0  0
    8.6619   -1.5627   20.3589 H   0  0  0  0  0  0  0  0  0  0  0  0
    7.4230   -1.1880   21.5916 H   0  0  0  0  0  0  0  0  0  0  0  0
  1  2  1  0  0  0  0
  1  3  2  0  0  0  0
  2  4  2  0  0  0  0
  3 13  1  0  0  0  0
  4 14  1  0  0  0  0
  5  7  2  0  0  0  0
  5 15  1  0  0  0  0
  6  8  1  0  0  0  0
  6 15  2  0  0  0  0
  7 16  1  0  0  0  0
  8 16  2  0  0  0  0
  9 10  2  0  0  0  0
  9 12  1  0  0  0  0
 10 27  1  0  0  0  0
 11 12  2  0  0  0  0
 11 27  1  0  0  0  0
 12 19  1  0  0  0  0
 13 14  2  0  0  0  0
 13 21  1  0  0  0  0
 14 23  1  0  0  0  0
 15 24  1  0  0  0  0
 16 26  1  0  0  0  0
 17 20  1  0  0  0  0
 17 24  1  0  0  0  0
 17 25  2  0  0  0  0
 18 26  1  0  0  0  0
 19 24  1  0  0  0  0
 20 23  1  0  0  0  0
 21 22  2  0  0  0  0
 22 23  1  0  0  0  0
  1 28  1  0  0  0  0
  2 29  1  0  0  0  0
  3 30  1  0  0  0  0
  4 31  1  0  0  0  0
  5 32  1  0  0  0  0
  6 33  1  0  0  0  0
  7 34  1  0  0  0  0
  8 35  1  0  0  0  0
  9 36  1  0  0  0  0
 10 37  1  0  0  0  0
 11 38  1  0  0  0  0
 18 39  1  0  0  0  0
 18 40  1  0  0  0  0
 18 41  1  0  0  0  0
 19 42  1  0  0  0  0
 19 43  1  0  0  0  0
 20 44  1  0  0  0  0
 20 45  1  0  0  0  0
M  END
> <clash_score>
0

> <docking_score>
-9.4674711227417

> <overlap_score>
0.9034126400947571

$$$$
BENZO_355_1
  -OEChem-08222022473D

 48 51  0     0  0  0  0  0  0999 V2000
    3.8860    2.1050   19.5250 C   0  0  0  0  0  0  0  0  0  0  0  0
    4.2460    1.7520   20.8250 C   0  0  0  0  0  0  0  0  0  0  0  0
    4.6610    1.7170   18.4380 C   0  0  0  0  0  0  0  0  0  0  0  0
    5.3890    1.0010   21.0690 C   0  0  0  0  0  0  0  0  0  0  0  0
    9.5890   -2.4950   23.2210 C   0  0  0  0  0  0  0  0  0  0  0  0
    8.2550   -1.0010   24.5520 C   0  0  0  0  0  0  0  0  0  0  0  0
    9.1890   -3.5540   24.0140 C   0  0  0  0  0  0  0  0  0  0  0  0
    7.8700   -2.0610   25.3550 C   0  0  0  0  0  0  0  0  0  0  0  0
   12.7320   -0.4464   24.4370 C   0  0  0  0  0  0  0  0  0  0  0  0
   12.5970   -0.8682   22.2832 C   0  0  0  0  0  0  0  0  0  0  0  0
   11.9616   -0.1817   23.2889 C   0  0  0  0  0  0  0  0  0  0  0  0
    5.7970    0.9500   18.6730 C   0  0  0  0  0  0  0  0  0  0  0  0
    6.1460    0.6070   19.9750 C   0  0  0  0  0  0  0  0  0  0  0  0
    9.1280   -1.2090   23.4870 C   0  0  0  0  0  0  0  0  0  0  0  0
    8.3450   -3.3440   25.0980 C   0  0  0  0  0  0  0  0  0  0  0  0
    9.0430    0.2380   21.4940 C   0  0  0  0  0  0  0  0  0  0  0  0
   14.6393   -2.3180   22.2082 C   0  0  0  0  0  0  0  0  0  0  0  0
    8.5124   -5.6657   25.5743 C   0  0  0  0  0  0  0  0  0  0  0  0
   10.7220    0.6590   23.1850 C   0  0  0  0  0  0  0  0  0  0  0  0
    8.0950   -0.7700   20.8440 C   0  0  0  0  0  0  0  0  0  0  0  0
   13.7770   -1.2393   24.1852 N   0  0  0  0  0  0  0  0  0  0  0  0
    6.7100    0.3850   17.8100 N   0  0  0  0  0  0  0  0  0  0  0  0
    7.5840   -0.2700   18.5160 N   0  0  0  0  0  0  0  0  0  0  0  0
   13.6676   -1.4788   22.8673 N   0  0  0  0  0  0  0  0  0  0  0  0
    7.2710   -0.1460   19.8310 N   0  0  0  0  0  0  0  0  0  0  0  0
    9.5820   -0.1080   22.7000 N   0  0  0  0  0  0  0  0  0  0  0  0
    9.2950    1.3000   20.9480 O   0  0  0  0  0  0  0  0  0  0  0  0
    7.9864   -4.3799   25.8996 O   0  0  0  0  0  0  0  0  0  0  0  0
    2.9847    2.6930   19.3611 H   0  0  0  0  0  0  0  0  0  0  0  0
    3.6232    2.0694   21.6565 H   0  0  0  0  0  0  0  0  0  0  0  0
    4.3785    2.0112   17.4257 H   0  0  0  0  0  0  0  0  0  0  0  0
    5.6780    0.7321   22.0906 H   0  0  0  0  0  0  0  0  0  0  0  0
   10.2678   -2.6746   22.3862 H   0  0  0  0  0  0  0  0  0  0  0  0
    7.8691   -0.0023   24.7606 H   0  0  0  0  0  0  0  0  0  0  0  0
    9.5404   -4.5633   23.7846 H   0  0  0  0  0  0  0  0  0  0  0  0
    7.1920   -1.8875   26.1914 H   0  0  0  0  0  0  0  0  0  0  0  0
   12.5771   -0.0965   25.4478 H   0  0  0  0  0  0  0  0  0  0  0  0
   12.3832   -0.9726   21.2281 H   0  0  0  0  0  0  0  0  0  0  0  0
   15.4522   -1.6787   21.8540 H   0  0  0  0  0  0  0  0  0  0  0  0
   15.0179   -3.0612   22.9154 H   0  0  0  0  0  0  0  0  0  0  0  0
   14.1626   -2.8324   21.3691 H   0  0  0  0  0  0  0  0  0  0  0  0
    8.1469   -6.4023   26.2940 H   0  0  0  0  0  0  0  0  0  0  0  0
    9.6045   -5.6298   25.5962 H   0  0  0  0  0  0  0  0  0  0  0  0
    8.1789   -5.9428   24.5715 H   0  0  0  0  0  0  0  0  0  0  0  0
   10.4561    1.0772   24.1620 H   0  0  0  0  0  0  0  0  0  0  0  0
   10.8743    1.5008   22.5014 H   0  0  0  0  0  0  0  0  0  0  0  0
    8.6619   -1.5627   20.3589 H   0  0  0  0  0  0  0  0  0  0  0  0
    7.4230   -1.1880   21.5916 H   0  0  0  0  0  0  0  0  0  0  0  0
  1  2  1  0  0  0  0
  1  3  2  0  0  0  0
  2  4  2  0  0  0  0
  3 12  1  0  0  0  0
  4 13  1  0  0  0  0
  5  7  2  0  0  0  0
  5 14  1  0  0  0  0
  6  8  1  0  0  0  0
  6 14  2  0  0  0  0
  7 15  1  0  0  0  0
  8 15  2  0  0  0  0
  9 11  1  0  0  0  0
  9 21  2  0  0  0  0
 10 11  2  0  0  0  0
 10 24  1  0  0  0  0
 11 19  1  0  0  0  0
 12 13  2  0  0  0  0
 12 22  1  0  0  0  0
 13 25  1  0  0  0  0
 14 26  1  0  0  0  0
 15 28  1  0  0  0  0
 16 20  1  0  0  0  0
 16 26  1  0  0  0  0
 16 27  2  0  0  0  0
 17 24  1  0  0  0  0
 18 28  1  0  0  0  0
 19 26  1  0  0  0  0
 20 25  1  0  0  0  0
 21 24  1  0  0  0  0
 22 23  2  0  0  0  0
 23 25  1  0  0  0  0
  1 29  1  0  0  0  0
  2 30  1  0  0  0  0
  3 31  1  0  0  0  0
  4 32  1  0  0  0  0
  5 33  1  0  0  0  0
  6 34  1  0  0  0  0
  7 35  1  0  0  0  0
  8 36  1  0  0  0  0
  9 37  1  0  0  0  0
 10 38  1  0  0  0  0
 17 39  1  0  0  0  0
 17 40  1  0  0  0  0
 17 41  1  0  0  0  0
 18 42  1  0  0  0  0
 18 43  1  0  0  0  0
 18 44  1  0  0  0  0
 19 45  1  0  0  0  0
 19 46  1  0  0  0  0
 20 47  1  0  0  0  0
 20 48  1  0  0  0  0
M  END
> <clash_score>
0

> <docking_score>
-8.268668174743652

> <overlap_score>
0.918684720993042

$$$$
BENZO_354_1
  -OEChem-08222022473D

 48 51  0     0  0  0  0  0  0999 V2000
    3.8860    2.1050   19.5250 C   0  0  0  0  0  0  0  0  0  0  0  0
    4.2460    1.7520   20.8250 C   0  0  0  0  0  0  0  0  0  0  0  0
   13.7501   -1.1157   24.6176 C   0  0  0  0  0  0  0  0  0  0  0  0
   12.5991   -0.3339   24.5202 C   0  0  0  0  0  0  0  0  0  0  0  0
    4.6610    1.7170   18.4380 C   0  0  0  0  0  0  0  0  0  0  0  0
    5.3890    1.0010   21.0690 C   0  0  0  0  0  0  0  0  0  0  0  0
    9.5890   -2.4950   23.2210 C   0  0  0  0  0  0  0  0  0  0  0  0
    8.2550   -1.0010   24.5520 C   0  0  0  0  0  0  0  0  0  0  0  0
    9.1890   -3.5540   24.0140 C   0  0  0  0  0  0  0  0  0  0  0  0
    7.8700   -2.0610   25.3550 C   0  0  0  0  0  0  0  0  0  0  0  0
   14.2636   -1.7454   23.4838 C   0  0  0  0  0  0  0  0  0  0  0  0
   12.4750   -0.8115   22.1551 C   0  0  0  0  0  0  0  0  0  0  0  0
   11.9616   -0.1817   23.2889 C   0  0  0  0  0  0  0  0  0  0  0  0
    5.7970    0.9500   18.6730 C   0  0  0  0  0  0  0  0  0  0  0  0
    6.1460    0.6070   19.9750 C   0  0  0  0  0  0  0  0  0  0  0  0
    9.1280   -1.2090   23.4870 C   0  0  0  0  0  0  0  0  0  0  0  0
    8.3450   -3.3440   25.0980 C   0  0  0  0  0  0  0  0  0  0  0  0
   13.6261   -1.5933   22.2526 C   0  0  0  0  0  0  0  0  0  0  0  0
    9.0430    0.2380   21.4940 C   0  0  0  0  0  0  0  0  0  0  0  0
    8.5124   -5.6657   25.5743 C   0  0  0  0  0  0  0  0  0  0  0  0
   10.7220    0.6590   23.1850 C   0  0  0  0  0  0  0  0  0  0  0  0
    8.0950   -0.7700   20.8440 C   0  0  0  0  0  0  0  0  0  0  0  0
    6.7100    0.3850   17.8100 N   0  0  0  0  0  0  0  0  0  0  0  0
    7.5840   -0.2700   18.5160 N   0  0  0  0  0  0  0  0  0  0  0  0
    7.2710   -0.1460   19.8310 N   0  0  0  0  0  0  0  0  0  0  0  0
    9.5820   -0.1080   22.7000 N   0  0  0  0  0  0  0  0  0  0  0  0
    9.2950    1.3000   20.9480 O   0  0  0  0  0  0  0  0  0  0  0  0
    7.9864   -4.3799   25.8996 O   0  0  0  0  0  0  0  0  0  0  0  0
   14.2594   -2.3714   20.8543 Cl  0  0  0  0  0  0  0  0  0  0  0  0
    2.9847    2.6930   19.3611 H   0  0  0  0  0  0  0  0  0  0  0  0
    3.6232    2.0694   21.6565 H   0  0  0  0  0  0  0  0  0  0  0  0
   14.2462   -1.2340   25.5766 H   0  0  0  0  0  0  0  0  0  0  0  0
   12.2060    0.1530   25.4088 H   0  0  0  0  0  0  0  0  0  0  0  0
    4.3785    2.0112   17.4257 H   0  0  0  0  0  0  0  0  0  0  0  0
    5.6780    0.7321   22.0906 H   0  0  0  0  0  0  0  0  0  0  0  0
   10.2678   -2.6746   22.3862 H   0  0  0  0  0  0  0  0  0  0  0  0
    7.8691   -0.0023   24.7606 H   0  0  0  0  0  0  0  0  0  0  0  0
    9.5404   -4.5633   23.7846 H   0  0  0  0  0  0  0  0  0  0  0  0
    7.1920   -1.8875   26.1914 H   0  0  0  0  0  0  0  0  0  0  0  0
   15.1613   -2.3520   23.5748 H   0  0  0  0  0  0  0  0  0  0  0  0
   11.9745   -0.6893   21.1973 H   0  0  0  0  0  0  0  0  0  0  0  0
    8.1469   -6.4023   26.2940 H   0  0  0  0  0  0  0  0  0  0  0  0
    9.6045   -5.6298   25.5962 H   0  0  0  0  0  0  0  0  0  0  0  0
    8.1789   -5.9428   24.5715 H   0  0  0  0  0  0  0  0  0  0  0  0
   10.4561    1.0772   24.1620 H   0  0  0  0  0  0  0  0  0  0  0  0
   10.8743    1.5008   22.5014 H   0  0  0  0  0  0  0  0  0  0  0  0
    8.6619   -1.5627   20.3589 H   0  0  0  0  0  0  0  0  0  0  0  0
    7.4230   -1.1880   21.5916 H   0  0  0  0  0  0  0  0  0  0  0  0
  1  2  1  0  0  0  0
  1  5  2  0  0  0  0
  2  6  2  0  0  0  0
  3  4  2  0  0  0  0
  3 11  1  0  0  0  0
  4 13  1  0  0  0  0
  5 14  1  0  0  0  0
  6 15  1  0  0  0  0
  7  9  2  0  0  0  0
  7 16  1  0  0  0  0
  8 10  1  0  0  0  0
  8 16  2  0  0  0  0
  9 17  1  0  0  0  0
 10 17  2  0  0  0  0
 11 18  2  0  0  0  0
 12 13  2  0  0  0  0
 12 18  1  0  0  0  0
 13 21  1  0  0  0  0
 14 15  2  0  0  0  0
 14 23  1  0  0  0  0
 15 25  1  0  0  0  0
 16 26  1  0  0  0  0
 17 28  1  0  0  0  0
 18 29  1  0  0  0  0
 19 22  1  0  0  0  0
 19 26  1  0  0  0  0
 19 27  2  0  0  0  0
 20 28  1  0  0  0  0
 21 26  1  0  0  0  0
 22 25  1  0  0  0  0
 23 24  2  0  0  0  0
 24 25  1  0  0  0  0
  1 30  1  0  0  0  0
  2 31  1  0  0  0  0
  3 32  1  0  0  0  0
  4 33  1  0  0  0  0
  5 34  1  0  0  0  0
  6 35  1  0  0  0  0
  7 36  1  0  0  0  0
  8 37  1  0  0  0  0
  9 38  1  0  0  0  0
 10 39  1  0  0  0  0
 11 40  1  0  0  0  0
 12 41  1  0  0  0  0
 20 42  1  0  0  0  0
 20 43  1  0  0  0  0
 20 44  1  0  0  0  0
 21 45  1  0  0  0  0
 21 46  1  0  0  0  0
 22 47  1  0  0  0  0
 22 48  1  0  0  0  0
M  END
> <clash_score>
0

> <docking_score>
-9.03264045715332

> <overlap_score>
0.9233068227767944

$$$$
BENZO_357_1
  -OEChem-08222022473D

 58 62  0     0  0  0  0  0  0999 V2000
   14.2641   -1.7450   23.4813 C   0  0  0  0  0  0  0  0  0  0  0  0
   14.0779   -0.6681   24.3480 C   0  0  0  0  0  0  0  0  0  0  0  0
   13.2991   -2.0403   22.5184 C   0  0  0  0  0  0  0  0  0  0  0  0
    3.8860    2.1050   19.5250 C   0  0  0  0  0  0  0  0  0  0  0  0
    4.2460    1.7520   20.8250 C   0  0  0  0  0  0  0  0  0  0  0  0
   12.9266    0.1135   24.2518 C   0  0  0  0  0  0  0  0  0  0  0  0
   12.1478   -1.2587   22.4222 C   0  0  0  0  0  0  0  0  0  0  0  0
    4.6610    1.7170   18.4380 C   0  0  0  0  0  0  0  0  0  0  0  0
    5.3890    1.0010   21.0690 C   0  0  0  0  0  0  0  0  0  0  0  0
    9.1890   -3.5540   24.0140 C   0  0  0  0  0  0  0  0  0  0  0  0
    7.8700   -2.0610   25.3550 C   0  0  0  0  0  0  0  0  0  0  0  0
    9.5890   -2.4950   23.2210 C   0  0  0  0  0  0  0  0  0  0  0  0
    8.2550   -1.0010   24.5520 C   0  0  0  0  0  0  0  0  0  0  0  0
   11.9616   -0.1817   23.2889 C   0  0  0  0  0  0  0  0  0  0  0  0
    5.7970    0.9500   18.6730 C   0  0  0  0  0  0  0  0  0  0  0  0
    6.1460    0.6070   19.9750 C   0  0  0  0  0  0  0  0  0  0  0  0
    8.3450   -3.3440   25.0980 C   0  0  0  0  0  0  0  0  0  0  0  0
    9.1280   -1.2090   23.4870 C   0  0  0  0  0  0  0  0  0  0  0  0
    7.8687   -5.7518   25.4384 C   0  0  0  0  0  0  0  0  0  0  0  0
    9.0430    0.2380   21.4940 C   0  0  0  0  0  0  0  0  0  0  0  0
    7.7614   -6.8724   26.4584 C   0  0  0  0  0  0  0  0  0  0  0  0
    7.0004   -6.5095   27.7148 C   0  0  0  0  0  0  0  0  0  0  0  0
    7.6035   -5.2531   28.3027 C   0  0  0  0  0  0  0  0  0  0  0  0
    7.4713   -4.1195   27.2996 C   0  0  0  0  0  0  0  0  0  0  0  0
   10.7220    0.6590   23.1850 C   0  0  0  0  0  0  0  0  0  0  0  0
    8.0950   -0.7700   20.8440 C   0  0  0  0  0  0  0  0  0  0  0  0
    6.7100    0.3850   17.8100 N   0  0  0  0  0  0  0  0  0  0  0  0
    7.5840   -0.2700   18.5160 N   0  0  0  0  0  0  0  0  0  0  0  0
    7.2710   -0.1460   19.8310 N   0  0  0  0  0  0  0  0  0  0  0  0
    7.9635   -4.4452   25.9501 N   0  0  0  0  0  0  0  0  0  0  0  0
    9.5820   -0.1080   22.7000 N   0  0  0  0  0  0  0  0  0  0  0  0
    7.9246   -6.0590   24.2445 O   0  0  0  0  0  0  0  0  0  0  0  0
    9.2950    1.3000   20.9480 O   0  0  0  0  0  0  0  0  0  0  0  0
   15.1613   -2.3527   23.5555 H   0  0  0  0  0  0  0  0  0  0  0  0
   14.8297   -0.4373   25.0971 H   0  0  0  0  0  0  0  0  0  0  0  0
   13.4443   -2.8780   21.8427 H   0  0  0  0  0  0  0  0  0  0  0  0
    2.9847    2.6930   19.3611 H   0  0  0  0  0  0  0  0  0  0  0  0
    3.6232    2.0694   21.6565 H   0  0  0  0  0  0  0  0  0  0  0  0
   12.7899    0.9506   24.9315 H   0  0  0  0  0  0  0  0  0  0  0  0
   11.4013   -1.4963   21.6690 H   0  0  0  0  0  0  0  0  0  0  0  0
    4.3785    2.0112   17.4257 H   0  0  0  0  0  0  0  0  0  0  0  0
    5.6780    0.7321   22.0906 H   0  0  0  0  0  0  0  0  0  0  0  0
    9.5436   -4.5614   23.7799 H   0  0  0  0  0  0  0  0  0  0  0  0
    7.1918   -1.8823   26.1906 H   0  0  0  0  0  0  0  0  0  0  0  0
   10.2676   -2.6754   22.3861 H   0  0  0  0  0  0  0  0  0  0  0  0
    7.8686   -0.0026   24.7598 H   0  0  0  0  0  0  0  0  0  0  0  0
    7.2713   -7.7257   25.9758 H   0  0  0  0  0  0  0  0  0  0  0  0
    8.7837   -7.1790   26.7111 H   0  0  0  0  0  0  0  0  0  0  0  0
    5.9406   -6.3476   27.4837 H   0  0  0  0  0  0  0  0  0  0  0  0
    7.0566   -7.3314   28.4368 H   0  0  0  0  0  0  0  0  0  0  0  0
    7.0858   -4.9863   29.2307 H   0  0  0  0  0  0  0  0  0  0  0  0
    8.6585   -5.4140   28.5554 H   0  0  0  0  0  0  0  0  0  0  0  0
    6.4149   -3.8417   27.1934 H   0  0  0  0  0  0  0  0  0  0  0  0
    8.0152   -3.2408   27.6666 H   0  0  0  0  0  0  0  0  0  0  0  0
   10.4561    1.0772   24.1620 H   0  0  0  0  0  0  0  0  0  0  0  0
   10.8743    1.5008   22.5014 H   0  0  0  0  0  0  0  0  0  0  0  0
    8.6688   -1.5655   20.3666 H   0  0  0  0  0  0  0  0  0  0  0  0
    7.4298   -1.1908   21.5994 H   0  0  0  0  0  0  0  0  0  0  0  0
  1  2  1  0  0  0  0
  1  3  2  0  0  0  0
  2  6  2  0  0  0  0
  3  7  1  0  0  0  0
  4  5  1  0  0  0  0
  4  8  2  0  0  0  0
  5  9  2  0  0  0  0
  6 14  1  0  0  0  0
  7 14  2  0  0  0  0
  8 15  1  0  0  0  0
  9 16  1  0  0  0  0
 10 12  2  0  0  0  0
 10 17  1  0  0  0  0
 11 13  1  0  0  0  0
 11 17  2  0  0  0  0
 12 18  1  0  0  0  0
 13 18  2  0  0  0  0
 14 25  1  0  0  0  0
 15 16  2  0  0  0  0
 15 27  1  0  0  0  0
 16 29  1  0  0  0  0
 17 30  1  0  0  0  0
 18 31  1  0  0  0  0
 19 21  1  0  0  0  0
 19 30  1  0  0  0  0
 19 32  2  0  0  0  0
 20 26  1  0  0  0  0
 20 31  1  0  0  0  0
 20 33  2  0  0  0  0
 21 22  1  0  0  0  0
 22 23  1  0  0  0  0
 23 24  1  0  0  0  0
 24 30  1  0  0  0  0
 25 31  1  0  0  0  0
 26 29  1  0  0  0  0
 27 28  2  0  0  0  0
 28 29  1  0  0  0  0
  1 34  1  0  0  0  0
  2 35  1  0  0  0  0
  3 36  1  0  0  0  0
  4 37  1  0  0  0  0
  5 38  1  0  0  0  0
  6 39  1  0  0  0  0
  7 40  1  0  0  0  0
  8 41  1  0  0  0  0
  9 42  1  0  0  0  0
 10 43  1  0  0  0  0
 11 44  1  0  0  0  0
 12 45  1  0  0  0  0
 13 46  1  0  0  0  0
 21 47  1  0  0  0  0
 21 48  1  0  0  0  0
 22 49  1  0  0  0  0
 22 50  1  0  0  0  0
 23 51  1  0  0  0  0
 23 52  1  0  0  0  0
 24 53  1  0  0  0  0
 24 54  1  0  0  0  0
 25 55  1  0  0  0  0
 25 56  1  0  0  0  0
 26 57  1  0  0  0  0
 26 58  1  0  0  0  0
M  END
> <clash_score>
0

> <docking_score>
-8.915197372436523

> <overlap_score>
0.9891777038574219

$$$$
BENZO_356_1
  -OEChem-08222022473D

 55 59  0     0  0  0  0  0  0999 V2000
    3.8860    2.1050   19.5250 C   0  0  0  0  0  0  0  0  0  0  0  0
    4.2460    1.7520   20.8250 C   0  0  0  0  0  0  0  0  0  0  0  0
    4.6610    1.7170   18.4380 C   0  0  0  0  0  0  0  0  0  0  0  0
    5.3890    1.0010   21.0690 C   0  0  0  0  0  0  0  0  0  0  0  0
    9.1890   -3.5540   24.0140 C   0  0  0  0  0  0  0  0  0  0  0  0
    7.8700   -2.0610   25.3550 C   0  0  0  0  0  0  0  0  0  0  0  0
    9.5890   -2.4950   23.2210 C   0  0  0  0  0  0  0  0  0  0  0  0
    8.2550   -1.0010   24.5520 C   0  0  0  0  0  0  0  0  0  0  0  0
   12.6785   -0.3936   24.5018 C   0  0  0  0  0  0  0  0  0  0  0  0
   13.7775   -1.2037   24.3186 C   0  0  0  0  0  0  0  0  0  0  0  0
   12.5401   -0.8378   22.2246 C   0  0  0  0  0  0  0  0  0  0  0  0
   11.9616   -0.1817   23.2889 C   0  0  0  0  0  0  0  0  0  0  0  0
    5.7970    0.9500   18.6730 C   0  0  0  0  0  0  0  0  0  0  0  0
    6.1460    0.6070   19.9750 C   0  0  0  0  0  0  0  0  0  0  0  0
    8.3450   -3.3440   25.0980 C   0  0  0  0  0  0  0  0  0  0  0  0
    9.1280   -1.2090   23.4870 C   0  0  0  0  0  0  0  0  0  0  0  0
    7.2752   -5.5548   25.4273 C   0  0  0  0  0  0  0  0  0  0  0  0
    9.0430    0.2380   21.4940 C   0  0  0  0  0  0  0  0  0  0  0  0
    7.1880   -6.7800   26.3209 C   0  0  0  0  0  0  0  0  0  0  0  0
    7.0916   -6.4753   27.7999 C   0  0  0  0  0  0  0  0  0  0  0  0
    8.2362   -5.5641   28.1841 C   0  0  0  0  0  0  0  0  0  0  0  0
    8.1241   -4.2655   27.4032 C   0  0  0  0  0  0  0  0  0  0  0  0
   10.7220    0.6590   23.1850 C   0  0  0  0  0  0  0  0  0  0  0  0
    8.0950   -0.7700   20.8440 C   0  0  0  0  0  0  0  0  0  0  0  0
    6.7100    0.3850   17.8100 N   0  0  0  0  0  0  0  0  0  0  0  0
    7.5840   -0.2700   18.5160 N   0  0  0  0  0  0  0  0  0  0  0  0
    7.2710   -0.1460   19.8310 N   0  0  0  0  0  0  0  0  0  0  0  0
    7.9635   -4.4452   25.9501 N   0  0  0  0  0  0  0  0  0  0  0  0
    9.5820   -0.1080   22.7000 N   0  0  0  0  0  0  0  0  0  0  0  0
    6.7947   -5.6299   24.2931 O   0  0  0  0  0  0  0  0  0  0  0  0
    9.2950    1.3000   20.9480 O   0  0  0  0  0  0  0  0  0  0  0  0
   13.9416   -1.7051   22.6894 S   0  0  0  0  0  0  0  0  0  0  0  0
    2.9847    2.6930   19.3611 H   0  0  0  0  0  0  0  0  0  0  0  0
    3.6232    2.0694   21.6565 H   0  0  0  0  0  0  0  0  0  0  0  0
    4.3785    2.0112   17.4257 H   0  0  0  0  0  0  0  0  0  0  0  0
    5.6780    0.7321   22.0906 H   0  0  0  0  0  0  0  0  0  0  0  0
    9.5436   -4.5614   23.7799 H   0  0  0  0  0  0  0  0  0  0  0  0
    7.1918   -1.8823   26.1906 H   0  0  0  0  0  0  0  0  0  0  0  0
   10.2676   -2.6754   22.3861 H   0  0  0  0  0  0  0  0  0  0  0  0
    7.8686   -0.0026   24.7598 H   0  0  0  0  0  0  0  0  0  0  0  0
   12.4058    0.0253   25.4623 H   0  0  0  0  0  0  0  0  0  0  0  0
   14.4923   -1.5246   25.0631 H   0  0  0  0  0  0  0  0  0  0  0  0
   12.2108   -0.8511   21.1948 H   0  0  0  0  0  0  0  0  0  0  0  0
    6.3101   -7.3613   26.0164 H   0  0  0  0  0  0  0  0  0  0  0  0
    8.0752   -7.3922   26.1183 H   0  0  0  0  0  0  0  0  0  0  0  0
    6.1328   -5.9938   28.0269 H   0  0  0  0  0  0  0  0  0  0  0  0
    7.1363   -7.4051   28.3772 H   0  0  0  0  0  0  0  0  0  0  0  0
    8.2035   -5.3520   29.2586 H   0  0  0  0  0  0  0  0  0  0  0  0
    9.1990   -6.0474   27.9788 H   0  0  0  0  0  0  0  0  0  0  0  0
    7.2505   -3.6996   27.7511 H   0  0  0  0  0  0  0  0  0  0  0  0
    9.0155   -3.6525   27.5824 H   0  0  0  0  0  0  0  0  0  0  0  0
   10.4561    1.0772   24.1620 H   0  0  0  0  0  0  0  0  0  0  0  0
   10.8743    1.5008   22.5014 H   0  0  0  0  0  0  0  0  0  0  0  0
    8.6688   -1.5655   20.3666 H   0  0  0  0  0  0  0  0  0  0  0  0
    7.4298   -1.1908   21.5994 H   0  0  0  0  0  0  0  0  0  0  0  0
  1  2  1  0  0  0  0
  1  3  2  0  0  0  0
  2  4  2  0  0  0  0
  3 13  1  0  0  0  0
  4 14  1  0  0  0  0
  5  7  2  0  0  0  0
  5 15  1  0  0  0  0
  6  8  1  0  0  0  0
  6 15  2  0  0  0  0
  7 16  1  0  0  0  0
  8 16  2  0  0  0  0
  9 10  2  0  0  0  0
  9 12  1  0  0  0  0
 10 32  1  0  0  0  0
 11 12  2  0  0  0  0
 11 32  1  0  0  0  0
 12 23  1  0  0  0  0
 13 14  2  0  0  0  0
 13 25  1  0  0  0  0
 14 27  1  0  0  0  0
 15 28  1  0  0  0  0
 16 29  1  0  0  0  0
 17 19  1  0  0  0  0
 17 28  1  0  0  0  0
 17 30  2  0  0  0  0
 18 24  1  0  0  0  0
 18 29  1  0  0  0  0
 18 31  2  0  0  0  0
 19 20  1  0  0  0  0
 20 21  1  0  0  0  0
 21 22  1  0  0  0  0
 22 28  1  0  0  0  0
 23 29  1  0  0  0  0
 24 27  1  0  0  0  0
 25 26  2  0  0  0  0
 26 27  1  0  0  0  0
  1 33  1  0  0  0  0
  2 34  1  0  0  0  0
  3 35  1  0  0  0  0
  4 36  1  0  0  0  0
  5 37  1  0  0  0  0
  6 38  1  0  0  0  0
  7 39  1  0  0  0  0
  8 40  1  0  0  0  0
  9 41  1  0  0  0  0
 10 42  1  0  0  0  0
 11 43  1  0  0  0  0
 19 44  1  0  0  0  0
 19 45  1  0  0  0  0
 20 46  1  0  0  0  0
 20 47  1  0  0  0  0
 21 48  1  0  0  0  0
 21 49  1  0  0  0  0
 22 50  1  0  0  0  0
 22 51  1  0  0  0  0
 23 52  1  0  0  0  0
 23 53  1  0  0  0  0
 24 54  1  0  0  0  0
 24 55  1  0  0  0  0
M  END
> <clash_score>
0

> <docking_score>
-9.312322616577148

> <overlap_score>
0.9828841090202332

$$$$
BENZO_359_1
  -OEChem-08222022473D

 58 62  0     0  0  0  0  0  0999 V2000
    3.8860    2.1050   19.5250 C   0  0  0  0  0  0  0  0  0  0  0  0
    4.2460    1.7520   20.8250 C   0  0  0  0  0  0  0  0  0  0  0  0
    4.6610    1.7170   18.4380 C   0  0  0  0  0  0  0  0  0  0  0  0
    5.3890    1.0010   21.0690 C   0  0  0  0  0  0  0  0  0  0  0  0
    9.1890   -3.5540   24.0140 C   0  0  0  0  0  0  0  0  0  0  0  0
    7.8700   -2.0610   25.3550 C   0  0  0  0  0  0  0  0  0  0  0  0
    9.5890   -2.4950   23.2210 C   0  0  0  0  0  0  0  0  0  0  0  0
    8.2550   -1.0010   24.5520 C   0  0  0  0  0  0  0  0  0  0  0  0
   12.7320   -0.4464   24.4370 C   0  0  0  0  0  0  0  0  0  0  0  0
   12.5970   -0.8682   22.2832 C   0  0  0  0  0  0  0  0  0  0  0  0
   11.9616   -0.1817   23.2889 C   0  0  0  0  0  0  0  0  0  0  0  0
    5.7970    0.9500   18.6730 C   0  0  0  0  0  0  0  0  0  0  0  0
    6.1460    0.6070   19.9750 C   0  0  0  0  0  0  0  0  0  0  0  0
    8.3450   -3.3440   25.0980 C   0  0  0  0  0  0  0  0  0  0  0  0
    9.1280   -1.2090   23.4870 C   0  0  0  0  0  0  0  0  0  0  0  0
    7.2752   -5.5548   25.4273 C   0  0  0  0  0  0  0  0  0  0  0  0
    9.0430    0.2380   21.4940 C   0  0  0  0  0  0  0  0  0  0  0  0
    7.1880   -6.7800   26.3209 C   0  0  0  0  0  0  0  0  0  0  0  0
    7.0916   -6.4753   27.7999 C   0  0  0  0  0  0  0  0  0  0  0  0
    8.2362   -5.5641   28.1841 C   0  0  0  0  0  0  0  0  0  0  0  0
    8.1241   -4.2655   27.4032 C   0  0  0  0  0  0  0  0  0  0  0  0
   14.6393   -2.3180   22.2082 C   0  0  0  0  0  0  0  0  0  0  0  0
   10.7220    0.6590   23.1850 C   0  0  0  0  0  0  0  0  0  0  0  0
    8.0950   -0.7700   20.8440 C   0  0  0  0  0  0  0  0  0  0  0  0
   13.7770   -1.2393   24.1852 N   0  0  0  0  0  0  0  0  0  0  0  0
    6.7100    0.3850   17.8100 N   0  0  0  0  0  0  0  0  0  0  0  0
    7.5840   -0.2700   18.5160 N   0  0  0  0  0  0  0  0  0  0  0  0
   13.6676   -1.4788   22.8673 N   0  0  0  0  0  0  0  0  0  0  0  0
    7.2710   -0.1460   19.8310 N   0  0  0  0  0  0  0  0  0  0  0  0
    7.9635   -4.4452   25.9501 N   0  0  0  0  0  0  0  0  0  0  0  0
    9.5820   -0.1080   22.7000 N   0  0  0  0  0  0  0  0  0  0  0  0
    6.7947   -5.6299   24.2931 O   0  0  0  0  0  0  0  0  0  0  0  0
    9.2950    1.3000   20.9480 O   0  0  0  0  0  0  0  0  0  0  0  0
    2.9847    2.6930   19.3611 H   0  0  0  0  0  0  0  0  0  0  0  0
    3.6232    2.0694   21.6565 H   0  0  0  0  0  0  0  0  0  0  0  0
    4.3785    2.0112   17.4257 H   0  0  0  0  0  0  0  0  0  0  0  0
    5.6780    0.7321   22.0906 H   0  0  0  0  0  0  0  0  0  0  0  0
    9.5436   -4.5614   23.7799 H   0  0  0  0  0  0  0  0  0  0  0  0
    7.1918   -1.8823   26.1906 H   0  0  0  0  0  0  0  0  0  0  0  0
   10.2676   -2.6754   22.3861 H   0  0  0  0  0  0  0  0  0  0  0  0
    7.8686   -0.0026   24.7598 H   0  0  0  0  0  0  0  0  0  0  0  0
   12.5771   -0.0965   25.4478 H   0  0  0  0  0  0  0  0  0  0  0  0
   12.3832   -0.9726   21.2281 H   0  0  0  0  0  0  0  0  0  0  0  0
    6.3101   -7.3613   26.0164 H   0  0  0  0  0  0  0  0  0  0  0  0
    8.0752   -7.3922   26.1183 H   0  0  0  0  0  0  0  0  0  0  0  0
    6.1328   -5.9938   28.0269 H   0  0  0  0  0  0  0  0  0  0  0  0
    7.1363   -7.4051   28.3772 H   0  0  0  0  0  0  0  0  0  0  0  0
    8.2035   -5.3520   29.2586 H   0  0  0  0  0  0  0  0  0  0  0  0
    9.1990   -6.0474   27.9788 H   0  0  0  0  0  0  0  0  0  0  0  0
    7.2505   -3.6996   27.7511 H   0  0  0  0  0  0  0  0  0  0  0  0
    9.0155   -3.6525   27.5824 H   0  0  0  0  0  0  0  0  0  0  0  0
   15.4522   -1.6787   21.8540 H   0  0  0  0  0  0  0  0  0  0  0  0
   15.0179   -3.0612   22.9154 H   0  0  0  0  0  0  0  0  0  0  0  0
   14.1626   -2.8324   21.3691 H   0  0  0  0  0  0  0  0  0  0  0  0
   10.4561    1.0772   24.1620 H   0  0  0  0  0  0  0  0  0  0  0  0
   10.8743    1.5008   22.5014 H   0  0  0  0  0  0  0  0  0  0  0  0
    8.6688   -1.5655   20.3666 H   0  0  0  0  0  0  0  0  0  0  0  0
    7.4298   -1.1908   21.5994 H   0  0  0  0  0  0  0  0  0  0  0  0
  1  2  1  0  0  0  0
  1  3  2  0  0  0  0
  2  4  2  0  0  0  0
  3 12  1  0  0  0  0
  4 13  1  0  0  0  0
  5  7  2  0  0  0  0
  5 14  1  0  0  0  0
  6  8  1  0  0  0  0
  6 14  2  0  0  0  0
  7 15  1  0  0  0  0
  8 15  2  0  0  0  0
  9 11  1  0  0  0  0
  9 25  2  0  0  0  0
 10 11  2  0  0  0  0
 10 28  1  0  0  0  0
 11 23  1  0  0  0  0
 12 13  2  0  0  0  0
 12 26  1  0  0  0  0
 13 29  1  0  0  0  0
 14 30  1  0  0  0  0
 15 31  1  0  0  0  0
 16 18  1  0  0  0  0
 16 30  1  0  0  0  0
 16 32  2  0  0  0  0
 17 24  1  0  0  0  0
 17 31  1  0  0  0  0
 17 33  2  0  0  0  0
 18 19  1  0  0  0  0
 19 20  1  0  0  0  0
 20 21  1  0  0  0  0
 21 30  1  0  0  0  0
 22 28  1  0  0  0  0
 23 31  1  0  0  0  0
 24 29  1  0  0  0  0
 25 28  1  0  0  0  0
 26 27  2  0  0  0  0
 27 29  1  0  0  0  0
  1 34  1  0  0  0  0
  2 35  1  0  0  0  0
  3 36  1  0  0  0  0
  4 37  1  0  0  0  0
  5 38  1  0  0  0  0
  6 39  1  0  0  0  0
  7 40  1  0  0  0  0
  8 41  1  0  0  0  0
  9 42  1  0  0  0  0
 10 43  1  0  0  0  0
 18 44  1  0  0  0  0
 18 45  1  0  0  0  0
 19 46  1  0  0  0  0
 19 47  1  0  0  0  0
 20 48  1  0  0  0  0
 20 49  1  0  0  0  0
 21 50  1  0  0  0  0
 21 51  1  0  0  0  0
 22 52  1  0  0  0  0
 22 53  1  0  0  0  0
 22 54  1  0  0  0  0
 23 55  1  0  0  0  0
 23 56  1  0  0  0  0
 24 57  1  0  0  0  0
 24 58  1  0  0  0  0
M  END
> <clash_score>
0

> <docking_score>
-8.061543464660645

> <overlap_score>
0.9994743466377258

$$$$
BENZO_361_1
  -OEChem-08222022473D

 57 61  0     0  0  0  0  0  0999 V2000
   14.2642   -1.7450   23.4813 C   0  0  0  0  0  0  0  0  0  0  0  0
   14.0779   -0.6681   24.3480 C   0  0  0  0  0  0  0  0  0  0  0  0
   13.2991   -2.0403   22.5184 C   0  0  0  0  0  0  0  0  0  0  0  0
    3.8860    2.1050   19.5250 C   0  0  0  0  0  0  0  0  0  0  0  0
    4.2460    1.7520   20.8250 C   0  0  0  0  0  0  0  0  0  0  0  0
   12.9266    0.1135   24.2518 C   0  0  0  0  0  0  0  0  0  0  0  0
   12.1478   -1.2587   22.4222 C   0  0  0  0  0  0  0  0  0  0  0  0
    4.6610    1.7170   18.4380 C   0  0  0  0  0  0  0  0  0  0  0  0
    5.3890    1.0010   21.0690 C   0  0  0  0  0  0  0  0  0  0  0  0
    9.1890   -3.5540   24.0140 C   0  0  0  0  0  0  0  0  0  0  0  0
    7.8700   -2.0610   25.3550 C   0  0  0  0  0  0  0  0  0  0  0  0
    9.5890   -2.4950   23.2210 C   0  0  0  0  0  0  0  0  0  0  0  0
    8.2550   -1.0010   24.5520 C   0  0  0  0  0  0  0  0  0  0  0  0
   11.9616   -0.1817   23.2889 C   0  0  0  0  0  0  0  0  0  0  0  0
    5.7970    0.9500   18.6730 C   0  0  0  0  0  0  0  0  0  0  0  0
    6.1460    0.6070   19.9750 C   0  0  0  0  0  0  0  0  0  0  0  0
    8.3450   -3.3440   25.0980 C   0  0  0  0  0  0  0  0  0  0  0  0
    9.1280   -1.2090   23.4870 C   0  0  0  0  0  0  0  0  0  0  0  0
    9.0430    0.2380   21.4940 C   0  0  0  0  0  0  0  0  0  0  0  0
    7.2567   -5.5373   25.3128 C   0  0  0  0  0  0  0  0  0  0  0  0
    7.6783   -4.1701   27.3375 C   0  0  0  0  0  0  0  0  0  0  0  0
    7.3927   -6.7710   26.1978 C   0  0  0  0  0  0  0  0  0  0  0  0
    7.7912   -5.4770   28.1147 C   0  0  0  0  0  0  0  0  0  0  0  0
   10.7220    0.6590   23.1850 C   0  0  0  0  0  0  0  0  0  0  0  0
    8.0950   -0.7700   20.8440 C   0  0  0  0  0  0  0  0  0  0  0  0
    6.7100    0.3850   17.8100 N   0  0  0  0  0  0  0  0  0  0  0  0
    7.5840   -0.2700   18.5160 N   0  0  0  0  0  0  0  0  0  0  0  0
    7.2710   -0.1460   19.8310 N   0  0  0  0  0  0  0  0  0  0  0  0
    7.9750   -4.4088   25.9208 N   0  0  0  0  0  0  0  0  0  0  0  0
    9.5820   -0.1080   22.7000 N   0  0  0  0  0  0  0  0  0  0  0  0
    9.2950    1.3000   20.9480 O   0  0  0  0  0  0  0  0  0  0  0  0
    6.9636   -6.4808   27.5280 O   0  0  0  0  0  0  0  0  0  0  0  0
   15.1613   -2.3527   23.5555 H   0  0  0  0  0  0  0  0  0  0  0  0
   14.8297   -0.4373   25.0971 H   0  0  0  0  0  0  0  0  0  0  0  0
   13.4443   -2.8780   21.8427 H   0  0  0  0  0  0  0  0  0  0  0  0
    2.9847    2.6930   19.3611 H   0  0  0  0  0  0  0  0  0  0  0  0
    3.6232    2.0694   21.6565 H   0  0  0  0  0  0  0  0  0  0  0  0
   12.7899    0.9506   24.9315 H   0  0  0  0  0  0  0  0  0  0  0  0
   11.4013   -1.4963   21.6690 H   0  0  0  0  0  0  0  0  0  0  0  0
    4.3785    2.0112   17.4257 H   0  0  0  0  0  0  0  0  0  0  0  0
    5.6780    0.7321   22.0906 H   0  0  0  0  0  0  0  0  0  0  0  0
    9.5426   -4.5618   23.7797 H   0  0  0  0  0  0  0  0  0  0  0  0
    7.1914   -1.8824   26.1903 H   0  0  0  0  0  0  0  0  0  0  0  0
   10.2669   -2.6745   22.3854 H   0  0  0  0  0  0  0  0  0  0  0  0
    7.8690   -0.0020   24.7587 H   0  0  0  0  0  0  0  0  0  0  0  0
    7.6535   -5.7575   24.3148 H   0  0  0  0  0  0  0  0  0  0  0  0
    6.1962   -5.2737   25.2113 H   0  0  0  0  0  0  0  0  0  0  0  0
    6.6579   -3.7759   27.4290 H   0  0  0  0  0  0  0  0  0  0  0  0
    8.3696   -3.4320   27.7610 H   0  0  0  0  0  0  0  0  0  0  0  0
    6.7582   -7.5752   25.8116 H   0  0  0  0  0  0  0  0  0  0  0  0
    8.4238   -7.1441   26.2130 H   0  0  0  0  0  0  0  0  0  0  0  0
    8.8287   -5.8300   28.1600 H   0  0  0  0  0  0  0  0  0  0  0  0
    7.4508   -5.3251   29.1440 H   0  0  0  0  0  0  0  0  0  0  0  0
   10.4561    1.0772   24.1620 H   0  0  0  0  0  0  0  0  0  0  0  0
   10.8743    1.5008   22.5014 H   0  0  0  0  0  0  0  0  0  0  0  0
    8.6688   -1.5655   20.3666 H   0  0  0  0  0  0  0  0  0  0  0  0
    7.4298   -1.1908   21.5994 H   0  0  0  0  0  0  0  0  0  0  0  0
  1  2  1  0  0  0  0
  1  3  2  0  0  0  0
  2  6  2  0  0  0  0
  3  7  1  0  0  0  0
  4  5  1  0  0  0  0
  4  8  2  0  0  0  0
  5  9  2  0  0  0  0
  6 14  1  0  0  0  0
  7 14  2  0  0  0  0
  8 15  1  0  0  0  0
  9 16  1  0  0  0  0
 10 12  2  0  0  0  0
 10 17  1  0  0  0  0
 11 13  1  0  0  0  0
 11 17  2  0  0  0  0
 12 18  1  0  0  0  0
 13 18  2  0  0  0  0
 14 24  1  0  0  0  0
 15 16  2  0  0  0  0
 15 26  1  0  0  0  0
 16 28  1  0  0  0  0
 17 29  1  0  0  0  0
 18 30  1  0  0  0  0
 19 25  1  0  0  0  0
 19 30  1  0  0  0  0
 19 31  2  0  0  0  0
 20 22  1  0  0  0  0
 20 29  1  0  0  0  0
 21 23  1  0  0  0  0
 21 29  1  0  0  0  0
 22 32  1  0  0  0  0
 23 32  1  0  0  0  0
 24 30  1  0  0  0  0
 25 28  1  0  0  0  0
 26 27  2  0  0  0  0
 27 28  1  0  0  0  0
  1 33  1  0  0  0  0
  2 34  1  0  0  0  0
  3 35  1  0  0  0  0
  4 36  1  0  0  0  0
  5 37  1  0  0  0  0
  6 38  1  0  0  0  0
  7 39  1  0  0  0  0
  8 40  1  0  0  0  0
  9 41  1  0  0  0  0
 10 42  1  0  0  0  0
 11 43  1  0  0  0  0
 12 44  1  0  0  0  0
 13 45  1  0  0  0  0
 20 46  1  0  0  0  0
 20 47  1  0  0  0  0
 21 48  1  0  0  0  0
 21 49  1  0  0  0  0
 22 50  1  0  0  0  0
 22 51  1  0  0  0  0
 23 52  1  0  0  0  0
 23 53  1  0  0  0  0
 24 54  1  0  0  0  0
 24 55  1  0  0  0  0
 25 56  1  0  0  0  0
 25 57  1  0  0  0  0
M  END
> <clash_score>
0

> <docking_score>
-10.175411224365234

> <overlap_score>
0.9890322685241699

$$$$
BENZO_360_1
  -OEChem-08222022473D

 54 58  0     0  0  0  0  0  0999 V2000
    3.8860    2.1050   19.5250 C   0  0  0  0  0  0  0  0  0  0  0  0
    4.2460    1.7520   20.8250 C   0  0  0  0  0  0  0  0  0  0  0  0
    4.6610    1.7170   18.4380 C   0  0  0  0  0  0  0  0  0  0  0  0
    5.3890    1.0010   21.0690 C   0  0  0  0  0  0  0  0  0  0  0  0
    9.1890   -3.5540   24.0140 C   0  0  0  0  0  0  0  0  0  0  0  0
    7.8700   -2.0610   25.3550 C   0  0  0  0  0  0  0  0  0  0  0  0
    9.5890   -2.4950   23.2210 C   0  0  0  0  0  0  0  0  0  0  0  0
    8.2550   -1.0010   24.5520 C   0  0  0  0  0  0  0  0  0  0  0  0
   12.6785   -0.3936   24.5018 C   0  0  0  0  0  0  0  0  0  0  0  0
   13.7775   -1.2037   24.3186 C   0  0  0  0  0  0  0  0  0  0  0  0
   12.5401   -0.8378   22.2246 C   0  0  0  0  0  0  0  0  0  0  0  0
   11.9616   -0.1817   23.2889 C   0  0  0  0  0  0  0  0  0  0  0  0
    5.7970    0.9500   18.6730 C   0  0  0  0  0  0  0  0  0  0  0  0
    6.1460    0.6070   19.9750 C   0  0  0  0  0  0  0  0  0  0  0  0
    8.3450   -3.3440   25.0980 C   0  0  0  0  0  0  0  0  0  0  0  0
    9.1280   -1.2090   23.4870 C   0  0  0  0  0  0  0  0  0  0  0  0
    9.0430    0.2380   21.4940 C   0  0  0  0  0  0  0  0  0  0  0  0
    8.9524   -5.2012   26.6600 C   0  0  0  0  0  0  0  0  0  0  0  0
    6.6112   -4.5068   26.4379 C   0  0  0  0  0  0  0  0  0  0  0  0
    8.9037   -4.7845   28.1261 C   0  0  0  0  0  0  0  0  0  0  0  0
    6.6374   -4.1243   27.9184 C   0  0  0  0  0  0  0  0  0  0  0  0
   10.7220    0.6590   23.1850 C   0  0  0  0  0  0  0  0  0  0  0  0
    8.0950   -0.7700   20.8440 C   0  0  0  0  0  0  0  0  0  0  0  0
    6.7100    0.3850   17.8100 N   0  0  0  0  0  0  0  0  0  0  0  0
    7.5840   -0.2700   18.5160 N   0  0  0  0  0  0  0  0  0  0  0  0
    7.2710   -0.1460   19.8310 N   0  0  0  0  0  0  0  0  0  0  0  0
    7.9775   -4.4014   25.9151 N   0  0  0  0  0  0  0  0  0  0  0  0
    9.5820   -0.1080   22.7000 N   0  0  0  0  0  0  0  0  0  0  0  0
    9.2950    1.3000   20.9480 O   0  0  0  0  0  0  0  0  0  0  0  0
    7.5729   -4.9391   28.6338 O   0  0  0  0  0  0  0  0  0  0  0  0
   13.9416   -1.7050   22.6894 S   0  0  0  0  0  0  0  0  0  0  0  0
    2.9847    2.6930   19.3611 H   0  0  0  0  0  0  0  0  0  0  0  0
    3.6232    2.0694   21.6565 H   0  0  0  0  0  0  0  0  0  0  0  0
    4.3785    2.0112   17.4257 H   0  0  0  0  0  0  0  0  0  0  0  0
    5.6780    0.7321   22.0906 H   0  0  0  0  0  0  0  0  0  0  0  0
    9.5426   -4.5618   23.7797 H   0  0  0  0  0  0  0  0  0  0  0  0
    7.1914   -1.8824   26.1903 H   0  0  0  0  0  0  0  0  0  0  0  0
   10.2669   -2.6745   22.3854 H   0  0  0  0  0  0  0  0  0  0  0  0
    7.8690   -0.0020   24.7587 H   0  0  0  0  0  0  0  0  0  0  0  0
   12.4058    0.0253   25.4622 H   0  0  0  0  0  0  0  0  0  0  0  0
   14.4923   -1.5245   25.0631 H   0  0  0  0  0  0  0  0  0  0  0  0
   12.2108   -0.8511   21.1948 H   0  0  0  0  0  0  0  0  0  0  0  0
    9.9615   -5.0500   26.2711 H   0  0  0  0  0  0  0  0  0  0  0  0
    8.6935   -6.2597   26.5720 H   0  0  0  0  0  0  0  0  0  0  0  0
    6.2628   -5.5350   26.3330 H   0  0  0  0  0  0  0  0  0  0  0  0
    5.9347   -3.8423   25.9023 H   0  0  0  0  0  0  0  0  0  0  0  0
    9.5597   -5.4275   28.7166 H   0  0  0  0  0  0  0  0  0  0  0  0
    9.2344   -3.7511   28.2636 H   0  0  0  0  0  0  0  0  0  0  0  0
    6.8874   -3.0657   28.0553 H   0  0  0  0  0  0  0  0  0  0  0  0
    5.6495   -4.2893   28.3591 H   0  0  0  0  0  0  0  0  0  0  0  0
   10.4561    1.0772   24.1620 H   0  0  0  0  0  0  0  0  0  0  0  0
   10.8743    1.5008   22.5014 H   0  0  0  0  0  0  0  0  0  0  0  0
    8.6688   -1.5655   20.3666 H   0  0  0  0  0  0  0  0  0  0  0  0
    7.4298   -1.1908   21.5994 H   0  0  0  0  0  0  0  0  0  0  0  0
  1  2  1  0  0  0  0
  1  3  2  0  0  0  0
  2  4  2  0  0  0  0
  3 13  1  0  0  0  0
  4 14  1  0  0  0  0
  5  7  2  0  0  0  0
  5 15  1  0  0  0  0
  6  8  1  0  0  0  0
  6 15  2  0  0  0  0
  7 16  1  0  0  0  0
  8 16  2  0  0  0  0
  9 10  2  0  0  0  0
  9 12  1  0  0  0  0
 10 31  1  0  0  0  0
 11 12  2  0  0  0  0
 11 31  1  0  0  0  0
 12 22  1  0  0  0  0
 13 14  2  0  0  0  0
 13 24  1  0  0  0  0
 14 26  1  0  0  0  0
 15 27  1  0  0  0  0
 16 28  1  0  0  0  0
 17 23  1  0  0  0  0
 17 28  1  0  0  0  0
 17 29  2  0  0  0  0
 18 20  1  0  0  0  0
 18 27  1  0  0  0  0
 19 21  1  0  0  0  0
 19 27  1  0  0  0  0
 20 30  1  0  0  0  0
 21 30  1  0  0  0  0
 22 28  1  0  0  0  0
 23 26  1  0  0  0  0
 24 25  2  0  0  0  0
 25 26  1  0  0  0  0
  1 32  1  0  0  0  0
  2 33  1  0  0  0  0
  3 34  1  0  0  0  0
  4 35  1  0  0  0  0
  5 36  1  0  0  0  0
  6 37  1  0  0  0  0
  7 38  1  0  0  0  0
  8 39  1  0  0  0  0
  9 40  1  0  0  0  0
 10 41  1  0  0  0  0
 11 42  1  0  0  0  0
 18 43  1  0  0  0  0
 18 44  1  0  0  0  0
 19 45  1  0  0  0  0
 19 46  1  0  0  0  0
 20 47  1  0  0  0  0
 20 48  1  0  0  0  0
 21 49  1  0  0  0  0
 21 50  1  0  0  0  0
 22 51  1  0  0  0  0
 22 52  1  0  0  0  0
 23 53  1  0  0  0  0
 23 54  1  0  0  0  0
M  END
> <clash_score>
0

> <docking_score>
-10.449935913085938

> <overlap_score>
0.9805795550346375

$$$$
BENZO_358_1
  -OEChem-08222022473D

 58 62  0     0  0  0  0  0  0999 V2000
    3.8860    2.1050   19.5250 C   0  0  0  0  0  0  0  0  0  0  0  0
    4.2460    1.7520   20.8250 C   0  0  0  0  0  0  0  0  0  0  0  0
   13.7501   -1.1157   24.6176 C   0  0  0  0  0  0  0  0  0  0  0  0
   12.5991   -0.3339   24.5202 C   0  0  0  0  0  0  0  0  0  0  0  0
    4.6610    1.7170   18.4380 C   0  0  0  0  0  0  0  0  0  0  0  0
    5.3890    1.0010   21.0690 C   0  0  0  0  0  0  0  0  0  0  0  0
    9.1890   -3.5540   24.0140 C   0  0  0  0  0  0  0  0  0  0  0  0
    7.8700   -2.0610   25.3550 C   0  0  0  0  0  0  0  0  0  0  0  0
    9.5890   -2.4950   23.2210 C   0  0  0  0  0  0  0  0  0  0  0  0
    8.2550   -1.0010   24.5520 C   0  0  0  0  0  0  0  0  0  0  0  0
   14.2636   -1.7454   23.4838 C   0  0  0  0  0  0  0  0  0  0  0  0
   12.4750   -0.8115   22.1551 C   0  0  0  0  0  0  0  0  0  0  0  0
   11.9616   -0.1817   23.2889 C   0  0  0  0  0  0  0  0  0  0  0  0
    5.7970    0.9500   18.6730 C   0  0  0  0  0  0  0  0  0  0  0  0
    6.1460    0.6070   19.9750 C   0  0  0  0  0  0  0  0  0  0  0  0
    8.3450   -3.3440   25.0980 C   0  0  0  0  0  0  0  0  0  0  0  0
    9.1280   -1.2090   23.4870 C   0  0  0  0  0  0  0  0  0  0  0  0
   13.6260   -1.5933   22.2526 C   0  0  0  0  0  0  0  0  0  0  0  0
    7.2757   -5.5631   25.4492 C   0  0  0  0  0  0  0  0  0  0  0  0
    9.0430    0.2380   21.4940 C   0  0  0  0  0  0  0  0  0  0  0  0
    6.9626   -6.6001   26.5133 C   0  0  0  0  0  0  0  0  0  0  0  0
    6.3764   -5.9422   27.7501 C   0  0  0  0  0  0  0  0  0  0  0  0
    7.2660   -4.8258   28.2881 C   0  0  0  0  0  0  0  0  0  0  0  0
    8.4098   -4.4623   27.3426 C   0  0  0  0  0  0  0  0  0  0  0  0
   10.7220    0.6590   23.1850 C   0  0  0  0  0  0  0  0  0  0  0  0
    8.0950   -0.7700   20.8440 C   0  0  0  0  0  0  0  0  0  0  0  0
    6.7100    0.3850   17.8100 N   0  0  0  0  0  0  0  0  0  0  0  0
    7.5840   -0.2700   18.5160 N   0  0  0  0  0  0  0  0  0  0  0  0
    7.2710   -0.1460   19.8310 N   0  0  0  0  0  0  0  0  0  0  0  0
    7.9658   -4.4384   25.9449 N   0  0  0  0  0  0  0  0  0  0  0  0
    9.5820   -0.1080   22.7000 N   0  0  0  0  0  0  0  0  0  0  0  0
    6.9858   -5.7908   24.2753 O   0  0  0  0  0  0  0  0  0  0  0  0
    9.2950    1.3000   20.9480 O   0  0  0  0  0  0  0  0  0  0  0  0
   14.2594   -2.3714   20.8543 Cl  0  0  0  0  0  0  0  0  0  0  0  0
    2.9847    2.6930   19.3611 H   0  0  0  0  0  0  0  0  0  0  0  0
    3.6232    2.0694   21.6565 H   0  0  0  0  0  0  0  0  0  0  0  0
   14.2462   -1.2340   25.5766 H   0  0  0  0  0  0  0  0  0  0  0  0
   12.2060    0.1530   25.4088 H   0  0  0  0  0  0  0  0  0  0  0  0
    4.3785    2.0112   17.4257 H   0  0  0  0  0  0  0  0  0  0  0  0
    5.6780    0.7321   22.0906 H   0  0  0  0  0  0  0  0  0  0  0  0
    9.5436   -4.5614   23.7799 H   0  0  0  0  0  0  0  0  0  0  0  0
    7.1918   -1.8823   26.1906 H   0  0  0  0  0  0  0  0  0  0  0  0
   10.2676   -2.6754   22.3861 H   0  0  0  0  0  0  0  0  0  0  0  0
    7.8686   -0.0026   24.7598 H   0  0  0  0  0  0  0  0  0  0  0  0
   15.1613   -2.3520   23.5747 H   0  0  0  0  0  0  0  0  0  0  0  0
   11.9745   -0.6893   21.1973 H   0  0  0  0  0  0  0  0  0  0  0  0
    6.2500   -7.3027   26.1097 H   0  0  0  0  0  0  0  0  0  0  0  0
    7.8838   -7.1078   26.7574 H   0  0  0  0  0  0  0  0  0  0  0  0
    5.3690   -5.5363   27.5214 H   0  0  0  0  0  0  0  0  0  0  0  0
    6.2178   -6.7054   28.5384 H   0  0  0  0  0  0  0  0  0  0  0  0
    6.6498   -3.9225   28.4807 H   0  0  0  0  0  0  0  0  0  0  0  0
    7.6764   -5.1138   29.2803 H   0  0  0  0  0  0  0  0  0  0  0  0
    8.7796   -3.4700   27.5826 H   0  0  0  0  0  0  0  0  0  0  0  0
    9.2112   -5.1853   27.4497 H   0  0  0  0  0  0  0  0  0  0  0  0
   10.4561    1.0772   24.1620 H   0  0  0  0  0  0  0  0  0  0  0  0
   10.8743    1.5008   22.5014 H   0  0  0  0  0  0  0  0  0  0  0  0
    8.6688   -1.5655   20.3666 H   0  0  0  0  0  0  0  0  0  0  0  0
    7.4298   -1.1908   21.5994 H   0  0  0  0  0  0  0  0  0  0  0  0
  1  2  1  0  0  0  0
  1  5  2  0  0  0  0
  2  6  2  0  0  0  0
  3  4  2  0  0  0  0
  3 11  1  0  0  0  0
  4 13  1  0  0  0  0
  5 14  1  0  0  0  0
  6 15  1  0  0  0  0
  7  9  2  0  0  0  0
  7 16  1  0  0  0  0
  8 10  1  0  0  0  0
  8 16  2  0  0  0  0
  9 17  1  0  0  0  0
 10 17  2  0  0  0  0
 11 18  2  0  0  0  0
 12 13  2  0  0  0  0
 12 18  1  0  0  0  0
 13 25  1  0  0  0  0
 14 15  2  0  0  0  0
 14 27  1  0  0  0  0
 15 29  1  0  0  0  0
 16 30  1  0  0  0  0
 17 31  1  0  0  0  0
 18 34  1  0  0  0  0
 19 21  1  0  0  0  0
 19 30  1  0  0  0  0
 19 32  2  0  0  0  0
 20 26  1  0  0  0  0
 20 31  1  0  0  0  0
 20 33  2  0  0  0  0
 21 22  1  0  0  0  0
 22 23  1  0  0  0  0
 23 24  1  0  0  0  0
 24 30  1  0  0  0  0
 25 31  1  0  0  0  0
 26 29  1  0  0  0  0
 27 28  2  0  0  0  0
 28 29  1  0  0  0  0
  1 35  1  0  0  0  0
  2 36  1  0  0  0  0
  3 37  1  0  0  0  0
  4 38  1  0  0  0  0
  5 39  1  0  0  0  0
  6 40  1  0  0  0  0
  7 41  1  0  0  0  0
  8 42  1  0  0  0  0
  9 43  1  0  0  0  0
 10 44  1  0  0  0  0
 11 45  1  0  0  0  0
 12 46  1  0  0  0  0
 21 47  1  0  0  0  0
 21 48  1  0  0  0  0
 22 49  1  0  0  0  0
 22 50  1  0  0  0  0
 23 51  1  0  0  0  0
 23 52  1  0  0  0  0
 24 53  1  0  0  0  0
 24 54  1  0  0  0  0
 25 55  1  0  0  0  0
 25 56  1  0  0  0  0
 26 57  1  0  0  0  0
 26 58  1  0  0  0  0
M  END
> <clash_score>
0

> <docking_score>
-8.904964447021484

> <overlap_score>
0.9984303712844849

$$$$
BENZO_365_1
  -OEChem-08222022473D

 53 56  0     0  0  0  0  0  0999 V2000
   14.2641   -1.7450   23.4813 C   0  0  0  0  0  0  0  0  0  0  0  0
   14.0779   -0.6681   24.3480 C   0  0  0  0  0  0  0  0  0  0  0  0
   13.2991   -2.0403   22.5184 C   0  0  0  0  0  0  0  0  0  0  0  0
    3.8860    2.1050   19.5250 C   0  0  0  0  0  0  0  0  0  0  0  0
    4.2460    1.7520   20.8250 C   0  0  0  0  0  0  0  0  0  0  0  0
   12.9266    0.1135   24.2518 C   0  0  0  0  0  0  0  0  0  0  0  0
   12.1478   -1.2587   22.4222 C   0  0  0  0  0  0  0  0  0  0  0  0
    4.6610    1.7170   18.4380 C   0  0  0  0  0  0  0  0  0  0  0  0
    5.3890    1.0010   21.0690 C   0  0  0  0  0  0  0  0  0  0  0  0
    9.5890   -2.4950   23.2210 C   0  0  0  0  0  0  0  0  0  0  0  0
    8.2550   -1.0010   24.5520 C   0  0  0  0  0  0  0  0  0  0  0  0
    9.1890   -3.5540   24.0140 C   0  0  0  0  0  0  0  0  0  0  0  0
    7.8700   -2.0610   25.3550 C   0  0  0  0  0  0  0  0  0  0  0  0
    7.5840   -0.2700   18.5160 C   0  0  0  0  0  0  0  0  0  0  0  0
   11.9616   -0.1817   23.2889 C   0  0  0  0  0  0  0  0  0  0  0  0
    5.7970    0.9500   18.6730 C   0  0  0  0  0  0  0  0  0  0  0  0
    6.1460    0.6070   19.9750 C   0  0  0  0  0  0  0  0  0  0  0  0
    9.1280   -1.2090   23.4870 C   0  0  0  0  0  0  0  0  0  0  0  0
    8.3450   -3.3440   25.0980 C   0  0  0  0  0  0  0  0  0  0  0  0
    9.0430    0.2380   21.4940 C   0  0  0  0  0  0  0  0  0  0  0  0
    8.4652   -5.7552   25.6625 C   0  0  0  0  0  0  0  0  0  0  0  0
    7.1035   -4.1987   27.0666 C   0  0  0  0  0  0  0  0  0  0  0  0
   10.7220    0.6590   23.1850 C   0  0  0  0  0  0  0  0  0  0  0  0
    8.0950   -0.7700   20.8440 C   0  0  0  0  0  0  0  0  0  0  0  0
    6.7100    0.3850   17.8100 N   0  0  0  0  0  0  0  0  0  0  0  0
    7.2710   -0.1460   19.8310 N   0  0  0  0  0  0  0  0  0  0  0  0
    9.5820   -0.1080   22.7000 N   0  0  0  0  0  0  0  0  0  0  0  0
    7.9731   -4.4180   25.9279 N   0  0  0  0  0  0  0  0  0  0  0  0
    9.2950    1.3000   20.9480 O   0  0  0  0  0  0  0  0  0  0  0  0
   15.1613   -2.3527   23.5555 H   0  0  0  0  0  0  0  0  0  0  0  0
   14.8297   -0.4373   25.0971 H   0  0  0  0  0  0  0  0  0  0  0  0
   13.4443   -2.8780   21.8427 H   0  0  0  0  0  0  0  0  0  0  0  0
    2.9844    2.6932   19.3613 H   0  0  0  0  0  0  0  0  0  0  0  0
    3.6232    2.0695   21.6567 H   0  0  0  0  0  0  0  0  0  0  0  0
   12.7899    0.9506   24.9315 H   0  0  0  0  0  0  0  0  0  0  0  0
   11.4013   -1.4963   21.6690 H   0  0  0  0  0  0  0  0  0  0  0  0
    4.3779    2.0108   17.4276 H   0  0  0  0  0  0  0  0  0  0  0  0
    5.6763    0.7334   22.0897 H   0  0  0  0  0  0  0  0  0  0  0  0
   10.2682   -2.6746   22.3864 H   0  0  0  0  0  0  0  0  0  0  0  0
    7.8692   -0.0022   24.7600 H   0  0  0  0  0  0  0  0  0  0  0  0
    9.5433   -4.5619   23.7809 H   0  0  0  0  0  0  0  0  0  0  0  0
    7.1923   -1.8829   26.1908 H   0  0  0  0  0  0  0  0  0  0  0  0
    8.4216   -0.8246   18.1565 H   0  0  0  0  0  0  0  0  0  0  0  0
    8.0648   -6.4500   26.4155 H   0  0  0  0  0  0  0  0  0  0  0  0
    8.1404   -6.0732   24.6608 H   0  0  0  0  0  0  0  0  0  0  0  0
    9.5642   -5.7573   25.7095 H   0  0  0  0  0  0  0  0  0  0  0  0
    6.9301   -5.1530   27.5855 H   0  0  0  0  0  0  0  0  0  0  0  0
    7.5775   -3.4864   27.7580 H   0  0  0  0  0  0  0  0  0  0  0  0
    6.1427   -3.7897   26.7207 H   0  0  0  0  0  0  0  0  0  0  0  0
   10.4561    1.0772   24.1620 H   0  0  0  0  0  0  0  0  0  0  0  0
   10.8743    1.5008   22.5014 H   0  0  0  0  0  0  0  0  0  0  0  0
    8.6626   -1.5629   20.3596 H   0  0  0  0  0  0  0  0  0  0  0  0
    7.4236   -1.1883   21.5924 H   0  0  0  0  0  0  0  0  0  0  0  0
  1  2  1  0  0  0  0
  1  3  2  0  0  0  0
  2  6  2  0  0  0  0
  3  7  1  0  0  0  0
  4  5  1  0  0  0  0
  4  8  2  0  0  0  0
  5  9  2  0  0  0  0
  6 15  1  0  0  0  0
  7 15  2  0  0  0  0
  8 16  1  0  0  0  0
  9 17  1  0  0  0  0
 10 12  2  0  0  0  0
 10 18  1  0  0  0  0
 11 13  1  0  0  0  0
 11 18  2  0  0  0  0
 12 19  1  0  0  0  0
 13 19  2  0  0  0  0
 14 25  2  0  0  0  0
 14 26  1  0  0  0  0
 15 23  1  0  0  0  0
 16 17  2  0  0  0  0
 16 25  1  0  0  0  0
 17 26  1  0  0  0  0
 18 27  1  0  0  0  0
 19 28  1  0  0  0  0
 20 24  1  0  0  0  0
 20 27  1  0  0  0  0
 20 29  2  0  0  0  0
 21 28  1  0  0  0  0
 22 28  1  0  0  0  0
 23 27  1  0  0  0  0
 24 26  1  0  0  0  0
  1 30  1  0  0  0  0
  2 31  1  0  0  0  0
  3 32  1  0  0  0  0
  4 33  1  0  0  0  0
  5 34  1  0  0  0  0
  6 35  1  0  0  0  0
  7 36  1  0  0  0  0
  8 37  1  0  0  0  0
  9 38  1  0  0  0  0
 10 39  1  0  0  0  0
 11 40  1  0  0  0  0
 12 41  1  0  0  0  0
 13 42  1  0  0  0  0
 14 43  1  0  0  0  0
 21 44  1  0  0  0  0
 21 45  1  0  0  0  0
 21 46  1  0  0  0  0
 22 47  1  0  0  0  0
 22 48  1  0  0  0  0
 22 49  1  0  0  0  0
 23 50  1  0  0  0  0
 23 51  1  0  0  0  0
 24 52  1  0  0  0  0
 24 53  1  0  0  0  0
M  END
> <clash_score>
0

> <docking_score>
-10.454960823059082

> <overlap_score>
0.934486985206604

$$$$
BENZO_362_1
  -OEChem-08222022473D

 57 61  0     0  0  0  0  0  0999 V2000
    3.8860    2.1050   19.5250 C   0  0  0  0  0  0  0  0  0  0  0  0
    4.2460    1.7520   20.8250 C   0  0  0  0  0  0  0  0  0  0  0  0
   13.7501   -1.1157   24.6176 C   0  0  0  0  0  0  0  0  0  0  0  0
   12.5992   -0.3339   24.5202 C   0  0  0  0  0  0  0  0  0  0  0  0
    4.6610    1.7170   18.4380 C   0  0  0  0  0  0  0  0  0  0  0  0
    5.3890    1.0010   21.0690 C   0  0  0  0  0  0  0  0  0  0  0  0
    9.1890   -3.5540   24.0140 C   0  0  0  0  0  0  0  0  0  0  0  0
    7.8700   -2.0610   25.3550 C   0  0  0  0  0  0  0  0  0  0  0  0
    9.5890   -2.4950   23.2210 C   0  0  0  0  0  0  0  0  0  0  0  0
    8.2550   -1.0010   24.5520 C   0  0  0  0  0  0  0  0  0  0  0  0
   14.2636   -1.7454   23.4838 C   0  0  0  0  0  0  0  0  0  0  0  0
   12.4750   -0.8115   22.1551 C   0  0  0  0  0  0  0  0  0  0  0  0
   11.9616   -0.1817   23.2889 C   0  0  0  0  0  0  0  0  0  0  0  0
    5.7970    0.9500   18.6730 C   0  0  0  0  0  0  0  0  0  0  0  0
    6.1460    0.6070   19.9750 C   0  0  0  0  0  0  0  0  0  0  0  0
    8.3450   -3.3440   25.0980 C   0  0  0  0  0  0  0  0  0  0  0  0
    9.1280   -1.2090   23.4870 C   0  0  0  0  0  0  0  0  0  0  0  0
   13.6260   -1.5933   22.2526 C   0  0  0  0  0  0  0  0  0  0  0  0
    9.0430    0.2380   21.4940 C   0  0  0  0  0  0  0  0  0  0  0  0
    8.9524   -5.2012   26.6600 C   0  0  0  0  0  0  0  0  0  0  0  0
    6.6112   -4.5068   26.4379 C   0  0  0  0  0  0  0  0  0  0  0  0
    8.9037   -4.7845   28.1261 C   0  0  0  0  0  0  0  0  0  0  0  0
    6.6374   -4.1243   27.9184 C   0  0  0  0  0  0  0  0  0  0  0  0
   10.7220    0.6590   23.1850 C   0  0  0  0  0  0  0  0  0  0  0  0
    8.0950   -0.7700   20.8440 C   0  0  0  0  0  0  0  0  0  0  0  0
    6.7100    0.3850   17.8100 N   0  0  0  0  0  0  0  0  0  0  0  0
    7.5840   -0.2700   18.5160 N   0  0  0  0  0  0  0  0  0  0  0  0
    7.2710   -0.1460   19.8310 N   0  0  0  0  0  0  0  0  0  0  0  0
    7.9775   -4.4014   25.9151 N   0  0  0  0  0  0  0  0  0  0  0  0
    9.5820   -0.1080   22.7000 N   0  0  0  0  0  0  0  0  0  0  0  0
    9.2950    1.3000   20.9480 O   0  0  0  0  0  0  0  0  0  0  0  0
    7.5729   -4.9391   28.6338 O   0  0  0  0  0  0  0  0  0  0  0  0
   14.2594   -2.3714   20.8543 Cl  0  0  0  0  0  0  0  0  0  0  0  0
    2.9847    2.6930   19.3611 H   0  0  0  0  0  0  0  0  0  0  0  0
    3.6232    2.0694   21.6565 H   0  0  0  0  0  0  0  0  0  0  0  0
   14.2462   -1.2340   25.5766 H   0  0  0  0  0  0  0  0  0  0  0  0
   12.2060    0.1530   25.4088 H   0  0  0  0  0  0  0  0  0  0  0  0
    4.3785    2.0112   17.4257 H   0  0  0  0  0  0  0  0  0  0  0  0
    5.6780    0.7321   22.0906 H   0  0  0  0  0  0  0  0  0  0  0  0
    9.5426   -4.5618   23.7797 H   0  0  0  0  0  0  0  0  0  0  0  0
    7.1914   -1.8824   26.1903 H   0  0  0  0  0  0  0  0  0  0  0  0
   10.2669   -2.6745   22.3854 H   0  0  0  0  0  0  0  0  0  0  0  0
    7.8690   -0.0020   24.7587 H   0  0  0  0  0  0  0  0  0  0  0  0
   15.1613   -2.3520   23.5747 H   0  0  0  0  0  0  0  0  0  0  0  0
   11.9745   -0.6893   21.1973 H   0  0  0  0  0  0  0  0  0  0  0  0
    9.9615   -5.0500   26.2711 H   0  0  0  0  0  0  0  0  0  0  0  0
    8.6935   -6.2597   26.5720 H   0  0  0  0  0  0  0  0  0  0  0  0
    6.2628   -5.5350   26.3330 H   0  0  0  0  0  0  0  0  0  0  0  0
    5.9347   -3.8423   25.9023 H   0  0  0  0  0  0  0  0  0  0  0  0
    9.5597   -5.4275   28.7166 H   0  0  0  0  0  0  0  0  0  0  0  0
    9.2344   -3.7511   28.2636 H   0  0  0  0  0  0  0  0  0  0  0  0
    6.8874   -3.0657   28.0553 H   0  0  0  0  0  0  0  0  0  0  0  0
    5.6495   -4.2893   28.3591 H   0  0  0  0  0  0  0  0  0  0  0  0
   10.4561    1.0772   24.1620 H   0  0  0  0  0  0  0  0  0  0  0  0
   10.8743    1.5008   22.5014 H   0  0  0  0  0  0  0  0  0  0  0  0
    8.6688   -1.5655   20.3666 H   0  0  0  0  0  0  0  0  0  0  0  0
    7.4298   -1.1908   21.5994 H   0  0  0  0  0  0  0  0  0  0  0  0
  1  2  1  0  0  0  0
  1  5  2  0  0  0  0
  2  6  2  0  0  0  0
  3  4  2  0  0  0  0
  3 11  1  0  0  0  0
  4 13  1  0  0  0  0
  5 14  1  0  0  0  0
  6 15  1  0  0  0  0
  7  9  2  0  0  0  0
  7 16  1  0  0  0  0
  8 10  1  0  0  0  0
  8 16  2  0  0  0  0
  9 17  1  0  0  0  0
 10 17  2  0  0  0  0
 11 18  2  0  0  0  0
 12 13  2  0  0  0  0
 12 18  1  0  0  0  0
 13 24  1  0  0  0  0
 14 15  2  0  0  0  0
 14 26  1  0  0  0  0
 15 28  1  0  0  0  0
 16 29  1  0  0  0  0
 17 30  1  0  0  0  0
 18 33  1  0  0  0  0
 19 25  1  0  0  0  0
 19 30  1  0  0  0  0
 19 31  2  0  0  0  0
 20 22  1  0  0  0  0
 20 29  1  0  0  0  0
 21 23  1  0  0  0  0
 21 29  1  0  0  0  0
 22 32  1  0  0  0  0
 23 32  1  0  0  0  0
 24 30  1  0  0  0  0
 25 28  1  0  0  0  0
 26 27  2  0  0  0  0
 27 28  1  0  0  0  0
  1 34  1  0  0  0  0
  2 35  1  0  0  0  0
  3 36  1  0  0  0  0
  4 37  1  0  0  0  0
  5 38  1  0  0  0  0
  6 39  1  0  0  0  0
  7 40  1  0  0  0  0
  8 41  1  0  0  0  0
  9 42  1  0  0  0  0
 10 43  1  0  0  0  0
 11 44  1  0  0  0  0
 12 45  1  0  0  0  0
 20 46  1  0  0  0  0
 20 47  1  0  0  0  0
 21 48  1  0  0  0  0
 21 49  1  0  0  0  0
 22 50  1  0  0  0  0
 22 51  1  0  0  0  0
 23 52  1  0  0  0  0
 23 53  1  0  0  0  0
 24 54  1  0  0  0  0
 24 55  1  0  0  0  0
 25 56  1  0  0  0  0
 25 57  1  0  0  0  0
M  END
> <clash_score>
0

> <docking_score>
-9.963133811950684

> <overlap_score>
1.0017138719558716

$$$$
BENZO_364_1
  -OEChem-08222022473D

 50 53  0     0  0  0  0  0  0999 V2000
    3.8860    2.1050   19.5250 C   0  0  0  0  0  0  0  0  0  0  0  0
    4.2460    1.7520   20.8250 C   0  0  0  0  0  0  0  0  0  0  0  0
    4.6610    1.7170   18.4380 C   0  0  0  0  0  0  0  0  0  0  0  0
    5.3890    1.0010   21.0690 C   0  0  0  0  0  0  0  0  0  0  0  0
    9.5890   -2.4950   23.2210 C   0  0  0  0  0  0  0  0  0  0  0  0
    8.2550   -1.0010   24.5520 C   0  0  0  0  0  0  0  0  0  0  0  0
    9.1890   -3.5540   24.0140 C   0  0  0  0  0  0  0  0  0  0  0  0
    7.8700   -2.0610   25.3550 C   0  0  0  0  0  0  0  0  0  0  0  0
   12.6785   -0.3937   24.5018 C   0  0  0  0  0  0  0  0  0  0  0  0
   13.7775   -1.2037   24.3186 C   0  0  0  0  0  0  0  0  0  0  0  0
   12.5401   -0.8378   22.2246 C   0  0  0  0  0  0  0  0  0  0  0  0
    7.5840   -0.2700   18.5160 C   0  0  0  0  0  0  0  0  0  0  0  0
   11.9616   -0.1817   23.2889 C   0  0  0  0  0  0  0  0  0  0  0  0
    5.7970    0.9500   18.6730 C   0  0  0  0  0  0  0  0  0  0  0  0
    6.1460    0.6070   19.9750 C   0  0  0  0  0  0  0  0  0  0  0  0
    9.1280   -1.2090   23.4870 C   0  0  0  0  0  0  0  0  0  0  0  0
    8.3450   -3.3440   25.0980 C   0  0  0  0  0  0  0  0  0  0  0  0
    9.0430    0.2380   21.4940 C   0  0  0  0  0  0  0  0  0  0  0  0
    7.2639   -5.5572   25.3803 C   0  0  0  0  0  0  0  0  0  0  0  0
    8.3059   -4.4049   27.3386 C   0  0  0  0  0  0  0  0  0  0  0  0
   10.7220    0.6590   23.1850 C   0  0  0  0  0  0  0  0  0  0  0  0
    8.0950   -0.7700   20.8440 C   0  0  0  0  0  0  0  0  0  0  0  0
    6.7100    0.3850   17.8100 N   0  0  0  0  0  0  0  0  0  0  0  0
    7.2710   -0.1460   19.8310 N   0  0  0  0  0  0  0  0  0  0  0  0
    9.5820   -0.1080   22.7000 N   0  0  0  0  0  0  0  0  0  0  0  0
    7.9731   -4.4180   25.9279 N   0  0  0  0  0  0  0  0  0  0  0  0
    9.2950    1.3000   20.9480 O   0  0  0  0  0  0  0  0  0  0  0  0
   13.9416   -1.7051   22.6894 S   0  0  0  0  0  0  0  0  0  0  0  0
    2.9844    2.6932   19.3613 H   0  0  0  0  0  0  0  0  0  0  0  0
    3.6232    2.0695   21.6567 H   0  0  0  0  0  0  0  0  0  0  0  0
    4.3779    2.0108   17.4276 H   0  0  0  0  0  0  0  0  0  0  0  0
    5.6763    0.7334   22.0897 H   0  0  0  0  0  0  0  0  0  0  0  0
   10.2682   -2.6746   22.3864 H   0  0  0  0  0  0  0  0  0  0  0  0
    7.8692   -0.0022   24.7600 H   0  0  0  0  0  0  0  0  0  0  0  0
    9.5433   -4.5619   23.7809 H   0  0  0  0  0  0  0  0  0  0  0  0
    7.1923   -1.8829   26.1908 H   0  0  0  0  0  0  0  0  0  0  0  0
   12.4058    0.0253   25.4623 H   0  0  0  0  0  0  0  0  0  0  0  0
   14.4923   -1.5246   25.0631 H   0  0  0  0  0  0  0  0  0  0  0  0
   12.2108   -0.8511   21.1948 H   0  0  0  0  0  0  0  0  0  0  0  0
    8.4216   -0.8246   18.1565 H   0  0  0  0  0  0  0  0  0  0  0  0
    7.0638   -6.2846   26.1808 H   0  0  0  0  0  0  0  0  0  0  0  0
    6.3117   -5.2211   24.9440 H   0  0  0  0  0  0  0  0  0  0  0  0
    7.8779   -6.0306   24.5999 H   0  0  0  0  0  0  0  0  0  0  0  0
    7.9321   -5.3245   27.8126 H   0  0  0  0  0  0  0  0  0  0  0  0
    9.3981   -4.3495   27.4569 H   0  0  0  0  0  0  0  0  0  0  0  0
    7.8404   -3.5306   27.8169 H   0  0  0  0  0  0  0  0  0  0  0  0
   10.4561    1.0772   24.1620 H   0  0  0  0  0  0  0  0  0  0  0  0
   10.8743    1.5008   22.5014 H   0  0  0  0  0  0  0  0  0  0  0  0
    8.6626   -1.5629   20.3596 H   0  0  0  0  0  0  0  0  0  0  0  0
    7.4236   -1.1883   21.5924 H   0  0  0  0  0  0  0  0  0  0  0  0
  1  2  1  0  0  0  0
  1  3  2  0  0  0  0
  2  4  2  0  0  0  0
  3 14  1  0  0  0  0
  4 15  1  0  0  0  0
  5  7  2  0  0  0  0
  5 16  1  0  0  0  0
  6  8  1  0  0  0  0
  6 16  2  0  0  0  0
  7 17  1  0  0  0  0
  8 17  2  0  0  0  0
  9 10  2  0  0  0  0
  9 13  1  0  0  0  0
 10 28  1  0  0  0  0
 11 13  2  0  0  0  0
 11 28  1  0  0  0  0
 12 23  2  0  0  0  0
 12 24  1  0  0  0  0
 13 21  1  0  0  0  0
 14 15  2  0  0  0  0
 14 23  1  0  0  0  0
 15 24  1  0  0  0  0
 16 25  1  0  0  0  0
 17 26  1  0  0  0  0
 18 22  1  0  0  0  0
 18 25  1  0  0  0  0
 18 27  2  0  0  0  0
 19 26  1  0  0  0  0
 20 26  1  0  0  0  0
 21 25  1  0  0  0  0
 22 24  1  0  0  0  0
  1 29  1  0  0  0  0
  2 30  1  0  0  0  0
  3 31  1  0  0  0  0
  4 32  1  0  0  0  0
  5 33  1  0  0  0  0
  6 34  1  0  0  0  0
  7 35  1  0  0  0  0
  8 36  1  0  0  0  0
  9 37  1  0  0  0  0
 10 38  1  0  0  0  0
 11 39  1  0  0  0  0
 12 40  1  0  0  0  0
 19 41  1  0  0  0  0
 19 42  1  0  0  0  0
 19 43  1  0  0  0  0
 20 44  1  0  0  0  0
 20 45  1  0  0  0  0
 20 46  1  0  0  0  0
 21 47  1  0  0  0  0
 21 48  1  0  0  0  0
 22 49  1  0  0  0  0
 22 50  1  0  0  0  0
M  END
> <clash_score>
0

> <docking_score>
-10.027680397033691

> <overlap_score>
0.9331511855125427

$$$$
BENZO_363_1
  -OEChem-08222022473D

 57 61  0     0  0  0  0  0  0999 V2000
    3.8860    2.1050   19.5250 C   0  0  0  0  0  0  0  0  0  0  0  0
    4.2460    1.7520   20.8250 C   0  0  0  0  0  0  0  0  0  0  0  0
    4.6610    1.7170   18.4380 C   0  0  0  0  0  0  0  0  0  0  0  0
    5.3890    1.0010   21.0690 C   0  0  0  0  0  0  0  0  0  0  0  0
    9.1890   -3.5540   24.0140 C   0  0  0  0  0  0  0  0  0  0  0  0
    7.8700   -2.0610   25.3550 C   0  0  0  0  0  0  0  0  0  0  0  0
    9.5890   -2.4950   23.2210 C   0  0  0  0  0  0  0  0  0  0  0  0
    8.2550   -1.0010   24.5520 C   0  0  0  0  0  0  0  0  0  0  0  0
   12.7320   -0.4464   24.4370 C   0  0  0  0  0  0  0  0  0  0  0  0
   12.5970   -0.8682   22.2832 C   0  0  0  0  0  0  0  0  0  0  0  0
   11.9616   -0.1817   23.2889 C   0  0  0  0  0  0  0  0  0  0  0  0
    5.7970    0.9500   18.6730 C   0  0  0  0  0  0  0  0  0  0  0  0
    6.1460    0.6070   19.9750 C   0  0  0  0  0  0  0  0  0  0  0  0
    8.3450   -3.3440   25.0980 C   0  0  0  0  0  0  0  0  0  0  0  0
    9.1280   -1.2090   23.4870 C   0  0  0  0  0  0  0  0  0  0  0  0
    9.0430    0.2380   21.4940 C   0  0  0  0  0  0  0  0  0  0  0  0
    8.9524   -5.2012   26.6600 C   0  0  0  0  0  0  0  0  0  0  0  0
    6.6112   -4.5068   26.4379 C   0  0  0  0  0  0  0  0  0  0  0  0
    8.9037   -4.7845   28.1261 C   0  0  0  0  0  0  0  0  0  0  0  0
    6.6374   -4.1243   27.9184 C   0  0  0  0  0  0  0  0  0  0  0  0
   14.6393   -2.3180   22.2082 C   0  0  0  0  0  0  0  0  0  0  0  0
   10.7220    0.6590   23.1850 C   0  0  0  0  0  0  0  0  0  0  0  0
    8.0950   -0.7700   20.8440 C   0  0  0  0  0  0  0  0  0  0  0  0
   13.7770   -1.2393   24.1852 N   0  0  0  0  0  0  0  0  0  0  0  0
    6.7100    0.3850   17.8100 N   0  0  0  0  0  0  0  0  0  0  0  0
    7.5840   -0.2700   18.5160 N   0  0  0  0  0  0  0  0  0  0  0  0
   13.6676   -1.4788   22.8673 N   0  0  0  0  0  0  0  0  0  0  0  0
    7.2710   -0.1460   19.8310 N   0  0  0  0  0  0  0  0  0  0  0  0
    7.9775   -4.4014   25.9151 N   0  0  0  0  0  0  0  0  0  0  0  0
    9.5820   -0.1080   22.7000 N   0  0  0  0  0  0  0  0  0  0  0  0
    9.2950    1.3000   20.9480 O   0  0  0  0  0  0  0  0  0  0  0  0
    7.5729   -4.9391   28.6338 O   0  0  0  0  0  0  0  0  0  0  0  0
    2.9847    2.6930   19.3611 H   0  0  0  0  0  0  0  0  0  0  0  0
    3.6232    2.0694   21.6565 H   0  0  0  0  0  0  0  0  0  0  0  0
    4.3785    2.0112   17.4257 H   0  0  0  0  0  0  0  0  0  0  0  0
    5.6780    0.7321   22.0906 H   0  0  0  0  0  0  0  0  0  0  0  0
    9.5426   -4.5618   23.7797 H   0  0  0  0  0  0  0  0  0  0  0  0
    7.1914   -1.8824   26.1903 H   0  0  0  0  0  0  0  0  0  0  0  0
   10.2669   -2.6745   22.3854 H   0  0  0  0  0  0  0  0  0  0  0  0
    7.8690   -0.0020   24.7587 H   0  0  0  0  0  0  0  0  0  0  0  0
   12.5771   -0.0965   25.4478 H   0  0  0  0  0  0  0  0  0  0  0  0
   12.3832   -0.9726   21.2281 H   0  0  0  0  0  0  0  0  0  0  0  0
    9.9615   -5.0500   26.2711 H   0  0  0  0  0  0  0  0  0  0  0  0
    8.6935   -6.2597   26.5720 H   0  0  0  0  0  0  0  0  0  0  0  0
    6.2628   -5.5350   26.3330 H   0  0  0  0  0  0  0  0  0  0  0  0
    5.9347   -3.8423   25.9023 H   0  0  0  0  0  0  0  0  0  0  0  0
    9.5597   -5.4275   28.7166 H   0  0  0  0  0  0  0  0  0  0  0  0
    9.2344   -3.7511   28.2636 H   0  0  0  0  0  0  0  0  0  0  0  0
    6.8874   -3.0657   28.0553 H   0  0  0  0  0  0  0  0  0  0  0  0
    5.6495   -4.2893   28.3591 H   0  0  0  0  0  0  0  0  0  0  0  0
   15.4522   -1.6787   21.8540 H   0  0  0  0  0  0  0  0  0  0  0  0
   15.0179   -3.0612   22.9154 H   0  0  0  0  0  0  0  0  0  0  0  0
   14.1626   -2.8324   21.3691 H   0  0  0  0  0  0  0  0  0  0  0  0
   10.4561    1.0772   24.1620 H   0  0  0  0  0  0  0  0  0  0  0  0
   10.8743    1.5008   22.5014 H   0  0  0  0  0  0  0  0  0  0  0  0
    8.6688   -1.5655   20.3666 H   0  0  0  0  0  0  0  0  0  0  0  0
    7.4298   -1.1908   21.5994 H   0  0  0  0  0  0  0  0  0  0  0  0
  1  2  1  0  0  0  0
  1  3  2  0  0  0  0
  2  4  2  0  0  0  0
  3 12  1  0  0  0  0
  4 13  1  0  0  0  0
  5  7  2  0  0  0  0
  5 14  1  0  0  0  0
  6  8  1  0  0  0  0
  6 14  2  0  0  0  0
  7 15  1  0  0  0  0
  8 15  2  0  0  0  0
  9 11  1  0  0  0  0
  9 24  2  0  0  0  0
 10 11  2  0  0  0  0
 10 27  1  0  0  0  0
 11 22  1  0  0  0  0
 12 13  2  0  0  0  0
 12 25  1  0  0  0  0
 13 28  1  0  0  0  0
 14 29  1  0  0  0  0
 15 30  1  0  0  0  0
 16 23  1  0  0  0  0
 16 30  1  0  0  0  0
 16 31  2  0  0  0  0
 17 19  1  0  0  0  0
 17 29  1  0  0  0  0
 18 20  1  0  0  0  0
 18 29  1  0  0  0  0
 19 32  1  0  0  0  0
 20 32  1  0  0  0  0
 21 27  1  0  0  0  0
 22 30  1  0  0  0  0
 23 28  1  0  0  0  0
 24 27  1  0  0  0  0
 25 26  2  0  0  0  0
 26 28  1  0  0  0  0
  1 33  1  0  0  0  0
  2 34  1  0  0  0  0
  3 35  1  0  0  0  0
  4 36  1  0  0  0  0
  5 37  1  0  0  0  0
  6 38  1  0  0  0  0
  7 39  1  0  0  0  0
  8 40  1  0  0  0  0
  9 41  1  0  0  0  0
 10 42  1  0  0  0  0
 17 43  1  0  0  0  0
 17 44  1  0  0  0  0
 18 45  1  0  0  0  0
 18 46  1  0  0  0  0
 19 47  1  0  0  0  0
 19 48  1  0  0  0  0
 20 49  1  0  0  0  0
 20 50  1  0  0  0  0
 21 51  1  0  0  0  0
 21 52  1  0  0  0  0
 21 53  1  0  0  0  0
 22 54  1  0  0  0  0
 22 55  1  0  0  0  0
 23 56  1  0  0  0  0
 23 57  1  0  0  0  0
M  END
> <clash_score>
0

> <docking_score>
-9.19914436340332

> <overlap_score>
0.9972016215324402

$$$$
BENZO_367_1
  -OEChem-08222022473D

 53 56  0     0  0  0  0  0  0999 V2000
    3.8860    2.1050   19.5250 C   0  0  0  0  0  0  0  0  0  0  0  0
    4.2460    1.7520   20.8250 C   0  0  0  0  0  0  0  0  0  0  0  0
    4.6610    1.7170   18.4380 C   0  0  0  0  0  0  0  0  0  0  0  0
    5.3890    1.0010   21.0690 C   0  0  0  0  0  0  0  0  0  0  0  0
    9.5890   -2.4950   23.2210 C   0  0  0  0  0  0  0  0  0  0  0  0
    8.2550   -1.0010   24.5520 C   0  0  0  0  0  0  0  0  0  0  0  0
    9.1890   -3.5540   24.0140 C   0  0  0  0  0  0  0  0  0  0  0  0
    7.8700   -2.0610   25.3550 C   0  0  0  0  0  0  0  0  0  0  0  0
   12.7320   -0.4464   24.4370 C   0  0  0  0  0  0  0  0  0  0  0  0
   12.5970   -0.8682   22.2832 C   0  0  0  0  0  0  0  0  0  0  0  0
    7.5840   -0.2700   18.5160 C   0  0  0  0  0  0  0  0  0  0  0  0
   11.9616   -0.1817   23.2889 C   0  0  0  0  0  0  0  0  0  0  0  0
    5.7970    0.9500   18.6730 C   0  0  0  0  0  0  0  0  0  0  0  0
    6.1460    0.6070   19.9750 C   0  0  0  0  0  0  0  0  0  0  0  0
    9.1280   -1.2090   23.4870 C   0  0  0  0  0  0  0  0  0  0  0  0
    8.3450   -3.3440   25.0980 C   0  0  0  0  0  0  0  0  0  0  0  0
    9.0430    0.2380   21.4940 C   0  0  0  0  0  0  0  0  0  0  0  0
   14.6393   -2.3180   22.2082 C   0  0  0  0  0  0  0  0  0  0  0  0
    7.2639   -5.5572   25.3803 C   0  0  0  0  0  0  0  0  0  0  0  0
    8.3059   -4.4049   27.3386 C   0  0  0  0  0  0  0  0  0  0  0  0
   10.7220    0.6590   23.1850 C   0  0  0  0  0  0  0  0  0  0  0  0
    8.0950   -0.7700   20.8440 C   0  0  0  0  0  0  0  0  0  0  0  0
   13.7770   -1.2393   24.1852 N   0  0  0  0  0  0  0  0  0  0  0  0
    6.7100    0.3850   17.8100 N   0  0  0  0  0  0  0  0  0  0  0  0
   13.6676   -1.4788   22.8673 N   0  0  0  0  0  0  0  0  0  0  0  0
    7.2710   -0.1460   19.8310 N   0  0  0  0  0  0  0  0  0  0  0  0
    9.5820   -0.1080   22.7000 N   0  0  0  0  0  0  0  0  0  0  0  0
    7.9731   -4.4180   25.9279 N   0  0  0  0  0  0  0  0  0  0  0  0
    9.2950    1.3000   20.9480 O   0  0  0  0  0  0  0  0  0  0  0  0
    2.9844    2.6932   19.3613 H   0  0  0  0  0  0  0  0  0  0  0  0
    3.6232    2.0695   21.6567 H   0  0  0  0  0  0  0  0  0  0  0  0
    4.3779    2.0108   17.4276 H   0  0  0  0  0  0  0  0  0  0  0  0
    5.6763    0.7334   22.0897 H   0  0  0  0  0  0  0  0  0  0  0  0
   10.2682   -2.6746   22.3864 H   0  0  0  0  0  0  0  0  0  0  0  0
    7.8692   -0.0022   24.7600 H   0  0  0  0  0  0  0  0  0  0  0  0
    9.5433   -4.5619   23.7809 H   0  0  0  0  0  0  0  0  0  0  0  0
    7.1923   -1.8829   26.1908 H   0  0  0  0  0  0  0  0  0  0  0  0
   12.5771   -0.0965   25.4478 H   0  0  0  0  0  0  0  0  0  0  0  0
   12.3832   -0.9726   21.2281 H   0  0  0  0  0  0  0  0  0  0  0  0
    8.4216   -0.8246   18.1565 H   0  0  0  0  0  0  0  0  0  0  0  0
   15.4522   -1.6787   21.8540 H   0  0  0  0  0  0  0  0  0  0  0  0
   15.0179   -3.0613   22.9154 H   0  0  0  0  0  0  0  0  0  0  0  0
   14.1626   -2.8324   21.3691 H   0  0  0  0  0  0  0  0  0  0  0  0
    7.0638   -6.2846   26.1808 H   0  0  0  0  0  0  0  0  0  0  0  0
    6.3117   -5.2211   24.9440 H   0  0  0  0  0  0  0  0  0  0  0  0
    7.8779   -6.0306   24.5999 H   0  0  0  0  0  0  0  0  0  0  0  0
    7.9321   -5.3245   27.8126 H   0  0  0  0  0  0  0  0  0  0  0  0
    9.3981   -4.3495   27.4569 H   0  0  0  0  0  0  0  0  0  0  0  0
    7.8404   -3.5306   27.8169 H   0  0  0  0  0  0  0  0  0  0  0  0
   10.4561    1.0772   24.1620 H   0  0  0  0  0  0  0  0  0  0  0  0
   10.8743    1.5008   22.5014 H   0  0  0  0  0  0  0  0  0  0  0  0
    8.6626   -1.5629   20.3596 H   0  0  0  0  0  0  0  0  0  0  0  0
    7.4236   -1.1883   21.5924 H   0  0  0  0  0  0  0  0  0  0  0  0
  1  2  1  0  0  0  0
  1  3  2  0  0  0  0
  2  4  2  0  0  0  0
  3 13  1  0  0  0  0
  4 14  1  0  0  0  0
  5  7  2  0  0  0  0
  5 15  1  0  0  0  0
  6  8  1  0  0  0  0
  6 15  2  0  0  0  0
  7 16  1  0  0  0  0
  8 16  2  0  0  0  0
  9 12  1  0  0  0  0
  9 23  2  0  0  0  0
 10 12  2  0  0  0  0
 10 25  1  0  0  0  0
 11 24  2  0  0  0  0
 11 26  1  0  0  0  0
 12 21  1  0  0  0  0
 13 14  2  0  0  0  0
 13 24  1  0  0  0  0
 14 26  1  0  0  0  0
 15 27  1  0  0  0  0
 16 28  1  0  0  0  0
 17 22  1  0  0  0  0
 17 27  1  0  0  0  0
 17 29  2  0  0  0  0
 18 25  1  0  0  0  0
 19 28  1  0  0  0  0
 20 28  1  0  0  0  0
 21 27  1  0  0  0  0
 22 26  1  0  0  0  0
 23 25  1  0  0  0  0
  1 30  1  0  0  0  0
  2 31  1  0  0  0  0
  3 32  1  0  0  0  0
  4 33  1  0  0  0  0
  5 34  1  0  0  0  0
  6 35  1  0  0  0  0
  7 36  1  0  0  0  0
  8 37  1  0  0  0  0
  9 38  1  0  0  0  0
 10 39  1  0  0  0  0
 11 40  1  0  0  0  0
 18 41  1  0  0  0  0
 18 42  1  0  0  0  0
 18 43  1  0  0  0  0
 19 44  1  0  0  0  0
 19 45  1  0  0  0  0
 19 46  1  0  0  0  0
 20 47  1  0  0  0  0
 20 48  1  0  0  0  0
 20 49  1  0  0  0  0
 21 50  1  0  0  0  0
 21 51  1  0  0  0  0
 22 52  1  0  0  0  0
 22 53  1  0  0  0  0
M  END
> <clash_score>
0

> <docking_score>
-8.77690315246582

> <overlap_score>
0.9499809145927429

$$$$
BENZO_366_1
  -OEChem-08222022473D

 53 56  0     0  0  0  0  0  0999 V2000
    3.8860    2.1050   19.5250 C   0  0  0  0  0  0  0  0  0  0  0  0
    4.2460    1.7520   20.8250 C   0  0  0  0  0  0  0  0  0  0  0  0
   13.7501   -1.1157   24.6177 C   0  0  0  0  0  0  0  0  0  0  0  0
   12.5991   -0.3339   24.5202 C   0  0  0  0  0  0  0  0  0  0  0  0
    4.6610    1.7170   18.4380 C   0  0  0  0  0  0  0  0  0  0  0  0
    5.3890    1.0010   21.0690 C   0  0  0  0  0  0  0  0  0  0  0  0
    9.5890   -2.4950   23.2210 C   0  0  0  0  0  0  0  0  0  0  0  0
    8.2550   -1.0010   24.5520 C   0  0  0  0  0  0  0  0  0  0  0  0
    9.1890   -3.5540   24.0140 C   0  0  0  0  0  0  0  0  0  0  0  0
    7.8700   -2.0610   25.3550 C   0  0  0  0  0  0  0  0  0  0  0  0
   14.2636   -1.7454   23.4838 C   0  0  0  0  0  0  0  0  0  0  0  0
   12.4750   -0.8115   22.1551 C   0  0  0  0  0  0  0  0  0  0  0  0
    7.5840   -0.2700   18.5160 C   0  0  0  0  0  0  0  0  0  0  0  0
   11.9616   -0.1817   23.2889 C   0  0  0  0  0  0  0  0  0  0  0  0
    5.7970    0.9500   18.6730 C   0  0  0  0  0  0  0  0  0  0  0  0
    6.1460    0.6070   19.9750 C   0  0  0  0  0  0  0  0  0  0  0  0
    9.1280   -1.2090   23.4870 C   0  0  0  0  0  0  0  0  0  0  0  0
    8.3450   -3.3440   25.0980 C   0  0  0  0  0  0  0  0  0  0  0  0
   13.6260   -1.5933   22.2526 C   0  0  0  0  0  0  0  0  0  0  0  0
    9.0430    0.2380   21.4940 C   0  0  0  0  0  0  0  0  0  0  0  0
    7.2639   -5.5572   25.3803 C   0  0  0  0  0  0  0  0  0  0  0  0
    8.3059   -4.4049   27.3386 C   0  0  0  0  0  0  0  0  0  0  0  0
   10.7220    0.6590   23.1850 C   0  0  0  0  0  0  0  0  0  0  0  0
    8.0950   -0.7700   20.8440 C   0  0  0  0  0  0  0  0  0  0  0  0
    6.7100    0.3850   17.8100 N   0  0  0  0  0  0  0  0  0  0  0  0
    7.2710   -0.1460   19.8310 N   0  0  0  0  0  0  0  0  0  0  0  0
    9.5820   -0.1080   22.7000 N   0  0  0  0  0  0  0  0  0  0  0  0
    7.9731   -4.4180   25.9279 N   0  0  0  0  0  0  0  0  0  0  0  0
    9.2950    1.3000   20.9480 O   0  0  0  0  0  0  0  0  0  0  0  0
   14.2594   -2.3714   20.8543 Cl  0  0  0  0  0  0  0  0  0  0  0  0
    2.9844    2.6932   19.3613 H   0  0  0  0  0  0  0  0  0  0  0  0
    3.6232    2.0695   21.6567 H   0  0  0  0  0  0  0  0  0  0  0  0
   14.2462   -1.2340   25.5766 H   0  0  0  0  0  0  0  0  0  0  0  0
   12.2060    0.1530   25.4088 H   0  0  0  0  0  0  0  0  0  0  0  0
    4.3779    2.0108   17.4276 H   0  0  0  0  0  0  0  0  0  0  0  0
    5.6763    0.7334   22.0897 H   0  0  0  0  0  0  0  0  0  0  0  0
   10.2682   -2.6746   22.3864 H   0  0  0  0  0  0  0  0  0  0  0  0
    7.8692   -0.0022   24.7600 H   0  0  0  0  0  0  0  0  0  0  0  0
    9.5433   -4.5619   23.7809 H   0  0  0  0  0  0  0  0  0  0  0  0
    7.1923   -1.8829   26.1908 H   0  0  0  0  0  0  0  0  0  0  0  0
   15.1613   -2.3520   23.5748 H   0  0  0  0  0  0  0  0  0  0  0  0
   11.9745   -0.6893   21.1973 H   0  0  0  0  0  0  0  0  0  0  0  0
    8.4216   -0.8246   18.1565 H   0  0  0  0  0  0  0  0  0  0  0  0
    7.0638   -6.2846   26.1808 H   0  0  0  0  0  0  0  0  0  0  0  0
    6.3117   -5.2211   24.9440 H   0  0  0  0  0  0  0  0  0  0  0  0
    7.8779   -6.0306   24.5999 H   0  0  0  0  0  0  0  0  0  0  0  0
    7.9321   -5.3245   27.8126 H   0  0  0  0  0  0  0  0  0  0  0  0
    9.3981   -4.3495   27.4569 H   0  0  0  0  0  0  0  0  0  0  0  0
    7.8404   -3.5306   27.8169 H   0  0  0  0  0  0  0  0  0  0  0  0
   10.4561    1.0772   24.1620 H   0  0  0  0  0  0  0  0  0  0  0  0
   10.8743    1.5008   22.5014 H   0  0  0  0  0  0  0  0  0  0  0  0
    8.6626   -1.5629   20.3596 H   0  0  0  0  0  0  0  0  0  0  0  0
    7.4236   -1.1883   21.5924 H   0  0  0  0  0  0  0  0  0  0  0  0
  1  2  1  0  0  0  0
  1  5  2  0  0  0  0
  2  6  2  0  0  0  0
  3  4  2  0  0  0  0
  3 11  1  0  0  0  0
  4 14  1  0  0  0  0
  5 15  1  0  0  0  0
  6 16  1  0  0  0  0
  7  9  2  0  0  0  0
  7 17  1  0  0  0  0
  8 10  1  0  0  0  0
  8 17  2  0  0  0  0
  9 18  1  0  0  0  0
 10 18  2  0  0  0  0
 11 19  2  0  0  0  0
 12 14  2  0  0  0  0
 12 19  1  0  0  0  0
 13 25  2  0  0  0  0
 13 26  1  0  0  0  0
 14 23  1  0  0  0  0
 15 16  2  0  0  0  0
 15 25  1  0  0  0  0
 16 26  1  0  0  0  0
 17 27  1  0  0  0  0
 18 28  1  0  0  0  0
 19 30  1  0  0  0  0
 20 24  1  0  0  0  0
 20 27  1  0  0  0  0
 20 29  2  0  0  0  0
 21 28  1  0  0  0  0
 22 28  1  0  0  0  0
 23 27  1  0  0  0  0
 24 26  1  0  0  0  0
  1 31  1  0  0  0  0
  2 32  1  0  0  0  0
  3 33  1  0  0  0  0
  4 34  1  0  0  0  0
  5 35  1  0  0  0  0
  6 36  1  0  0  0  0
  7 37  1  0  0  0  0
  8 38  1  0  0  0  0
  9 39  1  0  0  0  0
 10 40  1  0  0  0  0
 11 41  1  0  0  0  0
 12 42  1  0  0  0  0
 13 43  1  0  0  0  0
 21 44  1  0  0  0  0
 21 45  1  0  0  0  0
 21 46  1  0  0  0  0
 22 47  1  0  0  0  0
 22 48  1  0  0  0  0
 22 49  1  0  0  0  0
 23 50  1  0  0  0  0
 23 51  1  0  0  0  0
 24 52  1  0  0  0  0
 24 53  1  0  0  0  0
M  END
> <clash_score>
0

> <docking_score>
-9.540878295898438

> <overlap_score>
0.9545649886131287

$$$$
BENZO_369_1
  -OEChem-08222022473D

 55 58  0     0  0  0  0  0  0999 V2000
   14.2641   -1.7450   23.4813 C   0  0  0  0  0  0  0  0  0  0  0  0
   14.0779   -0.6681   24.3480 C   0  0  0  0  0  0  0  0  0  0  0  0
   13.2991   -2.0403   22.5184 C   0  0  0  0  0  0  0  0  0  0  0  0
    3.8860    2.1050   19.5250 C   0  0  0  0  0  0  0  0  0  0  0  0
    4.2460    1.7520   20.8250 C   0  0  0  0  0  0  0  0  0  0  0  0
   12.9266    0.1135   24.2518 C   0  0  0  0  0  0  0  0  0  0  0  0
   12.1478   -1.2587   22.4222 C   0  0  0  0  0  0  0  0  0  0  0  0
    4.6610    1.7170   18.4380 C   0  0  0  0  0  0  0  0  0  0  0  0
    5.3890    1.0010   21.0690 C   0  0  0  0  0  0  0  0  0  0  0  0
    9.1890   -3.5540   24.0140 C   0  0  0  0  0  0  0  0  0  0  0  0
    7.8700   -2.0610   25.3550 C   0  0  0  0  0  0  0  0  0  0  0  0
    9.5890   -2.4950   23.2210 C   0  0  0  0  0  0  0  0  0  0  0  0
    8.2550   -1.0010   24.5520 C   0  0  0  0  0  0  0  0  0  0  0  0
    7.5840   -0.2700   18.5160 C   0  0  0  0  0  0  0  0  0  0  0  0
   11.9616   -0.1817   23.2889 C   0  0  0  0  0  0  0  0  0  0  0  0
    5.7970    0.9500   18.6730 C   0  0  0  0  0  0  0  0  0  0  0  0
    6.1460    0.6070   19.9750 C   0  0  0  0  0  0  0  0  0  0  0  0
    8.3450   -3.3440   25.0980 C   0  0  0  0  0  0  0  0  0  0  0  0
    9.1280   -1.2090   23.4870 C   0  0  0  0  0  0  0  0  0  0  0  0
    7.1418   -4.3812   27.0482 C   0  0  0  0  0  0  0  0  0  0  0  0
    9.0430    0.2380   21.4940 C   0  0  0  0  0  0  0  0  0  0  0  0
    8.0780   -6.0685   28.6859 C   0  0  0  0  0  0  0  0  0  0  0  0
   10.7220    0.6590   23.1850 C   0  0  0  0  0  0  0  0  0  0  0  0
    7.0014   -5.7677   27.6587 C   0  0  0  0  0  0  0  0  0  0  0  0
    8.0950   -0.7700   20.8440 C   0  0  0  0  0  0  0  0  0  0  0  0
    6.7100    0.3850   17.8100 N   0  0  0  0  0  0  0  0  0  0  0  0
    7.2710   -0.1460   19.8310 N   0  0  0  0  0  0  0  0  0  0  0  0
    7.9771   -4.4058   25.9196 N   0  0  0  0  0  0  0  0  0  0  0  0
    9.5820   -0.1080   22.7000 N   0  0  0  0  0  0  0  0  0  0  0  0
    6.5753   -3.4016   27.5215 O   0  0  0  0  0  0  0  0  0  0  0  0
    9.2950    1.3000   20.9480 O   0  0  0  0  0  0  0  0  0  0  0  0
   15.1613   -2.3527   23.5555 H   0  0  0  0  0  0  0  0  0  0  0  0
   14.8297   -0.4373   25.0971 H   0  0  0  0  0  0  0  0  0  0  0  0
   13.4443   -2.8780   21.8427 H   0  0  0  0  0  0  0  0  0  0  0  0
    2.9844    2.6932   19.3613 H   0  0  0  0  0  0  0  0  0  0  0  0
    3.6232    2.0695   21.6567 H   0  0  0  0  0  0  0  0  0  0  0  0
   12.7899    0.9506   24.9315 H   0  0  0  0  0  0  0  0  0  0  0  0
   11.4013   -1.4963   21.6690 H   0  0  0  0  0  0  0  0  0  0  0  0
    4.3779    2.0108   17.4276 H   0  0  0  0  0  0  0  0  0  0  0  0
    5.6763    0.7334   22.0897 H   0  0  0  0  0  0  0  0  0  0  0  0
    9.5436   -4.5614   23.7799 H   0  0  0  0  0  0  0  0  0  0  0  0
    7.1918   -1.8823   26.1906 H   0  0  0  0  0  0  0  0  0  0  0  0
   10.2676   -2.6754   22.3861 H   0  0  0  0  0  0  0  0  0  0  0  0
    7.8686   -0.0026   24.7598 H   0  0  0  0  0  0  0  0  0  0  0  0
    8.4216   -0.8246   18.1565 H   0  0  0  0  0  0  0  0  0  0  0  0
    9.0761   -6.0021   28.2405 H   0  0  0  0  0  0  0  0  0  0  0  0
    7.9495   -7.0780   29.0882 H   0  0  0  0  0  0  0  0  0  0  0  0
    8.0348   -5.3600   29.5197 H   0  0  0  0  0  0  0  0  0  0  0  0
   10.4561    1.0772   24.1620 H   0  0  0  0  0  0  0  0  0  0  0  0
   10.8743    1.5008   22.5014 H   0  0  0  0  0  0  0  0  0  0  0  0
    6.0150   -5.8412   28.1310 H   0  0  0  0  0  0  0  0  0  0  0  0
    7.0480   -6.5088   26.8525 H   0  0  0  0  0  0  0  0  0  0  0  0
    8.6626   -1.5629   20.3596 H   0  0  0  0  0  0  0  0  0  0  0  0
    7.4236   -1.1883   21.5924 H   0  0  0  0  0  0  0  0  0  0  0  0
    8.3619   -5.3256   25.6748 H   0  0  0  0  0  0  0  0  0  0  0  0
  1  2  1  0  0  0  0
  1  3  2  0  0  0  0
  2  6  2  0  0  0  0
  3  7  1  0  0  0  0
  4  5  1  0  0  0  0
  4  8  2  0  0  0  0
  5  9  2  0  0  0  0
  6 15  1  0  0  0  0
  7 15  2  0  0  0  0
  8 16  1  0  0  0  0
  9 17  1  0  0  0  0
 10 12  2  0  0  0  0
 10 18  1  0  0  0  0
 11 13  1  0  0  0  0
 11 18  2  0  0  0  0
 12 19  1  0  0  0  0
 13 19  2  0  0  0  0
 14 26  2  0  0  0  0
 14 27  1  0  0  0  0
 15 23  1  0  0  0  0
 16 17  2  0  0  0  0
 16 26  1  0  0  0  0
 17 27  1  0  0  0  0
 18 28  1  0  0  0  0
 19 29  1  0  0  0  0
 20 24  1  0  0  0  0
 20 28  1  0  0  0  0
 20 30  2  0  0  0  0
 21 25  1  0  0  0  0
 21 29  1  0  0  0  0
 21 31  2  0  0  0  0
 22 24  1  0  0  0  0
 23 29  1  0  0  0  0
 25 27  1  0  0  0  0
  1 32  1  0  0  0  0
  2 33  1  0  0  0  0
  3 34  1  0  0  0  0
  4 35  1  0  0  0  0
  5 36  1  0  0  0  0
  6 37  1  0  0  0  0
  7 38  1  0  0  0  0
  8 39  1  0  0  0  0
  9 40  1  0  0  0  0
 10 41  1  0  0  0  0
 11 42  1  0  0  0  0
 12 43  1  0  0  0  0
 13 44  1  0  0  0  0
 14 45  1  0  0  0  0
 22 46  1  0  0  0  0
 22 47  1  0  0  0  0
 22 48  1  0  0  0  0
 23 49  1  0  0  0  0
 23 50  1  0  0  0  0
 24 51  1  0  0  0  0
 24 52  1  0  0  0  0
 25 53  1  0  0  0  0
 25 54  1  0  0  0  0
 28 55  1  0  0  0  0
M  END
> <clash_score>
0

> <docking_score>
-10.016607284545898

> <overlap_score>
0.9713233709335327

$$$$
BENZO_368_1
  -OEChem-08222022473D

 52 55  0     0  0  0  0  0  0999 V2000
    3.8860    2.1050   19.5250 C   0  0  0  0  0  0  0  0  0  0  0  0
    4.2460    1.7520   20.8250 C   0  0  0  0  0  0  0  0  0  0  0  0
    4.6610    1.7170   18.4380 C   0  0  0  0  0  0  0  0  0  0  0  0
    5.3890    1.0010   21.0690 C   0  0  0  0  0  0  0  0  0  0  0  0
    9.1890   -3.5540   24.0140 C   0  0  0  0  0  0  0  0  0  0  0  0
    7.8700   -2.0610   25.3550 C   0  0  0  0  0  0  0  0  0  0  0  0
    9.5890   -2.4950   23.2210 C   0  0  0  0  0  0  0  0  0  0  0  0
    8.2550   -1.0010   24.5520 C   0  0  0  0  0  0  0  0  0  0  0  0
   12.6785   -0.3937   24.5018 C   0  0  0  0  0  0  0  0  0  0  0  0
   13.7775   -1.2037   24.3186 C   0  0  0  0  0  0  0  0  0  0  0  0
   12.5401   -0.8378   22.2246 C   0  0  0  0  0  0  0  0  0  0  0  0
    7.5840   -0.2700   18.5160 C   0  0  0  0  0  0  0  0  0  0  0  0
   11.9616   -0.1817   23.2889 C   0  0  0  0  0  0  0  0  0  0  0  0
    5.7970    0.9500   18.6730 C   0  0  0  0  0  0  0  0  0  0  0  0
    6.1460    0.6070   19.9750 C   0  0  0  0  0  0  0  0  0  0  0  0
    8.3450   -3.3440   25.0980 C   0  0  0  0  0  0  0  0  0  0  0  0
    9.1280   -1.2090   23.4870 C   0  0  0  0  0  0  0  0  0  0  0  0
    8.2028   -4.5559   27.2975 C   0  0  0  0  0  0  0  0  0  0  0  0
    9.0430    0.2380   21.4940 C   0  0  0  0  0  0  0  0  0  0  0  0
    7.8897   -6.0865   29.2887 C   0  0  0  0  0  0  0  0  0  0  0  0
   10.7220    0.6590   23.1850 C   0  0  0  0  0  0  0  0  0  0  0  0
    7.6349   -5.8720   27.8075 C   0  0  0  0  0  0  0  0  0  0  0  0
    8.0950   -0.7700   20.8440 C   0  0  0  0  0  0  0  0  0  0  0  0
    6.7100    0.3850   17.8100 N   0  0  0  0  0  0  0  0  0  0  0  0
    7.2710   -0.1460   19.8310 N   0  0  0  0  0  0  0  0  0  0  0  0
    7.9771   -4.4058   25.9196 N   0  0  0  0  0  0  0  0  0  0  0  0
    9.5820   -0.1080   22.7000 N   0  0  0  0  0  0  0  0  0  0  0  0
    8.7749   -3.7635   28.0387 O   0  0  0  0  0  0  0  0  0  0  0  0
    9.2950    1.3000   20.9480 O   0  0  0  0  0  0  0  0  0  0  0  0
   13.9416   -1.7051   22.6894 S   0  0  0  0  0  0  0  0  0  0  0  0
    2.9844    2.6932   19.3613 H   0  0  0  0  0  0  0  0  0  0  0  0
    3.6232    2.0695   21.6567 H   0  0  0  0  0  0  0  0  0  0  0  0
    4.3779    2.0108   17.4276 H   0  0  0  0  0  0  0  0  0  0  0  0
    5.6763    0.7334   22.0897 H   0  0  0  0  0  0  0  0  0  0  0  0
    9.5436   -4.5614   23.7799 H   0  0  0  0  0  0  0  0  0  0  0  0
    7.1918   -1.8823   26.1906 H   0  0  0  0  0  0  0  0  0  0  0  0
   10.2676   -2.6754   22.3861 H   0  0  0  0  0  0  0  0  0  0  0  0
    7.8686   -0.0026   24.7598 H   0  0  0  0  0  0  0  0  0  0  0  0
   12.4058    0.0253   25.4623 H   0  0  0  0  0  0  0  0  0  0  0  0
   14.4923   -1.5246   25.0631 H   0  0  0  0  0  0  0  0  0  0  0  0
   12.2108   -0.8511   21.1948 H   0  0  0  0  0  0  0  0  0  0  0  0
    8.4216   -0.8246   18.1565 H   0  0  0  0  0  0  0  0  0  0  0  0
    8.9625   -6.0815   29.5080 H   0  0  0  0  0  0  0  0  0  0  0  0
    7.4794   -7.0486   29.6106 H   0  0  0  0  0  0  0  0  0  0  0  0
    7.4213   -5.2977   29.8865 H   0  0  0  0  0  0  0  0  0  0  0  0
   10.4561    1.0772   24.1620 H   0  0  0  0  0  0  0  0  0  0  0  0
   10.8743    1.5008   22.5014 H   0  0  0  0  0  0  0  0  0  0  0  0
    6.5555   -5.8816   27.6173 H   0  0  0  0  0  0  0  0  0  0  0  0
    8.0877   -6.6906   27.2364 H   0  0  0  0  0  0  0  0  0  0  0  0
    8.6626   -1.5629   20.3596 H   0  0  0  0  0  0  0  0  0  0  0  0
    7.4236   -1.1883   21.5924 H   0  0  0  0  0  0  0  0  0  0  0  0
    7.4775   -5.1800   25.4669 H   0  0  0  0  0  0  0  0  0  0  0  0
  1  2  1  0  0  0  0
  1  3  2  0  0  0  0
  2  4  2  0  0  0  0
  3 14  1  0  0  0  0
  4 15  1  0  0  0  0
  5  7  2  0  0  0  0
  5 16  1  0  0  0  0
  6  8  1  0  0  0  0
  6 16  2  0  0  0  0
  7 17  1  0  0  0  0
  8 17  2  0  0  0  0
  9 10  2  0  0  0  0
  9 13  1  0  0  0  0
 10 30  1  0  0  0  0
 11 13  2  0  0  0  0
 11 30  1  0  0  0  0
 12 24  2  0  0  0  0
 12 25  1  0  0  0  0
 13 21  1  0  0  0  0
 14 15  2  0  0  0  0
 14 24  1  0  0  0  0
 15 25  1  0  0  0  0
 16 26  1  0  0  0  0
 17 27  1  0  0  0  0
 18 22  1  0  0  0  0
 18 26  1  0  0  0  0
 18 28  2  0  0  0  0
 19 23  1  0  0  0  0
 19 27  1  0  0  0  0
 19 29  2  0  0  0  0
 20 22  1  0  0  0  0
 21 27  1  0  0  0  0
 23 25  1  0  0  0  0
  1 31  1  0  0  0  0
  2 32  1  0  0  0  0
  3 33  1  0  0  0  0
  4 34  1  0  0  0  0
  5 35  1  0  0  0  0
  6 36  1  0  0  0  0
  7 37  1  0  0  0  0
  8 38  1  0  0  0  0
  9 39  1  0  0  0  0
 10 40  1  0  0  0  0
 11 41  1  0  0  0  0
 12 42  1  0  0  0  0
 20 43  1  0  0  0  0
 20 44  1  0  0  0  0
 20 45  1  0  0  0  0
 21 46  1  0  0  0  0
 21 47  1  0  0  0  0
 22 48  1  0  0  0  0
 22 49  1  0  0  0  0
 23 50  1  0  0  0  0
 23 51  1  0  0  0  0
 26 52  1  0  0  0  0
M  END
> <clash_score>
0

> <docking_score>
-10.301862716674805

> <overlap_score>
0.989539623260498

$$$$
BENZO_373_1
  -OEChem-08222022473D

 60 64  0     0  0  0  0  0  0999 V2000
   14.2642   -1.7450   23.4813 C   0  0  0  0  0  0  0  0  0  0  0  0
   14.0779   -0.6681   24.3480 C   0  0  0  0  0  0  0  0  0  0  0  0
   13.2991   -2.0403   22.5184 C   0  0  0  0  0  0  0  0  0  0  0  0
    3.8860    2.1050   19.5250 C   0  0  0  0  0  0  0  0  0  0  0  0
    4.2460    1.7520   20.8250 C   0  0  0  0  0  0  0  0  0  0  0  0
   12.9266    0.1135   24.2518 C   0  0  0  0  0  0  0  0  0  0  0  0
   12.1478   -1.2587   22.4222 C   0  0  0  0  0  0  0  0  0  0  0  0
    4.6610    1.7170   18.4380 C   0  0  0  0  0  0  0  0  0  0  0  0
    5.3890    1.0010   21.0690 C   0  0  0  0  0  0  0  0  0  0  0  0
    9.1890   -3.5540   24.0140 C   0  0  0  0  0  0  0  0  0  0  0  0
    7.8700   -2.0610   25.3550 C   0  0  0  0  0  0  0  0  0  0  0  0
    9.5890   -2.4950   23.2210 C   0  0  0  0  0  0  0  0  0  0  0  0
    8.2550   -1.0010   24.5520 C   0  0  0  0  0  0  0  0  0  0  0  0
    7.5840   -0.2700   18.5160 C   0  0  0  0  0  0  0  0  0  0  0  0
   11.9616   -0.1817   23.2889 C   0  0  0  0  0  0  0  0  0  0  0  0
    5.7970    0.9500   18.6730 C   0  0  0  0  0  0  0  0  0  0  0  0
    6.1460    0.6070   19.9750 C   0  0  0  0  0  0  0  0  0  0  0  0
    8.3450   -3.3440   25.0980 C   0  0  0  0  0  0  0  0  0  0  0  0
    9.1280   -1.2090   23.4870 C   0  0  0  0  0  0  0  0  0  0  0  0
    9.0430    0.2380   21.4940 C   0  0  0  0  0  0  0  0  0  0  0  0
    7.3495   -6.6199   27.6701 C   0  0  0  0  0  0  0  0  0  0  0  0
    6.9542   -6.6348   26.1986 C   0  0  0  0  0  0  0  0  0  0  0  0
    7.3959   -5.1872   28.1871 C   0  0  0  0  0  0  0  0  0  0  0  0
    7.8834   -5.7613   25.3569 C   0  0  0  0  0  0  0  0  0  0  0  0
    8.3297   -4.3204   27.3453 C   0  0  0  0  0  0  0  0  0  0  0  0
   10.7220    0.6590   23.1850 C   0  0  0  0  0  0  0  0  0  0  0  0
    8.0950   -0.7700   20.8440 C   0  0  0  0  0  0  0  0  0  0  0  0
    6.7100    0.3850   17.8100 N   0  0  0  0  0  0  0  0  0  0  0  0
    7.2710   -0.1460   19.8310 N   0  0  0  0  0  0  0  0  0  0  0  0
    7.9745   -4.4101   25.9218 N   0  0  0  0  0  0  0  0  0  0  0  0
    9.5820   -0.1080   22.7000 N   0  0  0  0  0  0  0  0  0  0  0  0
    9.2950    1.3000   20.9480 O   0  0  0  0  0  0  0  0  0  0  0  0
   15.1613   -2.3527   23.5555 H   0  0  0  0  0  0  0  0  0  0  0  0
   14.8297   -0.4373   25.0971 H   0  0  0  0  0  0  0  0  0  0  0  0
   13.4443   -2.8780   21.8427 H   0  0  0  0  0  0  0  0  0  0  0  0
    2.9844    2.6932   19.3613 H   0  0  0  0  0  0  0  0  0  0  0  0
    3.6232    2.0695   21.6567 H   0  0  0  0  0  0  0  0  0  0  0  0
   12.7899    0.9506   24.9315 H   0  0  0  0  0  0  0  0  0  0  0  0
   11.4013   -1.4963   21.6690 H   0  0  0  0  0  0  0  0  0  0  0  0
    4.3779    2.0108   17.4276 H   0  0  0  0  0  0  0  0  0  0  0  0
    5.6763    0.7334   22.0897 H   0  0  0  0  0  0  0  0  0  0  0  0
    9.5426   -4.5618   23.7797 H   0  0  0  0  0  0  0  0  0  0  0  0
    7.1914   -1.8824   26.1903 H   0  0  0  0  0  0  0  0  0  0  0  0
   10.2669   -2.6745   22.3854 H   0  0  0  0  0  0  0  0  0  0  0  0
    7.8690   -0.0020   24.7587 H   0  0  0  0  0  0  0  0  0  0  0  0
    8.4216   -0.8246   18.1565 H   0  0  0  0  0  0  0  0  0  0  0  0
    6.6275   -7.2030   28.2544 H   0  0  0  0  0  0  0  0  0  0  0  0
    8.3286   -7.0944   27.7981 H   0  0  0  0  0  0  0  0  0  0  0  0
    6.9785   -7.6646   25.8205 H   0  0  0  0  0  0  0  0  0  0  0  0
    5.9224   -6.2815   26.0912 H   0  0  0  0  0  0  0  0  0  0  0  0
    6.3874   -4.7586   28.1744 H   0  0  0  0  0  0  0  0  0  0  0  0
    7.7314   -5.1812   29.2316 H   0  0  0  0  0  0  0  0  0  0  0  0
    8.8752   -6.2297   25.3260 H   0  0  0  0  0  0  0  0  0  0  0  0
    7.5092   -5.7078   24.3260 H   0  0  0  0  0  0  0  0  0  0  0  0
    8.2703   -3.2761   27.6782 H   0  0  0  0  0  0  0  0  0  0  0  0
    9.3614   -4.6600   27.5015 H   0  0  0  0  0  0  0  0  0  0  0  0
   10.4561    1.0772   24.1620 H   0  0  0  0  0  0  0  0  0  0  0  0
   10.8743    1.5008   22.5014 H   0  0  0  0  0  0  0  0  0  0  0  0
    8.6688   -1.5655   20.3666 H   0  0  0  0  0  0  0  0  0  0  0  0
    7.4298   -1.1908   21.5994 H   0  0  0  0  0  0  0  0  0  0  0  0
  1  2  1  0  0  0  0
  1  3  2  0  0  0  0
  2  6  2  0  0  0  0
  3  7  1  0  0  0  0
  4  5  1  0  0  0  0
  4  8  2  0  0  0  0
  5  9  2  0  0  0  0
  6 15  1  0  0  0  0
  7 15  2  0  0  0  0
  8 16  1  0  0  0  0
  9 17  1  0  0  0  0
 10 12  2  0  0  0  0
 10 18  1  0  0  0  0
 11 13  1  0  0  0  0
 11 18  2  0  0  0  0
 12 19  1  0  0  0  0
 13 19  2  0  0  0  0
 14 28  2  0  0  0  0
 14 29  1  0  0  0  0
 15 26  1  0  0  0  0
 16 17  2  0  0  0  0
 16 28  1  0  0  0  0
 17 29  1  0  0  0  0
 18 30  1  0  0  0  0
 19 31  1  0  0  0  0
 20 27  1  0  0  0  0
 20 31  1  0  0  0  0
 20 32  2  0  0  0  0
 21 22  1  0  0  0  0
 21 23  1  0  0  0  0
 22 24  1  0  0  0  0
 23 25  1  0  0  0  0
 24 30  1  0  0  0  0
 25 30  1  0  0  0  0
 26 31  1  0  0  0  0
 27 29  1  0  0  0  0
  1 33  1  0  0  0  0
  2 34  1  0  0  0  0
  3 35  1  0  0  0  0
  4 36  1  0  0  0  0
  5 37  1  0  0  0  0
  6 38  1  0  0  0  0
  7 39  1  0  0  0  0
  8 40  1  0  0  0  0
  9 41  1  0  0  0  0
 10 42  1  0  0  0  0
 11 43  1  0  0  0  0
 12 44  1  0  0  0  0
 13 45  1  0  0  0  0
 14 46  1  0  0  0  0
 21 47  1  0  0  0  0
 21 48  1  0  0  0  0
 22 49  1  0  0  0  0
 22 50  1  0  0  0  0
 23 51  1  0  0  0  0
 23 52  1  0  0  0  0
 24 53  1  0  0  0  0
 24 54  1  0  0  0  0
 25 55  1  0  0  0  0
 25 56  1  0  0  0  0
 26 57  1  0  0  0  0
 26 58  1  0  0  0  0
 27 59  1  0  0  0  0
 27 60  1  0  0  0  0
M  END
> <clash_score>
0

> <docking_score>
-10.101048469543457

> <overlap_score>
0.9952272772789001

$$$$
BENZO_372_1
  -OEChem-08222022473D

 57 61  0     0  0  0  0  0  0999 V2000
    3.8860    2.1050   19.5250 C   0  0  0  0  0  0  0  0  0  0  0  0
    4.2460    1.7520   20.8250 C   0  0  0  0  0  0  0  0  0  0  0  0
    4.6610    1.7170   18.4380 C   0  0  0  0  0  0  0  0  0  0  0  0
    5.3890    1.0010   21.0690 C   0  0  0  0  0  0  0  0  0  0  0  0
    9.1890   -3.5540   24.0140 C   0  0  0  0  0  0  0  0  0  0  0  0
    7.8700   -2.0610   25.3550 C   0  0  0  0  0  0  0  0  0  0  0  0
    9.5890   -2.4950   23.2210 C   0  0  0  0  0  0  0  0  0  0  0  0
    8.2550   -1.0010   24.5520 C   0  0  0  0  0  0  0  0  0  0  0  0
   12.6785   -0.3936   24.5018 C   0  0  0  0  0  0  0  0  0  0  0  0
   13.7775   -1.2037   24.3186 C   0  0  0  0  0  0  0  0  0  0  0  0
   12.5401   -0.8378   22.2246 C   0  0  0  0  0  0  0  0  0  0  0  0
    7.5840   -0.2700   18.5160 C   0  0  0  0  0  0  0  0  0  0  0  0
   11.9616   -0.1817   23.2889 C   0  0  0  0  0  0  0  0  0  0  0  0
    5.7970    0.9500   18.6730 C   0  0  0  0  0  0  0  0  0  0  0  0
    6.1460    0.6070   19.9750 C   0  0  0  0  0  0  0  0  0  0  0  0
    8.3450   -3.3440   25.0980 C   0  0  0  0  0  0  0  0  0  0  0  0
    9.1280   -1.2090   23.4870 C   0  0  0  0  0  0  0  0  0  0  0  0
    9.0430    0.2380   21.4940 C   0  0  0  0  0  0  0  0  0  0  0  0
    7.5748   -4.8280   28.7278 C   0  0  0  0  0  0  0  0  0  0  0  0
    8.9776   -4.7555   28.1204 C   0  0  0  0  0  0  0  0  0  0  0  0
    6.5554   -4.0713   27.8732 C   0  0  0  0  0  0  0  0  0  0  0  0
    8.9620   -5.1961   26.6568 C   0  0  0  0  0  0  0  0  0  0  0  0
    6.6009   -4.5253   26.4110 C   0  0  0  0  0  0  0  0  0  0  0  0
   10.7220    0.6590   23.1850 C   0  0  0  0  0  0  0  0  0  0  0  0
    8.0950   -0.7700   20.8440 C   0  0  0  0  0  0  0  0  0  0  0  0
    6.7100    0.3850   17.8100 N   0  0  0  0  0  0  0  0  0  0  0  0
    7.2710   -0.1460   19.8310 N   0  0  0  0  0  0  0  0  0  0  0  0
    7.9770   -4.4029   25.9162 N   0  0  0  0  0  0  0  0  0  0  0  0
    9.5820   -0.1080   22.7000 N   0  0  0  0  0  0  0  0  0  0  0  0
    9.2950    1.3000   20.9480 O   0  0  0  0  0  0  0  0  0  0  0  0
   13.9416   -1.7050   22.6894 S   0  0  0  0  0  0  0  0  0  0  0  0
    2.9844    2.6932   19.3613 H   0  0  0  0  0  0  0  0  0  0  0  0
    3.6232    2.0695   21.6567 H   0  0  0  0  0  0  0  0  0  0  0  0
    4.3779    2.0108   17.4276 H   0  0  0  0  0  0  0  0  0  0  0  0
    5.6763    0.7334   22.0897 H   0  0  0  0  0  0  0  0  0  0  0  0
    9.5426   -4.5618   23.7797 H   0  0  0  0  0  0  0  0  0  0  0  0
    7.1914   -1.8824   26.1903 H   0  0  0  0  0  0  0  0  0  0  0  0
   10.2669   -2.6745   22.3854 H   0  0  0  0  0  0  0  0  0  0  0  0
    7.8690   -0.0020   24.7587 H   0  0  0  0  0  0  0  0  0  0  0  0
   12.4058    0.0253   25.4623 H   0  0  0  0  0  0  0  0  0  0  0  0
   14.4923   -1.5246   25.0631 H   0  0  0  0  0  0  0  0  0  0  0  0
   12.2108   -0.8511   21.1948 H   0  0  0  0  0  0  0  0  0  0  0  0
    8.4216   -0.8246   18.1565 H   0  0  0  0  0  0  0  0  0  0  0  0
    7.2681   -5.8807   28.8239 H   0  0  0  0  0  0  0  0  0  0  0  0
    7.5891   -4.4101   29.7448 H   0  0  0  0  0  0  0  0  0  0  0  0
    9.3554   -3.7320   28.1920 H   0  0  0  0  0  0  0  0  0  0  0  0
    9.6558   -5.3943   28.6900 H   0  0  0  0  0  0  0  0  0  0  0  0
    5.5496   -4.2322   28.2751 H   0  0  0  0  0  0  0  0  0  0  0  0
    6.7545   -2.9948   27.9293 H   0  0  0  0  0  0  0  0  0  0  0  0
    9.9612   -5.0560   26.2363 H   0  0  0  0  0  0  0  0  0  0  0  0
    8.7097   -6.2583   26.5922 H   0  0  0  0  0  0  0  0  0  0  0  0
    6.2649   -5.5600   26.3335 H   0  0  0  0  0  0  0  0  0  0  0  0
    5.9271   -3.8964   25.8283 H   0  0  0  0  0  0  0  0  0  0  0  0
   10.4561    1.0772   24.1620 H   0  0  0  0  0  0  0  0  0  0  0  0
   10.8743    1.5008   22.5014 H   0  0  0  0  0  0  0  0  0  0  0  0
    8.6688   -1.5655   20.3666 H   0  0  0  0  0  0  0  0  0  0  0  0
    7.4298   -1.1908   21.5994 H   0  0  0  0  0  0  0  0  0  0  0  0
  1  2  1  0  0  0  0
  1  3  2  0  0  0  0
  2  4  2  0  0  0  0
  3 14  1  0  0  0  0
  4 15  1  0  0  0  0
  5  7  2  0  0  0  0
  5 16  1  0  0  0  0
  6  8  1  0  0  0  0
  6 16  2  0  0  0  0
  7 17  1  0  0  0  0
  8 17  2  0  0  0  0
  9 10  2  0  0  0  0
  9 13  1  0  0  0  0
 10 31  1  0  0  0  0
 11 13  2  0  0  0  0
 11 31  1  0  0  0  0
 12 26  2  0  0  0  0
 12 27  1  0  0  0  0
 13 24  1  0  0  0  0
 14 15  2  0  0  0  0
 14 26  1  0  0  0  0
 15 27  1  0  0  0  0
 16 28  1  0  0  0  0
 17 29  1  0  0  0  0
 18 25  1  0  0  0  0
 18 29  1  0  0  0  0
 18 30  2  0  0  0  0
 19 20  1  0  0  0  0
 19 21  1  0  0  0  0
 20 22  1  0  0  0  0
 21 23  1  0  0  0  0
 22 28  1  0  0  0  0
 23 28  1  0  0  0  0
 24 29  1  0  0  0  0
 25 27  1  0  0  0  0
  1 32  1  0  0  0  0
  2 33  1  0  0  0  0
  3 34  1  0  0  0  0
  4 35  1  0  0  0  0
  5 36  1  0  0  0  0
  6 37  1  0  0  0  0
  7 38  1  0  0  0  0
  8 39  1  0  0  0  0
  9 40  1  0  0  0  0
 10 41  1  0  0  0  0
 11 42  1  0  0  0  0
 12 43  1  0  0  0  0
 19 44  1  0  0  0  0
 19 45  1  0  0  0  0
 20 46  1  0  0  0  0
 20 47  1  0  0  0  0
 21 48  1  0  0  0  0
 21 49  1  0  0  0  0
 22 50  1  0  0  0  0
 22 51  1  0  0  0  0
 23 52  1  0  0  0  0
 23 53  1  0  0  0  0
 24 54  1  0  0  0  0
 24 55  1  0  0  0  0
 25 56  1  0  0  0  0
 25 57  1  0  0  0  0
M  END
> <clash_score>
0

> <docking_score>
-10.6668119430542

> <overlap_score>
0.9766672849655151

$$$$
BENZO_370_1
  -OEChem-08222022473D

 55 58  0     0  0  0  0  0  0999 V2000
    3.8860    2.1050   19.5250 C   0  0  0  0  0  0  0  0  0  0  0  0
    4.2460    1.7520   20.8250 C   0  0  0  0  0  0  0  0  0  0  0  0
   13.7501   -1.1157   24.6177 C   0  0  0  0  0  0  0  0  0  0  0  0
   12.5991   -0.3339   24.5202 C   0  0  0  0  0  0  0  0  0  0  0  0
    4.6610    1.7170   18.4380 C   0  0  0  0  0  0  0  0  0  0  0  0
    5.3890    1.0010   21.0690 C   0  0  0  0  0  0  0  0  0  0  0  0
    9.1890   -3.5540   24.0140 C   0  0  0  0  0  0  0  0  0  0  0  0
    7.8700   -2.0610   25.3550 C   0  0  0  0  0  0  0  0  0  0  0  0
    9.5890   -2.4950   23.2210 C   0  0  0  0  0  0  0  0  0  0  0  0
    8.2550   -1.0010   24.5520 C   0  0  0  0  0  0  0  0  0  0  0  0
   14.2636   -1.7454   23.4838 C   0  0  0  0  0  0  0  0  0  0  0  0
   12.4750   -0.8115   22.1551 C   0  0  0  0  0  0  0  0  0  0  0  0
    7.5840   -0.2700   18.5160 C   0  0  0  0  0  0  0  0  0  0  0  0
   11.9616   -0.1817   23.2889 C   0  0  0  0  0  0  0  0  0  0  0  0
    5.7970    0.9500   18.6730 C   0  0  0  0  0  0  0  0  0  0  0  0
    6.1460    0.6070   19.9750 C   0  0  0  0  0  0  0  0  0  0  0  0
    8.3450   -3.3440   25.0980 C   0  0  0  0  0  0  0  0  0  0  0  0
    9.1280   -1.2090   23.4870 C   0  0  0  0  0  0  0  0  0  0  0  0
   13.6260   -1.5933   22.2526 C   0  0  0  0  0  0  0  0  0  0  0  0
    8.2028   -4.5559   27.2975 C   0  0  0  0  0  0  0  0  0  0  0  0
    9.0430    0.2380   21.4940 C   0  0  0  0  0  0  0  0  0  0  0  0
    7.8897   -6.0865   29.2887 C   0  0  0  0  0  0  0  0  0  0  0  0
   10.7220    0.6590   23.1850 C   0  0  0  0  0  0  0  0  0  0  0  0
    7.6349   -5.8720   27.8075 C   0  0  0  0  0  0  0  0  0  0  0  0
    8.0950   -0.7700   20.8440 C   0  0  0  0  0  0  0  0  0  0  0  0
    6.7100    0.3850   17.8100 N   0  0  0  0  0  0  0  0  0  0  0  0
    7.2710   -0.1460   19.8310 N   0  0  0  0  0  0  0  0  0  0  0  0
    7.9771   -4.4058   25.9196 N   0  0  0  0  0  0  0  0  0  0  0  0
    9.5820   -0.1080   22.7000 N   0  0  0  0  0  0  0  0  0  0  0  0
    8.7749   -3.7635   28.0387 O   0  0  0  0  0  0  0  0  0  0  0  0
    9.2950    1.3000   20.9480 O   0  0  0  0  0  0  0  0  0  0  0  0
   14.2594   -2.3714   20.8543 Cl  0  0  0  0  0  0  0  0  0  0  0  0
    2.9844    2.6932   19.3613 H   0  0  0  0  0  0  0  0  0  0  0  0
    3.6232    2.0695   21.6567 H   0  0  0  0  0  0  0  0  0  0  0  0
   14.2462   -1.2340   25.5766 H   0  0  0  0  0  0  0  0  0  0  0  0
   12.2060    0.1530   25.4088 H   0  0  0  0  0  0  0  0  0  0  0  0
    4.3779    2.0108   17.4276 H   0  0  0  0  0  0  0  0  0  0  0  0
    5.6763    0.7334   22.0897 H   0  0  0  0  0  0  0  0  0  0  0  0
    9.5436   -4.5614   23.7799 H   0  0  0  0  0  0  0  0  0  0  0  0
    7.1918   -1.8823   26.1906 H   0  0  0  0  0  0  0  0  0  0  0  0
   10.2676   -2.6754   22.3861 H   0  0  0  0  0  0  0  0  0  0  0  0
    7.8686   -0.0026   24.7598 H   0  0  0  0  0  0  0  0  0  0  0  0
   15.1613   -2.3520   23.5748 H   0  0  0  0  0  0  0  0  0  0  0  0
   11.9745   -0.6893   21.1973 H   0  0  0  0  0  0  0  0  0  0  0  0
    8.4216   -0.8246   18.1565 H   0  0  0  0  0  0  0  0  0  0  0  0
    8.9625   -6.0815   29.5080 H   0  0  0  0  0  0  0  0  0  0  0  0
    7.4794   -7.0486   29.6106 H   0  0  0  0  0  0  0  0  0  0  0  0
    7.4213   -5.2977   29.8865 H   0  0  0  0  0  0  0  0  0  0  0  0
   10.4561    1.0772   24.1620 H   0  0  0  0  0  0  0  0  0  0  0  0
   10.8743    1.5008   22.5014 H   0  0  0  0  0  0  0  0  0  0  0  0
    6.5555   -5.8816   27.6173 H   0  0  0  0  0  0  0  0  0  0  0  0
    8.0877   -6.6906   27.2364 H   0  0  0  0  0  0  0  0  0  0  0  0
    8.6626   -1.5629   20.3596 H   0  0  0  0  0  0  0  0  0  0  0  0
    7.4236   -1.1883   21.5924 H   0  0  0  0  0  0  0  0  0  0  0  0
    7.4775   -5.1800   25.4669 H   0  0  0  0  0  0  0  0  0  0  0  0
  1  2  1  0  0  0  0
  1  5  2  0  0  0  0
  2  6  2  0  0  0  0
  3  4  2  0  0  0  0
  3 11  1  0  0  0  0
  4 14  1  0  0  0  0
  5 15  1  0  0  0  0
  6 16  1  0  0  0  0
  7  9  2  0  0  0  0
  7 17  1  0  0  0  0
  8 10  1  0  0  0  0
  8 17  2  0  0  0  0
  9 18  1  0  0  0  0
 10 18  2  0  0  0  0
 11 19  2  0  0  0  0
 12 14  2  0  0  0  0
 12 19  1  0  0  0  0
 13 26  2  0  0  0  0
 13 27  1  0  0  0  0
 14 23  1  0  0  0  0
 15 16  2  0  0  0  0
 15 26  1  0  0  0  0
 16 27  1  0  0  0  0
 17 28  1  0  0  0  0
 18 29  1  0  0  0  0
 19 32  1  0  0  0  0
 20 24  1  0  0  0  0
 20 28  1  0  0  0  0
 20 30  2  0  0  0  0
 21 25  1  0  0  0  0
 21 29  1  0  0  0  0
 21 31  2  0  0  0  0
 22 24  1  0  0  0  0
 23 29  1  0  0  0  0
 25 27  1  0  0  0  0
  1 33  1  0  0  0  0
  2 34  1  0  0  0  0
  3 35  1  0  0  0  0
  4 36  1  0  0  0  0
  5 37  1  0  0  0  0
  6 38  1  0  0  0  0
  7 39  1  0  0  0  0
  8 40  1  0  0  0  0
  9 41  1  0  0  0  0
 10 42  1  0  0  0  0
 11 43  1  0  0  0  0
 12 44  1  0  0  0  0
 13 45  1  0  0  0  0
 22 46  1  0  0  0  0
 22 47  1  0  0  0  0
 22 48  1  0  0  0  0
 23 49  1  0  0  0  0
 23 50  1  0  0  0  0
 24 51  1  0  0  0  0
 24 52  1  0  0  0  0
 25 53  1  0  0  0  0
 25 54  1  0  0  0  0
 28 55  1  0  0  0  0
M  END
> <clash_score>
0

> <docking_score>
-9.81506061553955

> <overlap_score>
1.0106905698776245

$$$$
BENZO_371_1
  -OEChem-08222022473D

 55 58  0     0  0  0  0  0  0999 V2000
    3.8860    2.1050   19.5250 C   0  0  0  0  0  0  0  0  0  0  0  0
    4.2460    1.7520   20.8250 C   0  0  0  0  0  0  0  0  0  0  0  0
    4.6610    1.7170   18.4380 C   0  0  0  0  0  0  0  0  0  0  0  0
    5.3890    1.0010   21.0690 C   0  0  0  0  0  0  0  0  0  0  0  0
    9.1890   -3.5540   24.0140 C   0  0  0  0  0  0  0  0  0  0  0  0
    7.8700   -2.0610   25.3550 C   0  0  0  0  0  0  0  0  0  0  0  0
    9.5890   -2.4950   23.2210 C   0  0  0  0  0  0  0  0  0  0  0  0
    8.2550   -1.0010   24.5520 C   0  0  0  0  0  0  0  0  0  0  0  0
   12.7320   -0.4464   24.4370 C   0  0  0  0  0  0  0  0  0  0  0  0
   12.5970   -0.8682   22.2832 C   0  0  0  0  0  0  0  0  0  0  0  0
    7.5840   -0.2700   18.5160 C   0  0  0  0  0  0  0  0  0  0  0  0
   11.9616   -0.1817   23.2889 C   0  0  0  0  0  0  0  0  0  0  0  0
    5.7970    0.9500   18.6730 C   0  0  0  0  0  0  0  0  0  0  0  0
    6.1460    0.6070   19.9750 C   0  0  0  0  0  0  0  0  0  0  0  0
    8.3450   -3.3440   25.0980 C   0  0  0  0  0  0  0  0  0  0  0  0
    9.1280   -1.2090   23.4870 C   0  0  0  0  0  0  0  0  0  0  0  0
    8.2028   -4.5559   27.2975 C   0  0  0  0  0  0  0  0  0  0  0  0
    9.0430    0.2380   21.4940 C   0  0  0  0  0  0  0  0  0  0  0  0
    7.8897   -6.0865   29.2887 C   0  0  0  0  0  0  0  0  0  0  0  0
   14.6393   -2.3180   22.2082 C   0  0  0  0  0  0  0  0  0  0  0  0
   10.7220    0.6590   23.1850 C   0  0  0  0  0  0  0  0  0  0  0  0
    7.6349   -5.8720   27.8075 C   0  0  0  0  0  0  0  0  0  0  0  0
    8.0950   -0.7700   20.8440 C   0  0  0  0  0  0  0  0  0  0  0  0
   13.7770   -1.2393   24.1852 N   0  0  0  0  0  0  0  0  0  0  0  0
    6.7100    0.3850   17.8100 N   0  0  0  0  0  0  0  0  0  0  0  0
   13.6676   -1.4788   22.8673 N   0  0  0  0  0  0  0  0  0  0  0  0
    7.2710   -0.1460   19.8310 N   0  0  0  0  0  0  0  0  0  0  0  0
    7.9771   -4.4058   25.9196 N   0  0  0  0  0  0  0  0  0  0  0  0
    9.5820   -0.1080   22.7000 N   0  0  0  0  0  0  0  0  0  0  0  0
    8.7749   -3.7635   28.0387 O   0  0  0  0  0  0  0  0  0  0  0  0
    9.2950    1.3000   20.9480 O   0  0  0  0  0  0  0  0  0  0  0  0
    2.9844    2.6932   19.3613 H   0  0  0  0  0  0  0  0  0  0  0  0
    3.6232    2.0695   21.6567 H   0  0  0  0  0  0  0  0  0  0  0  0
    4.3779    2.0108   17.4276 H   0  0  0  0  0  0  0  0  0  0  0  0
    5.6763    0.7334   22.0897 H   0  0  0  0  0  0  0  0  0  0  0  0
    9.5436   -4.5614   23.7799 H   0  0  0  0  0  0  0  0  0  0  0  0
    7.1918   -1.8823   26.1906 H   0  0  0  0  0  0  0  0  0  0  0  0
   10.2676   -2.6754   22.3861 H   0  0  0  0  0  0  0  0  0  0  0  0
    7.8686   -0.0026   24.7598 H   0  0  0  0  0  0  0  0  0  0  0  0
   12.5771   -0.0965   25.4478 H   0  0  0  0  0  0  0  0  0  0  0  0
   12.3832   -0.9726   21.2281 H   0  0  0  0  0  0  0  0  0  0  0  0
    8.4216   -0.8246   18.1565 H   0  0  0  0  0  0  0  0  0  0  0  0
    8.9625   -6.0815   29.5080 H   0  0  0  0  0  0  0  0  0  0  0  0
    7.4794   -7.0486   29.6106 H   0  0  0  0  0  0  0  0  0  0  0  0
    7.4213   -5.2977   29.8865 H   0  0  0  0  0  0  0  0  0  0  0  0
   15.4522   -1.6787   21.8540 H   0  0  0  0  0  0  0  0  0  0  0  0
   15.0179   -3.0613   22.9154 H   0  0  0  0  0  0  0  0  0  0  0  0
   14.1626   -2.8324   21.3691 H   0  0  0  0  0  0  0  0  0  0  0  0
   10.4561    1.0772   24.1620 H   0  0  0  0  0  0  0  0  0  0  0  0
   10.8743    1.5008   22.5014 H   0  0  0  0  0  0  0  0  0  0  0  0
    6.5555   -5.8816   27.6173 H   0  0  0  0  0  0  0  0  0  0  0  0
    8.0877   -6.6906   27.2364 H   0  0  0  0  0  0  0  0  0  0  0  0
    8.6626   -1.5629   20.3596 H   0  0  0  0  0  0  0  0  0  0  0  0
    7.4236   -1.1883   21.5924 H   0  0  0  0  0  0  0  0  0  0  0  0
    7.4775   -5.1800   25.4669 H   0  0  0  0  0  0  0  0  0  0  0  0
  1  2  1  0  0  0  0
  1  3  2  0  0  0  0
  2  4  2  0  0  0  0
  3 13  1  0  0  0  0
  4 14  1  0  0  0  0
  5  7  2  0  0  0  0
  5 15  1  0  0  0  0
  6  8  1  0  0  0  0
  6 15  2  0  0  0  0
  7 16  1  0  0  0  0
  8 16  2  0  0  0  0
  9 12  1  0  0  0  0
  9 24  2  0  0  0  0
 10 12  2  0  0  0  0
 10 26  1  0  0  0  0
 11 25  2  0  0  0  0
 11 27  1  0  0  0  0
 12 21  1  0  0  0  0
 13 14  2  0  0  0  0
 13 25  1  0  0  0  0
 14 27  1  0  0  0  0
 15 28  1  0  0  0  0
 16 29  1  0  0  0  0
 17 22  1  0  0  0  0
 17 28  1  0  0  0  0
 17 30  2  0  0  0  0
 18 23  1  0  0  0  0
 18 29  1  0  0  0  0
 18 31  2  0  0  0  0
 19 22  1  0  0  0  0
 20 26  1  0  0  0  0
 21 29  1  0  0  0  0
 23 27  1  0  0  0  0
 24 26  1  0  0  0  0
  1 32  1  0  0  0  0
  2 33  1  0  0  0  0
  3 34  1  0  0  0  0
  4 35  1  0  0  0  0
  5 36  1  0  0  0  0
  6 37  1  0  0  0  0
  7 38  1  0  0  0  0
  8 39  1  0  0  0  0
  9 40  1  0  0  0  0
 10 41  1  0  0  0  0
 11 42  1  0  0  0  0
 19 43  1  0  0  0  0
 19 44  1  0  0  0  0
 19 45  1  0  0  0  0
 20 46  1  0  0  0  0
 20 47  1  0  0  0  0
 20 48  1  0  0  0  0
 21 49  1  0  0  0  0
 21 50  1  0  0  0  0
 22 51  1  0  0  0  0
 22 52  1  0  0  0  0
 23 53  1  0  0  0  0
 23 54  1  0  0  0  0
 28 55  1  0  0  0  0
M  END
> <clash_score>
0

> <docking_score>
-9.051084518432617

> <overlap_score>
1.0061769485473633

$$$$
BENZO_377_1
  -OEChem-08222022473D

 48 51  0     0  0  0  0  0  0999 V2000
   14.2641   -1.7450   23.4813 C   0  0  0  0  0  0  0  0  0  0  0  0
   14.0779   -0.6681   24.3480 C   0  0  0  0  0  0  0  0  0  0  0  0
   13.2991   -2.0403   22.5184 C   0  0  0  0  0  0  0  0  0  0  0  0
    3.8860    2.1050   19.5250 C   0  0  0  0  0  0  0  0  0  0  0  0
    4.2460    1.7520   20.8250 C   0  0  0  0  0  0  0  0  0  0  0  0
   12.9266    0.1135   24.2518 C   0  0  0  0  0  0  0  0  0  0  0  0
   12.1478   -1.2587   22.4222 C   0  0  0  0  0  0  0  0  0  0  0  0
    9.1890   -3.5540   24.0140 C   0  0  0  0  0  0  0  0  0  0  0  0
    7.8700   -2.0610   25.3550 C   0  0  0  0  0  0  0  0  0  0  0  0
    4.6610    1.7170   18.4380 C   0  0  0  0  0  0  0  0  0  0  0  0
    5.3890    1.0010   21.0690 C   0  0  0  0  0  0  0  0  0  0  0  0
    9.5890   -2.4950   23.2210 C   0  0  0  0  0  0  0  0  0  0  0  0
    8.2550   -1.0010   24.5520 C   0  0  0  0  0  0  0  0  0  0  0  0
    7.5840   -0.2700   18.5160 C   0  0  0  0  0  0  0  0  0  0  0  0
    8.3450   -3.3440   25.0980 C   0  0  0  0  0  0  0  0  0  0  0  0
   11.9616   -0.1817   23.2889 C   0  0  0  0  0  0  0  0  0  0  0  0
    5.7970    0.9500   18.6730 C   0  0  0  0  0  0  0  0  0  0  0  0
    6.1460    0.6070   19.9750 C   0  0  0  0  0  0  0  0  0  0  0  0
    9.1280   -1.2090   23.4870 C   0  0  0  0  0  0  0  0  0  0  0  0
    9.0430    0.2380   21.4940 C   0  0  0  0  0  0  0  0  0  0  0  0
    7.9522   -4.4794   25.9764 C   0  0  0  0  0  0  0  0  0  0  0  0
   10.7220    0.6590   23.1850 C   0  0  0  0  0  0  0  0  0  0  0  0
    8.0950   -0.7700   20.8440 C   0  0  0  0  0  0  0  0  0  0  0  0
    6.7100    0.3850   17.8100 N   0  0  0  0  0  0  0  0  0  0  0  0
    7.2710   -0.1460   19.8310 N   0  0  0  0  0  0  0  0  0  0  0  0
    9.5820   -0.1080   22.7000 N   0  0  0  0  0  0  0  0  0  0  0  0
    9.2950    1.3000   20.9480 O   0  0  0  0  0  0  0  0  0  0  0  0
   15.1613   -2.3527   23.5555 H   0  0  0  0  0  0  0  0  0  0  0  0
   14.8297   -0.4373   25.0971 H   0  0  0  0  0  0  0  0  0  0  0  0
   13.4443   -2.8780   21.8427 H   0  0  0  0  0  0  0  0  0  0  0  0
    2.9844    2.6932   19.3613 H   0  0  0  0  0  0  0  0  0  0  0  0
    3.6232    2.0695   21.6567 H   0  0  0  0  0  0  0  0  0  0  0  0
   12.7899    0.9506   24.9315 H   0  0  0  0  0  0  0  0  0  0  0  0
   11.4013   -1.4963   21.6690 H   0  0  0  0  0  0  0  0  0  0  0  0
    9.5403   -4.5627   23.7809 H   0  0  0  0  0  0  0  0  0  0  0  0
    7.1911   -1.8848   26.1904 H   0  0  0  0  0  0  0  0  0  0  0  0
    4.3779    2.0108   17.4276 H   0  0  0  0  0  0  0  0  0  0  0  0
    5.6763    0.7334   22.0897 H   0  0  0  0  0  0  0  0  0  0  0  0
   10.2682   -2.6746   22.3865 H   0  0  0  0  0  0  0  0  0  0  0  0
    7.8684   -0.0022   24.7594 H   0  0  0  0  0  0  0  0  0  0  0  0
    8.4216   -0.8246   18.1565 H   0  0  0  0  0  0  0  0  0  0  0  0
    8.6668   -4.5891   26.8013 H   0  0  0  0  0  0  0  0  0  0  0  0
    6.9513   -4.3276   26.4010 H   0  0  0  0  0  0  0  0  0  0  0  0
    7.9196   -5.4231   25.4163 H   0  0  0  0  0  0  0  0  0  0  0  0
   10.4561    1.0772   24.1620 H   0  0  0  0  0  0  0  0  0  0  0  0
   10.8743    1.5008   22.5014 H   0  0  0  0  0  0  0  0  0  0  0  0
    8.6626   -1.5629   20.3596 H   0  0  0  0  0  0  0  0  0  0  0  0
    7.4236   -1.1883   21.5924 H   0  0  0  0  0  0  0  0  0  0  0  0
  1  2  1  0  0  0  0
  1  3  2  0  0  0  0
  2  6  2  0  0  0  0
  3  7  1  0  0  0  0
  4  5  1  0  0  0  0
  4 10  2  0  0  0  0
  5 11  2  0  0  0  0
  6 16  1  0  0  0  0
  7 16  2  0  0  0  0
  8 12  2  0  0  0  0
  8 15  1  0  0  0  0
  9 13  1  0  0  0  0
  9 15  2  0  0  0  0
 10 17  1  0  0  0  0
 11 18  1  0  0  0  0
 12 19  1  0  0  0  0
 13 19  2  0  0  0  0
 14 24  2  0  0  0  0
 14 25  1  0  0  0  0
 15 21  1  0  0  0  0
 16 22  1  0  0  0  0
 17 18  2  0  0  0  0
 17 24  1  0  0  0  0
 18 25  1  0  0  0  0
 19 26  1  0  0  0  0
 20 23  1  0  0  0  0
 20 26  1  0  0  0  0
 20 27  2  0  0  0  0
 22 26  1  0  0  0  0
 23 25  1  0  0  0  0
  1 28  1  0  0  0  0
  2 29  1  0  0  0  0
  3 30  1  0  0  0  0
  4 31  1  0  0  0  0
  5 32  1  0  0  0  0
  6 33  1  0  0  0  0
  7 34  1  0  0  0  0
  8 35  1  0  0  0  0
  9 36  1  0  0  0  0
 10 37  1  0  0  0  0
 11 38  1  0  0  0  0
 12 39  1  0  0  0  0
 13 40  1  0  0  0  0
 14 41  1  0  0  0  0
 21 42  1  0  0  0  0
 21 43  1  0  0  0  0
 21 44  1  0  0  0  0
 22 45  1  0  0  0  0
 22 46  1  0  0  0  0
 23 47  1  0  0  0  0
 23 48  1  0  0  0  0
M  END
> <clash_score>
0

> <docking_score>
-10.32502269744873

> <overlap_score>
0.9021969437599182

$$$$
BENZO_376_1
  -OEChem-08222022473D

 45 48  0     0  0  0  0  0  0999 V2000
    3.8860    2.1050   19.5250 C   0  0  0  0  0  0  0  0  0  0  0  0
    4.2460    1.7520   20.8250 C   0  0  0  0  0  0  0  0  0  0  0  0
    9.1890   -3.5540   24.0140 C   0  0  0  0  0  0  0  0  0  0  0  0
    7.8700   -2.0610   25.3550 C   0  0  0  0  0  0  0  0  0  0  0  0
    4.6610    1.7170   18.4380 C   0  0  0  0  0  0  0  0  0  0  0  0
    5.3890    1.0010   21.0690 C   0  0  0  0  0  0  0  0  0  0  0  0
    9.5890   -2.4950   23.2210 C   0  0  0  0  0  0  0  0  0  0  0  0
    8.2550   -1.0010   24.5520 C   0  0  0  0  0  0  0  0  0  0  0  0
   12.6785   -0.3937   24.5018 C   0  0  0  0  0  0  0  0  0  0  0  0
   13.7775   -1.2037   24.3186 C   0  0  0  0  0  0  0  0  0  0  0  0
   12.5401   -0.8378   22.2246 C   0  0  0  0  0  0  0  0  0  0  0  0
    7.5840   -0.2700   18.5160 C   0  0  0  0  0  0  0  0  0  0  0  0
    8.3450   -3.3440   25.0980 C   0  0  0  0  0  0  0  0  0  0  0  0
   11.9616   -0.1817   23.2889 C   0  0  0  0  0  0  0  0  0  0  0  0
    5.7970    0.9500   18.6730 C   0  0  0  0  0  0  0  0  0  0  0  0
    6.1460    0.6070   19.9750 C   0  0  0  0  0  0  0  0  0  0  0  0
    9.1280   -1.2090   23.4870 C   0  0  0  0  0  0  0  0  0  0  0  0
    9.0430    0.2380   21.4940 C   0  0  0  0  0  0  0  0  0  0  0  0
    7.9522   -4.4794   25.9764 C   0  0  0  0  0  0  0  0  0  0  0  0
   10.7220    0.6590   23.1850 C   0  0  0  0  0  0  0  0  0  0  0  0
    8.0950   -0.7700   20.8440 C   0  0  0  0  0  0  0  0  0  0  0  0
    6.7100    0.3850   17.8100 N   0  0  0  0  0  0  0  0  0  0  0  0
    7.2710   -0.1460   19.8310 N   0  0  0  0  0  0  0  0  0  0  0  0
    9.5820   -0.1080   22.7000 N   0  0  0  0  0  0  0  0  0  0  0  0
    9.2950    1.3000   20.9480 O   0  0  0  0  0  0  0  0  0  0  0  0
   13.9416   -1.7051   22.6894 S   0  0  0  0  0  0  0  0  0  0  0  0
    2.9844    2.6932   19.3613 H   0  0  0  0  0  0  0  0  0  0  0  0
    3.6232    2.0695   21.6567 H   0  0  0  0  0  0  0  0  0  0  0  0
    9.5403   -4.5627   23.7809 H   0  0  0  0  0  0  0  0  0  0  0  0
    7.1911   -1.8848   26.1904 H   0  0  0  0  0  0  0  0  0  0  0  0
    4.3779    2.0108   17.4276 H   0  0  0  0  0  0  0  0  0  0  0  0
    5.6763    0.7334   22.0897 H   0  0  0  0  0  0  0  0  0  0  0  0
   10.2682   -2.6746   22.3865 H   0  0  0  0  0  0  0  0  0  0  0  0
    7.8684   -0.0022   24.7594 H   0  0  0  0  0  0  0  0  0  0  0  0
   12.4058    0.0253   25.4623 H   0  0  0  0  0  0  0  0  0  0  0  0
   14.4923   -1.5246   25.0631 H   0  0  0  0  0  0  0  0  0  0  0  0
   12.2108   -0.8511   21.1948 H   0  0  0  0  0  0  0  0  0  0  0  0
    8.4216   -0.8246   18.1565 H   0  0  0  0  0  0  0  0  0  0  0  0
    8.6668   -4.5891   26.8013 H   0  0  0  0  0  0  0  0  0  0  0  0
    6.9513   -4.3276   26.4010 H   0  0  0  0  0  0  0  0  0  0  0  0
    7.9196   -5.4231   25.4163 H   0  0  0  0  0  0  0  0  0  0  0  0
   10.4561    1.0772   24.1620 H   0  0  0  0  0  0  0  0  0  0  0  0
   10.8743    1.5008   22.5014 H   0  0  0  0  0  0  0  0  0  0  0  0
    8.6626   -1.5629   20.3596 H   0  0  0  0  0  0  0  0  0  0  0  0
    7.4236   -1.1883   21.5924 H   0  0  0  0  0  0  0  0  0  0  0  0
  1  2  1  0  0  0  0
  1  5  2  0  0  0  0
  2  6  2  0  0  0  0
  3  7  2  0  0  0  0
  3 13  1  0  0  0  0
  4  8  1  0  0  0  0
  4 13  2  0  0  0  0
  5 15  1  0  0  0  0
  6 16  1  0  0  0  0
  7 17  1  0  0  0  0
  8 17  2  0  0  0  0
  9 10  2  0  0  0  0
  9 14  1  0  0  0  0
 10 26  1  0  0  0  0
 11 14  2  0  0  0  0
 11 26  1  0  0  0  0
 12 22  2  0  0  0  0
 12 23  1  0  0  0  0
 13 19  1  0  0  0  0
 14 20  1  0  0  0  0
 15 16  2  0  0  0  0
 15 22  1  0  0  0  0
 16 23  1  0  0  0  0
 17 24  1  0  0  0  0
 18 21  1  0  0  0  0
 18 24  1  0  0  0  0
 18 25  2  0  0  0  0
 20 24  1  0  0  0  0
 21 23  1  0  0  0  0
  1 27  1  0  0  0  0
  2 28  1  0  0  0  0
  3 29  1  0  0  0  0
  4 30  1  0  0  0  0
  5 31  1  0  0  0  0
  6 32  1  0  0  0  0
  7 33  1  0  0  0  0
  8 34  1  0  0  0  0
  9 35  1  0  0  0  0
 10 36  1  0  0  0  0
 11 37  1  0  0  0  0
 12 38  1  0  0  0  0
 19 39  1  0  0  0  0
 19 40  1  0  0  0  0
 19 41  1  0  0  0  0
 20 42  1  0  0  0  0
 20 43  1  0  0  0  0
 21 44  1  0  0  0  0
 21 45  1  0  0  0  0
M  END
> <clash_score>
0

> <docking_score>
-9.765692710876465

> <overlap_score>
0.8884324431419373

$$$$
BENZO_375_1
  -OEChem-08222022473D

 60 64  0     0  0  0  0  0  0999 V2000
    3.8860    2.1050   19.5250 C   0  0  0  0  0  0  0  0  0  0  0  0
    4.2460    1.7520   20.8250 C   0  0  0  0  0  0  0  0  0  0  0  0
    4.6610    1.7170   18.4380 C   0  0  0  0  0  0  0  0  0  0  0  0
    5.3890    1.0010   21.0690 C   0  0  0  0  0  0  0  0  0  0  0  0
    9.1890   -3.5540   24.0140 C   0  0  0  0  0  0  0  0  0  0  0  0
    7.8700   -2.0610   25.3550 C   0  0  0  0  0  0  0  0  0  0  0  0
    9.5890   -2.4950   23.2210 C   0  0  0  0  0  0  0  0  0  0  0  0
    8.2550   -1.0010   24.5520 C   0  0  0  0  0  0  0  0  0  0  0  0
   13.3010    0.2819   23.3762 C   0  0  0  0  0  0  0  0  0  0  0  0
   12.2469   -1.0164   21.9485 C   0  0  0  0  0  0  0  0  0  0  0  0
    7.5840   -0.2700   18.5160 C   0  0  0  0  0  0  0  0  0  0  0  0
   12.0277    0.0001   22.8458 C   0  0  0  0  0  0  0  0  0  0  0  0
    5.7970    0.9500   18.6730 C   0  0  0  0  0  0  0  0  0  0  0  0
    6.1460    0.6070   19.9750 C   0  0  0  0  0  0  0  0  0  0  0  0
    8.3450   -3.3440   25.0980 C   0  0  0  0  0  0  0  0  0  0  0  0
    9.1280   -1.2090   23.4870 C   0  0  0  0  0  0  0  0  0  0  0  0
    9.0430    0.2380   21.4940 C   0  0  0  0  0  0  0  0  0  0  0  0
    7.5748   -4.8280   28.7278 C   0  0  0  0  0  0  0  0  0  0  0  0
    8.9776   -4.7555   28.1204 C   0  0  0  0  0  0  0  0  0  0  0  0
    6.5554   -4.0713   27.8732 C   0  0  0  0  0  0  0  0  0  0  0  0
    8.9620   -5.1961   26.6568 C   0  0  0  0  0  0  0  0  0  0  0  0
    6.6009   -4.5253   26.4110 C   0  0  0  0  0  0  0  0  0  0  0  0
   14.2950   -2.2646   21.2232 C   0  0  0  0  0  0  0  0  0  0  0  0
   10.7220    0.6590   23.1850 C   0  0  0  0  0  0  0  0  0  0  0  0
    8.0950   -0.7700   20.8440 C   0  0  0  0  0  0  0  0  0  0  0  0
   14.2580   -0.4932   22.8591 N   0  0  0  0  0  0  0  0  0  0  0  0
    6.7100    0.3850   17.8100 N   0  0  0  0  0  0  0  0  0  0  0  0
   13.5858   -1.2720   21.9944 N   0  0  0  0  0  0  0  0  0  0  0  0
    7.2710   -0.1460   19.8310 N   0  0  0  0  0  0  0  0  0  0  0  0
    7.9770   -4.4029   25.9162 N   0  0  0  0  0  0  0  0  0  0  0  0
    9.5820   -0.1080   22.7000 N   0  0  0  0  0  0  0  0  0  0  0  0
    9.2950    1.3000   20.9480 O   0  0  0  0  0  0  0  0  0  0  0  0
    2.9844    2.6932   19.3613 H   0  0  0  0  0  0  0  0  0  0  0  0
    3.6232    2.0695   21.6567 H   0  0  0  0  0  0  0  0  0  0  0  0
    4.3779    2.0108   17.4276 H   0  0  0  0  0  0  0  0  0  0  0  0
    5.6763    0.7334   22.0897 H   0  0  0  0  0  0  0  0  0  0  0  0
    9.5426   -4.5618   23.7797 H   0  0  0  0  0  0  0  0  0  0  0  0
    7.1914   -1.8824   26.1903 H   0  0  0  0  0  0  0  0  0  0  0  0
   10.2669   -2.6745   22.3854 H   0  0  0  0  0  0  0  0  0  0  0  0
    7.8690   -0.0020   24.7587 H   0  0  0  0  0  0  0  0  0  0  0  0
   13.5736    1.0185   24.1187 H   0  0  0  0  0  0  0  0  0  0  0  0
   11.5804   -1.5669   21.2983 H   0  0  0  0  0  0  0  0  0  0  0  0
    8.4216   -0.8246   18.1565 H   0  0  0  0  0  0  0  0  0  0  0  0
    7.2681   -5.8807   28.8239 H   0  0  0  0  0  0  0  0  0  0  0  0
    7.5891   -4.4101   29.7448 H   0  0  0  0  0  0  0  0  0  0  0  0
    9.3554   -3.7320   28.1920 H   0  0  0  0  0  0  0  0  0  0  0  0
    9.6558   -5.3943   28.6900 H   0  0  0  0  0  0  0  0  0  0  0  0
    5.5496   -4.2322   28.2751 H   0  0  0  0  0  0  0  0  0  0  0  0
    6.7545   -2.9948   27.9293 H   0  0  0  0  0  0  0  0  0  0  0  0
    9.9612   -5.0560   26.2363 H   0  0  0  0  0  0  0  0  0  0  0  0
    8.7097   -6.2583   26.5922 H   0  0  0  0  0  0  0  0  0  0  0  0
    6.2649   -5.5600   26.3335 H   0  0  0  0  0  0  0  0  0  0  0  0
    5.9271   -3.8964   25.8283 H   0  0  0  0  0  0  0  0  0  0  0  0
   14.6200   -1.7975   20.2898 H   0  0  0  0  0  0  0  0  0  0  0  0
   15.1576   -2.6206   21.7932 H   0  0  0  0  0  0  0  0  0  0  0  0
   13.6285   -3.1071   21.0185 H   0  0  0  0  0  0  0  0  0  0  0  0
   10.6163    0.7710   24.2696 H   0  0  0  0  0  0  0  0  0  0  0  0
   10.6620    1.6610   22.7472 H   0  0  0  0  0  0  0  0  0  0  0  0
    8.6688   -1.5655   20.3666 H   0  0  0  0  0  0  0  0  0  0  0  0
    7.4298   -1.1908   21.5994 H   0  0  0  0  0  0  0  0  0  0  0  0
  1  2  1  0  0  0  0
  1  3  2  0  0  0  0
  2  4  2  0  0  0  0
  3 13  1  0  0  0  0
  4 14  1  0  0  0  0
  5  7  2  0  0  0  0
  5 15  1  0  0  0  0
  6  8  1  0  0  0  0
  6 15  2  0  0  0  0
  7 16  1  0  0  0  0
  8 16  2  0  0  0  0
  9 12  1  0  0  0  0
  9 26  2  0  0  0  0
 10 12  2  0  0  0  0
 10 28  1  0  0  0  0
 11 27  2  0  0  0  0
 11 29  1  0  0  0  0
 12 24  1  0  0  0  0
 13 14  2  0  0  0  0
 13 27  1  0  0  0  0
 14 29  1  0  0  0  0
 15 30  1  0  0  0  0
 16 31  1  0  0  0  0
 17 25  1  0  0  0  0
 17 31  1  0  0  0  0
 17 32  2  0  0  0  0
 18 19  1  0  0  0  0
 18 20  1  0  0  0  0
 19 21  1  0  0  0  0
 20 22  1  0  0  0  0
 21 30  1  0  0  0  0
 22 30  1  0  0  0  0
 23 28  1  0  0  0  0
 24 31  1  0  0  0  0
 25 29  1  0  0  0  0
 26 28  1  0  0  0  0
  1 33  1  0  0  0  0
  2 34  1  0  0  0  0
  3 35  1  0  0  0  0
  4 36  1  0  0  0  0
  5 37  1  0  0  0  0
  6 38  1  0  0  0  0
  7 39  1  0  0  0  0
  8 40  1  0  0  0  0
  9 41  1  0  0  0  0
 10 42  1  0  0  0  0
 11 43  1  0  0  0  0
 18 44  1  0  0  0  0
 18 45  1  0  0  0  0
 19 46  1  0  0  0  0
 19 47  1  0  0  0  0
 20 48  1  0  0  0  0
 20 49  1  0  0  0  0
 21 50  1  0  0  0  0
 21 51  1  0  0  0  0
 22 52  1  0  0  0  0
 22 53  1  0  0  0  0
 23 54  1  0  0  0  0
 23 55  1  0  0  0  0
 23 56  1  0  0  0  0
 24 57  1  0  0  0  0
 24 58  1  0  0  0  0
 25 59  1  0  0  0  0
 25 60  1  0  0  0  0
M  END
> <clash_score>
0

> <docking_score>
-10.670083999633789

> <overlap_score>
0.9690293073654175

$$$$
BENZO_374_1
  -OEChem-08222022473D

 60 64  0     0  0  0  0  0  0999 V2000
    3.8860    2.1050   19.5250 C   0  0  0  0  0  0  0  0  0  0  0  0
    4.2460    1.7520   20.8250 C   0  0  0  0  0  0  0  0  0  0  0  0
   13.7501   -1.1157   24.6176 C   0  0  0  0  0  0  0  0  0  0  0  0
   12.5991   -0.3339   24.5202 C   0  0  0  0  0  0  0  0  0  0  0  0
    4.6610    1.7170   18.4380 C   0  0  0  0  0  0  0  0  0  0  0  0
    5.3890    1.0010   21.0690 C   0  0  0  0  0  0  0  0  0  0  0  0
    9.1890   -3.5540   24.0140 C   0  0  0  0  0  0  0  0  0  0  0  0
    7.8700   -2.0610   25.3550 C   0  0  0  0  0  0  0  0  0  0  0  0
    9.5890   -2.4950   23.2210 C   0  0  0  0  0  0  0  0  0  0  0  0
    8.2550   -1.0010   24.5520 C   0  0  0  0  0  0  0  0  0  0  0  0
   14.2636   -1.7454   23.4838 C   0  0  0  0  0  0  0  0  0  0  0  0
   12.4750   -0.8115   22.1551 C   0  0  0  0  0  0  0  0  0  0  0  0
    7.5840   -0.2700   18.5160 C   0  0  0  0  0  0  0  0  0  0  0  0
   11.9616   -0.1817   23.2889 C   0  0  0  0  0  0  0  0  0  0  0  0
    5.7970    0.9500   18.6730 C   0  0  0  0  0  0  0  0  0  0  0  0
    6.1460    0.6070   19.9750 C   0  0  0  0  0  0  0  0  0  0  0  0
    8.3450   -3.3440   25.0980 C   0  0  0  0  0  0  0  0  0  0  0  0
    9.1280   -1.2090   23.4870 C   0  0  0  0  0  0  0  0  0  0  0  0
   13.6261   -1.5933   22.2526 C   0  0  0  0  0  0  0  0  0  0  0  0
    9.0430    0.2380   21.4940 C   0  0  0  0  0  0  0  0  0  0  0  0
    7.5748   -4.8280   28.7278 C   0  0  0  0  0  0  0  0  0  0  0  0
    8.9776   -4.7555   28.1204 C   0  0  0  0  0  0  0  0  0  0  0  0
    6.5554   -4.0713   27.8732 C   0  0  0  0  0  0  0  0  0  0  0  0
    8.9620   -5.1961   26.6568 C   0  0  0  0  0  0  0  0  0  0  0  0
    6.6009   -4.5253   26.4110 C   0  0  0  0  0  0  0  0  0  0  0  0
   10.7220    0.6590   23.1850 C   0  0  0  0  0  0  0  0  0  0  0  0
    8.0950   -0.7700   20.8440 C   0  0  0  0  0  0  0  0  0  0  0  0
    6.7100    0.3850   17.8100 N   0  0  0  0  0  0  0  0  0  0  0  0
    7.2710   -0.1460   19.8310 N   0  0  0  0  0  0  0  0  0  0  0  0
    7.9770   -4.4029   25.9162 N   0  0  0  0  0  0  0  0  0  0  0  0
    9.5820   -0.1080   22.7000 N   0  0  0  0  0  0  0  0  0  0  0  0
    9.2950    1.3000   20.9480 O   0  0  0  0  0  0  0  0  0  0  0  0
   14.2594   -2.3714   20.8543 Cl  0  0  0  0  0  0  0  0  0  0  0  0
    2.9844    2.6932   19.3613 H   0  0  0  0  0  0  0  0  0  0  0  0
    3.6232    2.0695   21.6567 H   0  0  0  0  0  0  0  0  0  0  0  0
   14.2462   -1.2340   25.5766 H   0  0  0  0  0  0  0  0  0  0  0  0
   12.2060    0.1530   25.4088 H   0  0  0  0  0  0  0  0  0  0  0  0
    4.3779    2.0108   17.4276 H   0  0  0  0  0  0  0  0  0  0  0  0
    5.6763    0.7334   22.0897 H   0  0  0  0  0  0  0  0  0  0  0  0
    9.5426   -4.5618   23.7797 H   0  0  0  0  0  0  0  0  0  0  0  0
    7.1914   -1.8824   26.1903 H   0  0  0  0  0  0  0  0  0  0  0  0
   10.2669   -2.6745   22.3854 H   0  0  0  0  0  0  0  0  0  0  0  0
    7.8690   -0.0020   24.7587 H   0  0  0  0  0  0  0  0  0  0  0  0
   15.1613   -2.3520   23.5747 H   0  0  0  0  0  0  0  0  0  0  0  0
   11.9745   -0.6893   21.1973 H   0  0  0  0  0  0  0  0  0  0  0  0
    8.4216   -0.8246   18.1565 H   0  0  0  0  0  0  0  0  0  0  0  0
    7.2681   -5.8807   28.8239 H   0  0  0  0  0  0  0  0  0  0  0  0
    7.5891   -4.4101   29.7448 H   0  0  0  0  0  0  0  0  0  0  0  0
    9.3554   -3.7320   28.1920 H   0  0  0  0  0  0  0  0  0  0  0  0
    9.6558   -5.3943   28.6900 H   0  0  0  0  0  0  0  0  0  0  0  0
    5.5496   -4.2322   28.2751 H   0  0  0  0  0  0  0  0  0  0  0  0
    6.7545   -2.9948   27.9293 H   0  0  0  0  0  0  0  0  0  0  0  0
    9.9612   -5.0560   26.2363 H   0  0  0  0  0  0  0  0  0  0  0  0
    8.7097   -6.2583   26.5922 H   0  0  0  0  0  0  0  0  0  0  0  0
    6.2649   -5.5600   26.3335 H   0  0  0  0  0  0  0  0  0  0  0  0
    5.9271   -3.8964   25.8283 H   0  0  0  0  0  0  0  0  0  0  0  0
   10.4561    1.0772   24.1620 H   0  0  0  0  0  0  0  0  0  0  0  0
   10.8743    1.5008   22.5014 H   0  0  0  0  0  0  0  0  0  0  0  0
    8.6688   -1.5655   20.3666 H   0  0  0  0  0  0  0  0  0  0  0  0
    7.4298   -1.1908   21.5994 H   0  0  0  0  0  0  0  0  0  0  0  0
  1  2  1  0  0  0  0
  1  5  2  0  0  0  0
  2  6  2  0  0  0  0
  3  4  2  0  0  0  0
  3 11  1  0  0  0  0
  4 14  1  0  0  0  0
  5 15  1  0  0  0  0
  6 16  1  0  0  0  0
  7  9  2  0  0  0  0
  7 17  1  0  0  0  0
  8 10  1  0  0  0  0
  8 17  2  0  0  0  0
  9 18  1  0  0  0  0
 10 18  2  0  0  0  0
 11 19  2  0  0  0  0
 12 14  2  0  0  0  0
 12 19  1  0  0  0  0
 13 28  2  0  0  0  0
 13 29  1  0  0  0  0
 14 26  1  0  0  0  0
 15 16  2  0  0  0  0
 15 28  1  0  0  0  0
 16 29  1  0  0  0  0
 17 30  1  0  0  0  0
 18 31  1  0  0  0  0
 19 33  1  0  0  0  0
 20 27  1  0  0  0  0
 20 31  1  0  0  0  0
 20 32  2  0  0  0  0
 21 22  1  0  0  0  0
 21 23  1  0  0  0  0
 22 24  1  0  0  0  0
 23 25  1  0  0  0  0
 24 30  1  0  0  0  0
 25 30  1  0  0  0  0
 26 31  1  0  0  0  0
 27 29  1  0  0  0  0
  1 34  1  0  0  0  0
  2 35  1  0  0  0  0
  3 36  1  0  0  0  0
  4 37  1  0  0  0  0
  5 38  1  0  0  0  0
  6 39  1  0  0  0  0
  7 40  1  0  0  0  0
  8 41  1  0  0  0  0
  9 42  1  0  0  0  0
 10 43  1  0  0  0  0
 11 44  1  0  0  0  0
 12 45  1  0  0  0  0
 13 46  1  0  0  0  0
 21 47  1  0  0  0  0
 21 48  1  0  0  0  0
 22 49  1  0  0  0  0
 22 50  1  0  0  0  0
 23 51  1  0  0  0  0
 23 52  1  0  0  0  0
 24 53  1  0  0  0  0
 24 54  1  0  0  0  0
 25 55  1  0  0  0  0
 25 56  1  0  0  0  0
 26 57  1  0  0  0  0
 26 58  1  0  0  0  0
 27 59  1  0  0  0  0
 27 60  1  0  0  0  0
M  END
> <clash_score>
0

> <docking_score>
-10.180012702941895

> <overlap_score>
0.9978207945823669

$$$$
BENZO_378_1
  -OEChem-08222022473D

 48 51  0     0  0  0  0  0  0999 V2000
    3.8860    2.1050   19.5250 C   0  0  0  0  0  0  0  0  0  0  0  0
    4.2460    1.7520   20.8250 C   0  0  0  0  0  0  0  0  0  0  0  0
   13.7501   -1.1157   24.6177 C   0  0  0  0  0  0  0  0  0  0  0  0
   12.5991   -0.3339   24.5202 C   0  0  0  0  0  0  0  0  0  0  0  0
    9.1890   -3.5540   24.0140 C   0  0  0  0  0  0  0  0  0  0  0  0
    7.8700   -2.0610   25.3550 C   0  0  0  0  0  0  0  0  0  0  0  0
    4.6610    1.7170   18.4380 C   0  0  0  0  0  0  0  0  0  0  0  0
    5.3890    1.0010   21.0690 C   0  0  0  0  0  0  0  0  0  0  0  0
    9.5890   -2.4950   23.2210 C   0  0  0  0  0  0  0  0  0  0  0  0
    8.2550   -1.0010   24.5520 C   0  0  0  0  0  0  0  0  0  0  0  0
   14.2636   -1.7454   23.4838 C   0  0  0  0  0  0  0  0  0  0  0  0
   12.4750   -0.8115   22.1551 C   0  0  0  0  0  0  0  0  0  0  0  0
    7.5840   -0.2700   18.5160 C   0  0  0  0  0  0  0  0  0  0  0  0
    8.3450   -3.3440   25.0980 C   0  0  0  0  0  0  0  0  0  0  0  0
   11.9616   -0.1817   23.2889 C   0  0  0  0  0  0  0  0  0  0  0  0
    5.7970    0.9500   18.6730 C   0  0  0  0  0  0  0  0  0  0  0  0
    6.1460    0.6070   19.9750 C   0  0  0  0  0  0  0  0  0  0  0  0
    9.1280   -1.2090   23.4870 C   0  0  0  0  0  0  0  0  0  0  0  0
   13.6260   -1.5933   22.2526 C   0  0  0  0  0  0  0  0  0  0  0  0
    9.0430    0.2380   21.4940 C   0  0  0  0  0  0  0  0  0  0  0  0
    7.9522   -4.4794   25.9764 C   0  0  0  0  0  0  0  0  0  0  0  0
   10.7220    0.6590   23.1850 C   0  0  0  0  0  0  0  0  0  0  0  0
    8.0950   -0.7700   20.8440 C   0  0  0  0  0  0  0  0  0  0  0  0
    6.7100    0.3850   17.8100 N   0  0  0  0  0  0  0  0  0  0  0  0
    7.2710   -0.1460   19.8310 N   0  0  0  0  0  0  0  0  0  0  0  0
    9.5820   -0.1080   22.7000 N   0  0  0  0  0  0  0  0  0  0  0  0
    9.2950    1.3000   20.9480 O   0  0  0  0  0  0  0  0  0  0  0  0
   14.2594   -2.3714   20.8543 Cl  0  0  0  0  0  0  0  0  0  0  0  0
    2.9844    2.6932   19.3613 H   0  0  0  0  0  0  0  0  0  0  0  0
    3.6232    2.0695   21.6567 H   0  0  0  0  0  0  0  0  0  0  0  0
   14.2462   -1.2340   25.5766 H   0  0  0  0  0  0  0  0  0  0  0  0
   12.2060    0.1530   25.4088 H   0  0  0  0  0  0  0  0  0  0  0  0
    9.5403   -4.5627   23.7809 H   0  0  0  0  0  0  0  0  0  0  0  0
    7.1911   -1.8848   26.1904 H   0  0  0  0  0  0  0  0  0  0  0  0
    4.3779    2.0108   17.4276 H   0  0  0  0  0  0  0  0  0  0  0  0
    5.6763    0.7334   22.0897 H   0  0  0  0  0  0  0  0  0  0  0  0
   10.2682   -2.6746   22.3865 H   0  0  0  0  0  0  0  0  0  0  0  0
    7.8684   -0.0022   24.7594 H   0  0  0  0  0  0  0  0  0  0  0  0
   15.1613   -2.3520   23.5748 H   0  0  0  0  0  0  0  0  0  0  0  0
   11.9745   -0.6893   21.1973 H   0  0  0  0  0  0  0  0  0  0  0  0
    8.4216   -0.8246   18.1565 H   0  0  0  0  0  0  0  0  0  0  0  0
    8.6668   -4.5891   26.8013 H   0  0  0  0  0  0  0  0  0  0  0  0
    6.9513   -4.3276   26.4010 H   0  0  0  0  0  0  0  0  0  0  0  0
    7.9196   -5.4231   25.4163 H   0  0  0  0  0  0  0  0  0  0  0  0
   10.4561    1.0772   24.1620 H   0  0  0  0  0  0  0  0  0  0  0  0
   10.8743    1.5008   22.5014 H   0  0  0  0  0  0  0  0  0  0  0  0
    8.6626   -1.5629   20.3596 H   0  0  0  0  0  0  0  0  0  0  0  0
    7.4236   -1.1883   21.5924 H   0  0  0  0  0  0  0  0  0  0  0  0
  1  2  1  0  0  0  0
  1  7  2  0  0  0  0
  2  8  2  0  0  0  0
  3  4  2  0  0  0  0
  3 11  1  0  0  0  0
  4 15  1  0  0  0  0
  5  9  2  0  0  0  0
  5 14  1  0  0  0  0
  6 10  1  0  0  0  0
  6 14  2  0  0  0  0
  7 16  1  0  0  0  0
  8 17  1  0  0  0  0
  9 18  1  0  0  0  0
 10 18  2  0  0  0  0
 11 19  2  0  0  0  0
 12 15  2  0  0  0  0
 12 19  1  0  0  0  0
 13 24  2  0  0  0  0
 13 25  1  0  0  0  0
 14 21  1  0  0  0  0
 15 22  1  0  0  0  0
 16 17  2  0  0  0  0
 16 24  1  0  0  0  0
 17 25  1  0  0  0  0
 18 26  1  0  0  0  0
 19 28  1  0  0  0  0
 20 23  1  0  0  0  0
 20 26  1  0  0  0  0
 20 27  2  0  0  0  0
 22 26  1  0  0  0  0
 23 25  1  0  0  0  0
  1 29  1  0  0  0  0
  2 30  1  0  0  0  0
  3 31  1  0  0  0  0
  4 32  1  0  0  0  0
  5 33  1  0  0  0  0
  6 34  1  0  0  0  0
  7 35  1  0  0  0  0
  8 36  1  0  0  0  0
  9 37  1  0  0  0  0
 10 38  1  0  0  0  0
 11 39  1  0  0  0  0
 12 40  1  0  0  0  0
 13 41  1  0  0  0  0
 21 42  1  0  0  0  0
 21 43  1  0  0  0  0
 21 44  1  0  0  0  0
 22 45  1  0  0  0  0
 22 46  1  0  0  0  0
 23 47  1  0  0  0  0
 23 48  1  0  0  0  0
M  END
> <clash_score>
0

> <docking_score>
-9.278890609741211

> <overlap_score>
0.9100707769393921

$$$$
BENZO_379_1
  -OEChem-08222022473D

 48 51  0     0  0  0  0  0  0999 V2000
    3.8860    2.1050   19.5250 C   0  0  0  0  0  0  0  0  0  0  0  0
    4.2460    1.7520   20.8250 C   0  0  0  0  0  0  0  0  0  0  0  0
    9.1890   -3.5540   24.0140 C   0  0  0  0  0  0  0  0  0  0  0  0
    7.8700   -2.0610   25.3550 C   0  0  0  0  0  0  0  0  0  0  0  0
    4.6610    1.7170   18.4380 C   0  0  0  0  0  0  0  0  0  0  0  0
    5.3890    1.0010   21.0690 C   0  0  0  0  0  0  0  0  0  0  0  0
    9.5890   -2.4950   23.2210 C   0  0  0  0  0  0  0  0  0  0  0  0
    8.2550   -1.0010   24.5520 C   0  0  0  0  0  0  0  0  0  0  0  0
   12.7320   -0.4464   24.4370 C   0  0  0  0  0  0  0  0  0  0  0  0
   12.5970   -0.8682   22.2832 C   0  0  0  0  0  0  0  0  0  0  0  0
    7.5840   -0.2700   18.5160 C   0  0  0  0  0  0  0  0  0  0  0  0
    8.3450   -3.3440   25.0980 C   0  0  0  0  0  0  0  0  0  0  0  0
   11.9616   -0.1817   23.2889 C   0  0  0  0  0  0  0  0  0  0  0  0
    5.7970    0.9500   18.6730 C   0  0  0  0  0  0  0  0  0  0  0  0
    6.1460    0.6070   19.9750 C   0  0  0  0  0  0  0  0  0  0  0  0
    9.1280   -1.2090   23.4870 C   0  0  0  0  0  0  0  0  0  0  0  0
    9.0430    0.2380   21.4940 C   0  0  0  0  0  0  0  0  0  0  0  0
    7.9522   -4.4794   25.9764 C   0  0  0  0  0  0  0  0  0  0  0  0
   14.6393   -2.3180   22.2082 C   0  0  0  0  0  0  0  0  0  0  0  0
   10.7220    0.6590   23.1850 C   0  0  0  0  0  0  0  0  0  0  0  0
    8.0950   -0.7700   20.8440 C   0  0  0  0  0  0  0  0  0  0  0  0
   13.7770   -1.2393   24.1852 N   0  0  0  0  0  0  0  0  0  0  0  0
    6.7100    0.3850   17.8100 N   0  0  0  0  0  0  0  0  0  0  0  0
   13.6676   -1.4788   22.8673 N   0  0  0  0  0  0  0  0  0  0  0  0
    7.2710   -0.1460   19.8310 N   0  0  0  0  0  0  0  0  0  0  0  0
    9.5820   -0.1080   22.7000 N   0  0  0  0  0  0  0  0  0  0  0  0
    9.2950    1.3000   20.9480 O   0  0  0  0  0  0  0  0  0  0  0  0
    2.9844    2.6932   19.3613 H   0  0  0  0  0  0  0  0  0  0  0  0
    3.6232    2.0695   21.6567 H   0  0  0  0  0  0  0  0  0  0  0  0
    9.5403   -4.5627   23.7809 H   0  0  0  0  0  0  0  0  0  0  0  0
    7.1911   -1.8848   26.1904 H   0  0  0  0  0  0  0  0  0  0  0  0
    4.3779    2.0108   17.4276 H   0  0  0  0  0  0  0  0  0  0  0  0
    5.6763    0.7334   22.0897 H   0  0  0  0  0  0  0  0  0  0  0  0
   10.2682   -2.6746   22.3865 H   0  0  0  0  0  0  0  0  0  0  0  0
    7.8684   -0.0022   24.7594 H   0  0  0  0  0  0  0  0  0  0  0  0
   12.5771   -0.0965   25.4478 H   0  0  0  0  0  0  0  0  0  0  0  0
   12.3832   -0.9726   21.2281 H   0  0  0  0  0  0  0  0  0  0  0  0
    8.4216   -0.8246   18.1565 H   0  0  0  0  0  0  0  0  0  0  0  0
    8.6668   -4.5891   26.8013 H   0  0  0  0  0  0  0  0  0  0  0  0
    6.9513   -4.3276   26.4010 H   0  0  0  0  0  0  0  0  0  0  0  0
    7.9196   -5.4231   25.4163 H   0  0  0  0  0  0  0  0  0  0  0  0
   15.4522   -1.6787   21.8540 H   0  0  0  0  0  0  0  0  0  0  0  0
   15.0179   -3.0613   22.9154 H   0  0  0  0  0  0  0  0  0  0  0  0
   14.1626   -2.8324   21.3691 H   0  0  0  0  0  0  0  0  0  0  0  0
   10.4561    1.0772   24.1620 H   0  0  0  0  0  0  0  0  0  0  0  0
   10.8743    1.5008   22.5014 H   0  0  0  0  0  0  0  0  0  0  0  0
    8.6626   -1.5629   20.3596 H   0  0  0  0  0  0  0  0  0  0  0  0
    7.4236   -1.1883   21.5924 H   0  0  0  0  0  0  0  0  0  0  0  0
  1  2  1  0  0  0  0
  1  5  2  0  0  0  0
  2  6  2  0  0  0  0
  3  7  2  0  0  0  0
  3 12  1  0  0  0  0
  4  8  1  0  0  0  0
  4 12  2  0  0  0  0
  5 14  1  0  0  0  0
  6 15  1  0  0  0  0
  7 16  1  0  0  0  0
  8 16  2  0  0  0  0
  9 13  1  0  0  0  0
  9 22  2  0  0  0  0
 10 13  2  0  0  0  0
 10 24  1  0  0  0  0
 11 23  2  0  0  0  0
 11 25  1  0  0  0  0
 12 18  1  0  0  0  0
 13 20  1  0  0  0  0
 14 15  2  0  0  0  0
 14 23  1  0  0  0  0
 15 25  1  0  0  0  0
 16 26  1  0  0  0  0
 17 21  1  0  0  0  0
 17 26  1  0  0  0  0
 17 27  2  0  0  0  0
 19 24  1  0  0  0  0
 20 26  1  0  0  0  0
 21 25  1  0  0  0  0
 22 24  1  0  0  0  0
  1 28  1  0  0  0  0
  2 29  1  0  0  0  0
  3 30  1  0  0  0  0
  4 31  1  0  0  0  0
  5 32  1  0  0  0  0
  6 33  1  0  0  0  0
  7 34  1  0  0  0  0
  8 35  1  0  0  0  0
  9 36  1  0  0  0  0
 10 37  1  0  0  0  0
 11 38  1  0  0  0  0
 18 39  1  0  0  0  0
 18 40  1  0  0  0  0
 18 41  1  0  0  0  0
 19 42  1  0  0  0  0
 19 43  1  0  0  0  0
 19 44  1  0  0  0  0
 20 45  1  0  0  0  0
 20 46  1  0  0  0  0
 21 47  1  0  0  0  0
 21 48  1  0  0  0  0
M  END
> <clash_score>
0

> <docking_score>
-8.51491641998291

> <overlap_score>
0.9054272770881653

$$$$
BENZO_381_1
  -OEChem-08222022473D

 49 52  0     0  0  0  0  0  0999 V2000
   14.2641   -1.7450   23.4813 C   0  0  0  0  0  0  0  0  0  0  0  0
   14.0779   -0.6681   24.3480 C   0  0  0  0  0  0  0  0  0  0  0  0
   13.2991   -2.0403   22.5184 C   0  0  0  0  0  0  0  0  0  0  0  0
    3.8860    2.1050   19.5250 C   0  0  0  0  0  0  0  0  0  0  0  0
    4.2460    1.7520   20.8250 C   0  0  0  0  0  0  0  0  0  0  0  0
   12.9266    0.1135   24.2518 C   0  0  0  0  0  0  0  0  0  0  0  0
   12.1478   -1.2587   22.4222 C   0  0  0  0  0  0  0  0  0  0  0  0
    4.6610    1.7170   18.4380 C   0  0  0  0  0  0  0  0  0  0  0  0
    5.3890    1.0010   21.0690 C   0  0  0  0  0  0  0  0  0  0  0  0
    9.5890   -2.4950   23.2210 C   0  0  0  0  0  0  0  0  0  0  0  0
    8.2550   -1.0010   24.5520 C   0  0  0  0  0  0  0  0  0  0  0  0
    9.1890   -3.5540   24.0140 C   0  0  0  0  0  0  0  0  0  0  0  0
    7.8700   -2.0610   25.3550 C   0  0  0  0  0  0  0  0  0  0  0  0
    7.5840   -0.2700   18.5160 C   0  0  0  0  0  0  0  0  0  0  0  0
   11.9616   -0.1817   23.2889 C   0  0  0  0  0  0  0  0  0  0  0  0
    5.7970    0.9500   18.6730 C   0  0  0  0  0  0  0  0  0  0  0  0
    6.1460    0.6070   19.9750 C   0  0  0  0  0  0  0  0  0  0  0  0
    9.1280   -1.2090   23.4870 C   0  0  0  0  0  0  0  0  0  0  0  0
    8.3450   -3.3440   25.0980 C   0  0  0  0  0  0  0  0  0  0  0  0
    9.0430    0.2380   21.4940 C   0  0  0  0  0  0  0  0  0  0  0  0
    8.5124   -5.6656   25.5743 C   0  0  0  0  0  0  0  0  0  0  0  0
   10.7220    0.6590   23.1850 C   0  0  0  0  0  0  0  0  0  0  0  0
    8.0950   -0.7700   20.8440 C   0  0  0  0  0  0  0  0  0  0  0  0
    6.7100    0.3850   17.8100 N   0  0  0  0  0  0  0  0  0  0  0  0
    7.2710   -0.1460   19.8310 N   0  0  0  0  0  0  0  0  0  0  0  0
    9.5820   -0.1080   22.7000 N   0  0  0  0  0  0  0  0  0  0  0  0
    9.2950    1.3000   20.9480 O   0  0  0  0  0  0  0  0  0  0  0  0
    7.9864   -4.3799   25.8996 O   0  0  0  0  0  0  0  0  0  0  0  0
   15.1613   -2.3527   23.5555 H   0  0  0  0  0  0  0  0  0  0  0  0
   14.8297   -0.4373   25.0971 H   0  0  0  0  0  0  0  0  0  0  0  0
   13.4443   -2.8780   21.8427 H   0  0  0  0  0  0  0  0  0  0  0  0
    2.9844    2.6932   19.3613 H   0  0  0  0  0  0  0  0  0  0  0  0
    3.6232    2.0695   21.6567 H   0  0  0  0  0  0  0  0  0  0  0  0
   12.7899    0.9506   24.9315 H   0  0  0  0  0  0  0  0  0  0  0  0
   11.4013   -1.4963   21.6690 H   0  0  0  0  0  0  0  0  0  0  0  0
    4.3779    2.0108   17.4276 H   0  0  0  0  0  0  0  0  0  0  0  0
    5.6763    0.7334   22.0897 H   0  0  0  0  0  0  0  0  0  0  0  0
   10.2678   -2.6746   22.3862 H   0  0  0  0  0  0  0  0  0  0  0  0
    7.8691   -0.0023   24.7606 H   0  0  0  0  0  0  0  0  0  0  0  0
    9.5404   -4.5633   23.7846 H   0  0  0  0  0  0  0  0  0  0  0  0
    7.1920   -1.8875   26.1914 H   0  0  0  0  0  0  0  0  0  0  0  0
    8.4216   -0.8246   18.1565 H   0  0  0  0  0  0  0  0  0  0  0  0
    8.1469   -6.4024   26.2938 H   0  0  0  0  0  0  0  0  0  0  0  0
    9.6045   -5.6297   25.5962 H   0  0  0  0  0  0  0  0  0  0  0  0
    8.1790   -5.9427   24.5714 H   0  0  0  0  0  0  0  0  0  0  0  0
   10.4561    1.0772   24.1620 H   0  0  0  0  0  0  0  0  0  0  0  0
   10.8743    1.5008   22.5014 H   0  0  0  0  0  0  0  0  0  0  0  0
    8.6626   -1.5629   20.3596 H   0  0  0  0  0  0  0  0  0  0  0  0
    7.4236   -1.1883   21.5924 H   0  0  0  0  0  0  0  0  0  0  0  0
  1  2  1  0  0  0  0
  1  3  2  0  0  0  0
  2  6  2  0  0  0  0
  3  7  1  0  0  0  0
  4  5  1  0  0  0  0
  4  8  2  0  0  0  0
  5  9  2  0  0  0  0
  6 15  1  0  0  0  0
  7 15  2  0  0  0  0
  8 16  1  0  0  0  0
  9 17  1  0  0  0  0
 10 12  2  0  0  0  0
 10 18  1  0  0  0  0
 11 13  1  0  0  0  0
 11 18  2  0  0  0  0
 12 19  1  0  0  0  0
 13 19  2  0  0  0  0
 14 24  2  0  0  0  0
 14 25  1  0  0  0  0
 15 22  1  0  0  0  0
 16 17  2  0  0  0  0
 16 24  1  0  0  0  0
 17 25  1  0  0  0  0
 18 26  1  0  0  0  0
 19 28  1  0  0  0  0
 20 23  1  0  0  0  0
 20 26  1  0  0  0  0
 20 27  2  0  0  0  0
 21 28  1  0  0  0  0
 22 26  1  0  0  0  0
 23 25  1  0  0  0  0
  1 29  1  0  0  0  0
  2 30  1  0  0  0  0
  3 31  1  0  0  0  0
  4 32  1  0  0  0  0
  5 33  1  0  0  0  0
  6 34  1  0  0  0  0
  7 35  1  0  0  0  0
  8 36  1  0  0  0  0
  9 37  1  0  0  0  0
 10 38  1  0  0  0  0
 11 39  1  0  0  0  0
 12 40  1  0  0  0  0
 13 41  1  0  0  0  0
 14 42  1  0  0  0  0
 21 43  1  0  0  0  0
 21 44  1  0  0  0  0
 21 45  1  0  0  0  0
 22 46  1  0  0  0  0
 22 47  1  0  0  0  0
 23 48  1  0  0  0  0
 23 49  1  0  0  0  0
M  END
> <clash_score>
0

> <docking_score>
-10.44523811340332

> <overlap_score>
0.915462851524353

$$$$
BENZO_380_1
  -OEChem-08222022473D

 46 49  0     0  0  0  0  0  0999 V2000
    3.8860    2.1050   19.5250 C   0  0  0  0  0  0  0  0  0  0  0  0
    4.2460    1.7520   20.8250 C   0  0  0  0  0  0  0  0  0  0  0  0
    4.6610    1.7170   18.4380 C   0  0  0  0  0  0  0  0  0  0  0  0
    5.3890    1.0010   21.0690 C   0  0  0  0  0  0  0  0  0  0  0  0
    9.5890   -2.4950   23.2210 C   0  0  0  0  0  0  0  0  0  0  0  0
    8.2550   -1.0010   24.5520 C   0  0  0  0  0  0  0  0  0  0  0  0
    9.1890   -3.5540   24.0140 C   0  0  0  0  0  0  0  0  0  0  0  0
    7.8700   -2.0610   25.3550 C   0  0  0  0  0  0  0  0  0  0  0  0
   12.5566   -0.8597   22.1860 C   0  0  0  0  0  0  0  0  0  0  0  0
   13.6839   -1.5596   22.5559 C   0  0  0  0  0  0  0  0  0  0  0  0
   12.6568   -0.3896   24.4600 C   0  0  0  0  0  0  0  0  0  0  0  0
    7.5840   -0.2700   18.5160 C   0  0  0  0  0  0  0  0  0  0  0  0
   11.9616   -0.1817   23.2889 C   0  0  0  0  0  0  0  0  0  0  0  0
    5.7970    0.9500   18.6730 C   0  0  0  0  0  0  0  0  0  0  0  0
    6.1460    0.6070   19.9750 C   0  0  0  0  0  0  0  0  0  0  0  0
    9.1280   -1.2090   23.4870 C   0  0  0  0  0  0  0  0  0  0  0  0
    8.3450   -3.3440   25.0980 C   0  0  0  0  0  0  0  0  0  0  0  0
    9.0430    0.2380   21.4940 C   0  0  0  0  0  0  0  0  0  0  0  0
    8.5124   -5.6656   25.5743 C   0  0  0  0  0  0  0  0  0  0  0  0
   10.7220    0.6590   23.1850 C   0  0  0  0  0  0  0  0  0  0  0  0
    8.0950   -0.7700   20.8440 C   0  0  0  0  0  0  0  0  0  0  0  0
    6.7100    0.3850   17.8100 N   0  0  0  0  0  0  0  0  0  0  0  0
    7.2710   -0.1460   19.8310 N   0  0  0  0  0  0  0  0  0  0  0  0
    9.5820   -0.1080   22.7000 N   0  0  0  0  0  0  0  0  0  0  0  0
    9.2950    1.3000   20.9480 O   0  0  0  0  0  0  0  0  0  0  0  0
    7.9864   -4.3799   25.8996 O   0  0  0  0  0  0  0  0  0  0  0  0
   14.0209   -1.3981   24.2270 S   0  0  0  0  0  0  0  0  0  0  0  0
    2.9844    2.6932   19.3613 H   0  0  0  0  0  0  0  0  0  0  0  0
    3.6232    2.0695   21.6567 H   0  0  0  0  0  0  0  0  0  0  0  0
    4.3779    2.0108   17.4276 H   0  0  0  0  0  0  0  0  0  0  0  0
    5.6763    0.7334   22.0897 H   0  0  0  0  0  0  0  0  0  0  0  0
   10.2678   -2.6746   22.3862 H   0  0  0  0  0  0  0  0  0  0  0  0
    7.8691   -0.0023   24.7606 H   0  0  0  0  0  0  0  0  0  0  0  0
    9.5404   -4.5633   23.7846 H   0  0  0  0  0  0  0  0  0  0  0  0
    7.1920   -1.8875   26.1914 H   0  0  0  0  0  0  0  0  0  0  0  0
   12.1799   -0.8381   21.1711 H   0  0  0  0  0  0  0  0  0  0  0  0
   14.3253   -2.1586   21.9250 H   0  0  0  0  0  0  0  0  0  0  0  0
   12.4317   -0.0004   25.4433 H   0  0  0  0  0  0  0  0  0  0  0  0
    8.4216   -0.8246   18.1565 H   0  0  0  0  0  0  0  0  0  0  0  0
    8.1469   -6.4024   26.2938 H   0  0  0  0  0  0  0  0  0  0  0  0
    9.6045   -5.6297   25.5962 H   0  0  0  0  0  0  0  0  0  0  0  0
    8.1790   -5.9427   24.5714 H   0  0  0  0  0  0  0  0  0  0  0  0
   10.4561    1.0772   24.1620 H   0  0  0  0  0  0  0  0  0  0  0  0
   10.8743    1.5008   22.5014 H   0  0  0  0  0  0  0  0  0  0  0  0
    8.6626   -1.5629   20.3596 H   0  0  0  0  0  0  0  0  0  0  0  0
    7.4236   -1.1883   21.5924 H   0  0  0  0  0  0  0  0  0  0  0  0
  1  2  1  0  0  0  0
  1  3  2  0  0  0  0
  2  4  2  0  0  0  0
  3 14  1  0  0  0  0
  4 15  1  0  0  0  0
  5  7  2  0  0  0  0
  5 16  1  0  0  0  0
  6  8  1  0  0  0  0
  6 16  2  0  0  0  0
  7 17  1  0  0  0  0
  8 17  2  0  0  0  0
  9 10  2  0  0  0  0
  9 13  1  0  0  0  0
 10 27  1  0  0  0  0
 11 13  2  0  0  0  0
 11 27  1  0  0  0  0
 12 22  2  0  0  0  0
 12 23  1  0  0  0  0
 13 20  1  0  0  0  0
 14 15  2  0  0  0  0
 14 22  1  0  0  0  0
 15 23  1  0  0  0  0
 16 24  1  0  0  0  0
 17 26  1  0  0  0  0
 18 21  1  0  0  0  0
 18 24  1  0  0  0  0
 18 25  2  0  0  0  0
 19 26  1  0  0  0  0
 20 24  1  0  0  0  0
 21 23  1  0  0  0  0
  1 28  1  0  0  0  0
  2 29  1  0  0  0  0
  3 30  1  0  0  0  0
  4 31  1  0  0  0  0
  5 32  1  0  0  0  0
  6 33  1  0  0  0  0
  7 34  1  0  0  0  0
  8 35  1  0  0  0  0
  9 36  1  0  0  0  0
 10 37  1  0  0  0  0
 11 38  1  0  0  0  0
 12 39  1  0  0  0  0
 19 40  1  0  0  0  0
 19 41  1  0  0  0  0
 19 42  1  0  0  0  0
 20 43  1  0  0  0  0
 20 44  1  0  0  0  0
 21 45  1  0  0  0  0
 21 46  1  0  0  0  0
M  END
> <clash_score>
0

> <docking_score>
-9.83393669128418

> <overlap_score>
0.9034122824668884

$$$$
BENZO_383_1
  -OEChem-08222022473D

 49 52  0     0  0  0  0  0  0999 V2000
    3.8860    2.1050   19.5250 C   0  0  0  0  0  0  0  0  0  0  0  0
    4.2460    1.7520   20.8250 C   0  0  0  0  0  0  0  0  0  0  0  0
    4.6610    1.7170   18.4380 C   0  0  0  0  0  0  0  0  0  0  0  0
    5.3890    1.0010   21.0690 C   0  0  0  0  0  0  0  0  0  0  0  0
    9.5890   -2.4950   23.2210 C   0  0  0  0  0  0  0  0  0  0  0  0
    8.2550   -1.0010   24.5520 C   0  0  0  0  0  0  0  0  0  0  0  0
    9.1890   -3.5540   24.0140 C   0  0  0  0  0  0  0  0  0  0  0  0
    7.8700   -2.0610   25.3550 C   0  0  0  0  0  0  0  0  0  0  0  0
   12.7320   -0.4464   24.4370 C   0  0  0  0  0  0  0  0  0  0  0  0
   12.5970   -0.8682   22.2832 C   0  0  0  0  0  0  0  0  0  0  0  0
    7.5840   -0.2700   18.5160 C   0  0  0  0  0  0  0  0  0  0  0  0
   11.9616   -0.1817   23.2889 C   0  0  0  0  0  0  0  0  0  0  0  0
    5.7970    0.9500   18.6730 C   0  0  0  0  0  0  0  0  0  0  0  0
    6.1460    0.6070   19.9750 C   0  0  0  0  0  0  0  0  0  0  0  0
    9.1280   -1.2090   23.4870 C   0  0  0  0  0  0  0  0  0  0  0  0
    8.3450   -3.3440   25.0980 C   0  0  0  0  0  0  0  0  0  0  0  0
    9.0430    0.2380   21.4940 C   0  0  0  0  0  0  0  0  0  0  0  0
   14.6393   -2.3180   22.2082 C   0  0  0  0  0  0  0  0  0  0  0  0
    8.5124   -5.6656   25.5743 C   0  0  0  0  0  0  0  0  0  0  0  0
   10.7220    0.6590   23.1850 C   0  0  0  0  0  0  0  0  0  0  0  0
    8.0950   -0.7700   20.8440 C   0  0  0  0  0  0  0  0  0  0  0  0
   13.7770   -1.2393   24.1852 N   0  0  0  0  0  0  0  0  0  0  0  0
    6.7100    0.3850   17.8100 N   0  0  0  0  0  0  0  0  0  0  0  0
   13.6676   -1.4788   22.8673 N   0  0  0  0  0  0  0  0  0  0  0  0
    7.2710   -0.1460   19.8310 N   0  0  0  0  0  0  0  0  0  0  0  0
    9.5820   -0.1080   22.7000 N   0  0  0  0  0  0  0  0  0  0  0  0
    9.2950    1.3000   20.9480 O   0  0  0  0  0  0  0  0  0  0  0  0
    7.9864   -4.3799   25.8996 O   0  0  0  0  0  0  0  0  0  0  0  0
    2.9844    2.6932   19.3613 H   0  0  0  0  0  0  0  0  0  0  0  0
    3.6232    2.0695   21.6567 H   0  0  0  0  0  0  0  0  0  0  0  0
    4.3779    2.0108   17.4276 H   0  0  0  0  0  0  0  0  0  0  0  0
    5.6763    0.7334   22.0897 H   0  0  0  0  0  0  0  0  0  0  0  0
   10.2678   -2.6746   22.3862 H   0  0  0  0  0  0  0  0  0  0  0  0
    7.8691   -0.0023   24.7606 H   0  0  0  0  0  0  0  0  0  0  0  0
    9.5404   -4.5633   23.7846 H   0  0  0  0  0  0  0  0  0  0  0  0
    7.1920   -1.8875   26.1914 H   0  0  0  0  0  0  0  0  0  0  0  0
   12.5771   -0.0965   25.4478 H   0  0  0  0  0  0  0  0  0  0  0  0
   12.3832   -0.9726   21.2281 H   0  0  0  0  0  0  0  0  0  0  0  0
    8.4216   -0.8246   18.1565 H   0  0  0  0  0  0  0  0  0  0  0  0
   15.4522   -1.6787   21.8540 H   0  0  0  0  0  0  0  0  0  0  0  0
   15.0179   -3.0613   22.9154 H   0  0  0  0  0  0  0  0  0  0  0  0
   14.1626   -2.8324   21.3691 H   0  0  0  0  0  0  0  0  0  0  0  0
    8.1469   -6.4024   26.2938 H   0  0  0  0  0  0  0  0  0  0  0  0
    9.6045   -5.6297   25.5962 H   0  0  0  0  0  0  0  0  0  0  0  0
    8.1790   -5.9427   24.5714 H   0  0  0  0  0  0  0  0  0  0  0  0
   10.4561    1.0772   24.1620 H   0  0  0  0  0  0  0  0  0  0  0  0
   10.8743    1.5008   22.5014 H   0  0  0  0  0  0  0  0  0  0  0  0
    8.6626   -1.5629   20.3596 H   0  0  0  0  0  0  0  0  0  0  0  0
    7.4236   -1.1883   21.5924 H   0  0  0  0  0  0  0  0  0  0  0  0
  1  2  1  0  0  0  0
  1  3  2  0  0  0  0
  2  4  2  0  0  0  0
  3 13  1  0  0  0  0
  4 14  1  0  0  0  0
  5  7  2  0  0  0  0
  5 15  1  0  0  0  0
  6  8  1  0  0  0  0
  6 15  2  0  0  0  0
  7 16  1  0  0  0  0
  8 16  2  0  0  0  0
  9 12  1  0  0  0  0
  9 22  2  0  0  0  0
 10 12  2  0  0  0  0
 10 24  1  0  0  0  0
 11 23  2  0  0  0  0
 11 25  1  0  0  0  0
 12 20  1  0  0  0  0
 13 14  2  0  0  0  0
 13 23  1  0  0  0  0
 14 25  1  0  0  0  0
 15 26  1  0  0  0  0
 16 28  1  0  0  0  0
 17 21  1  0  0  0  0
 17 26  1  0  0  0  0
 17 27  2  0  0  0  0
 18 24  1  0  0  0  0
 19 28  1  0  0  0  0
 20 26  1  0  0  0  0
 21 25  1  0  0  0  0
 22 24  1  0  0  0  0
  1 29  1  0  0  0  0
  2 30  1  0  0  0  0
  3 31  1  0  0  0  0
  4 32  1  0  0  0  0
  5 33  1  0  0  0  0
  6 34  1  0  0  0  0
  7 35  1  0  0  0  0
  8 36  1  0  0  0  0
  9 37  1  0  0  0  0
 10 38  1  0  0  0  0
 11 39  1  0  0  0  0
 18 40  1  0  0  0  0
 18 41  1  0  0  0  0
 18 42  1  0  0  0  0
 19 43  1  0  0  0  0
 19 44  1  0  0  0  0
 19 45  1  0  0  0  0
 20 46  1  0  0  0  0
 20 47  1  0  0  0  0
 21 48  1  0  0  0  0
 21 49  1  0  0  0  0
M  END
> <clash_score>
0

> <docking_score>
-8.6351318359375

> <overlap_score>
0.9186843633651733

$$$$
BENZO_382_1
  -OEChem-08222022473D

 49 52  0     0  0  0  0  0  0999 V2000
    3.8860    2.1050   19.5250 C   0  0  0  0  0  0  0  0  0  0  0  0
    4.2460    1.7520   20.8250 C   0  0  0  0  0  0  0  0  0  0  0  0
   13.7501   -1.1157   24.6177 C   0  0  0  0  0  0  0  0  0  0  0  0
   12.5991   -0.3339   24.5202 C   0  0  0  0  0  0  0  0  0  0  0  0
    4.6610    1.7170   18.4380 C   0  0  0  0  0  0  0  0  0  0  0  0
    5.3890    1.0010   21.0690 C   0  0  0  0  0  0  0  0  0  0  0  0
    9.5890   -2.4950   23.2210 C   0  0  0  0  0  0  0  0  0  0  0  0
    8.2550   -1.0010   24.5520 C   0  0  0  0  0  0  0  0  0  0  0  0
    9.1890   -3.5540   24.0140 C   0  0  0  0  0  0  0  0  0  0  0  0
    7.8700   -2.0610   25.3550 C   0  0  0  0  0  0  0  0  0  0  0  0
   14.2636   -1.7454   23.4838 C   0  0  0  0  0  0  0  0  0  0  0  0
   12.4750   -0.8115   22.1551 C   0  0  0  0  0  0  0  0  0  0  0  0
    7.5840   -0.2700   18.5160 C   0  0  0  0  0  0  0  0  0  0  0  0
   11.9616   -0.1817   23.2889 C   0  0  0  0  0  0  0  0  0  0  0  0
    5.7970    0.9500   18.6730 C   0  0  0  0  0  0  0  0  0  0  0  0
    6.1460    0.6070   19.9750 C   0  0  0  0  0  0  0  0  0  0  0  0
    9.1280   -1.2090   23.4870 C   0  0  0  0  0  0  0  0  0  0  0  0
    8.3450   -3.3440   25.0980 C   0  0  0  0  0  0  0  0  0  0  0  0
   13.6260   -1.5933   22.2526 C   0  0  0  0  0  0  0  0  0  0  0  0
    9.0430    0.2380   21.4940 C   0  0  0  0  0  0  0  0  0  0  0  0
    8.5124   -5.6656   25.5743 C   0  0  0  0  0  0  0  0  0  0  0  0
   10.7220    0.6590   23.1850 C   0  0  0  0  0  0  0  0  0  0  0  0
    8.0950   -0.7700   20.8440 C   0  0  0  0  0  0  0  0  0  0  0  0
    6.7100    0.3850   17.8100 N   0  0  0  0  0  0  0  0  0  0  0  0
    7.2710   -0.1460   19.8310 N   0  0  0  0  0  0  0  0  0  0  0  0
    9.5820   -0.1080   22.7000 N   0  0  0  0  0  0  0  0  0  0  0  0
    9.2950    1.3000   20.9480 O   0  0  0  0  0  0  0  0  0  0  0  0
    7.9864   -4.3799   25.8996 O   0  0  0  0  0  0  0  0  0  0  0  0
   14.2594   -2.3714   20.8543 Cl  0  0  0  0  0  0  0  0  0  0  0  0
    2.9844    2.6932   19.3613 H   0  0  0  0  0  0  0  0  0  0  0  0
    3.6232    2.0695   21.6567 H   0  0  0  0  0  0  0  0  0  0  0  0
   14.2462   -1.2340   25.5766 H   0  0  0  0  0  0  0  0  0  0  0  0
   12.2060    0.1530   25.4088 H   0  0  0  0  0  0  0  0  0  0  0  0
    4.3779    2.0108   17.4276 H   0  0  0  0  0  0  0  0  0  0  0  0
    5.6763    0.7334   22.0897 H   0  0  0  0  0  0  0  0  0  0  0  0
   10.2678   -2.6746   22.3862 H   0  0  0  0  0  0  0  0  0  0  0  0
    7.8691   -0.0023   24.7606 H   0  0  0  0  0  0  0  0  0  0  0  0
    9.5404   -4.5633   23.7846 H   0  0  0  0  0  0  0  0  0  0  0  0
    7.1920   -1.8875   26.1914 H   0  0  0  0  0  0  0  0  0  0  0  0
   15.1613   -2.3520   23.5748 H   0  0  0  0  0  0  0  0  0  0  0  0
   11.9745   -0.6893   21.1973 H   0  0  0  0  0  0  0  0  0  0  0  0
    8.4216   -0.8246   18.1565 H   0  0  0  0  0  0  0  0  0  0  0  0
    8.1469   -6.4024   26.2938 H   0  0  0  0  0  0  0  0  0  0  0  0
    9.6045   -5.6297   25.5962 H   0  0  0  0  0  0  0  0  0  0  0  0
    8.1790   -5.9427   24.5714 H   0  0  0  0  0  0  0  0  0  0  0  0
   10.4561    1.0772   24.1620 H   0  0  0  0  0  0  0  0  0  0  0  0
   10.8743    1.5008   22.5014 H   0  0  0  0  0  0  0  0  0  0  0  0
    8.6626   -1.5629   20.3596 H   0  0  0  0  0  0  0  0  0  0  0  0
    7.4236   -1.1883   21.5924 H   0  0  0  0  0  0  0  0  0  0  0  0
  1  2  1  0  0  0  0
  1  5  2  0  0  0  0
  2  6  2  0  0  0  0
  3  4  2  0  0  0  0
  3 11  1  0  0  0  0
  4 14  1  0  0  0  0
  5 15  1  0  0  0  0
  6 16  1  0  0  0  0
  7  9  2  0  0  0  0
  7 17  1  0  0  0  0
  8 10  1  0  0  0  0
  8 17  2  0  0  0  0
  9 18  1  0  0  0  0
 10 18  2  0  0  0  0
 11 19  2  0  0  0  0
 12 14  2  0  0  0  0
 12 19  1  0  0  0  0
 13 24  2  0  0  0  0
 13 25  1  0  0  0  0
 14 22  1  0  0  0  0
 15 16  2  0  0  0  0
 15 24  1  0  0  0  0
 16 25  1  0  0  0  0
 17 26  1  0  0  0  0
 18 28  1  0  0  0  0
 19 29  1  0  0  0  0
 20 23  1  0  0  0  0
 20 26  1  0  0  0  0
 20 27  2  0  0  0  0
 21 28  1  0  0  0  0
 22 26  1  0  0  0  0
 23 25  1  0  0  0  0
  1 30  1  0  0  0  0
  2 31  1  0  0  0  0
  3 32  1  0  0  0  0
  4 33  1  0  0  0  0
  5 34  1  0  0  0  0
  6 35  1  0  0  0  0
  7 36  1  0  0  0  0
  8 37  1  0  0  0  0
  9 38  1  0  0  0  0
 10 39  1  0  0  0  0
 11 40  1  0  0  0  0
 12 41  1  0  0  0  0
 13 42  1  0  0  0  0
 21 43  1  0  0  0  0
 21 44  1  0  0  0  0
 21 45  1  0  0  0  0
 22 46  1  0  0  0  0
 22 47  1  0  0  0  0
 23 48  1  0  0  0  0
 23 49  1  0  0  0  0
M  END
> <clash_score>
0

> <docking_score>
-9.399107933044434

> <overlap_score>
0.9233065843582153

$$$$
BENZO_385_1
  -OEChem-08222022473D

 59 63  0     0  0  0  0  0  0999 V2000
   14.2641   -1.7450   23.4813 C   0  0  0  0  0  0  0  0  0  0  0  0
   14.0779   -0.6681   24.3480 C   0  0  0  0  0  0  0  0  0  0  0  0
   13.2991   -2.0403   22.5184 C   0  0  0  0  0  0  0  0  0  0  0  0
    3.8860    2.1050   19.5250 C   0  0  0  0  0  0  0  0  0  0  0  0
    4.2460    1.7520   20.8250 C   0  0  0  0  0  0  0  0  0  0  0  0
   12.9266    0.1135   24.2518 C   0  0  0  0  0  0  0  0  0  0  0  0
   12.1478   -1.2587   22.4222 C   0  0  0  0  0  0  0  0  0  0  0  0
    4.6610    1.7170   18.4380 C   0  0  0  0  0  0  0  0  0  0  0  0
    5.3890    1.0010   21.0690 C   0  0  0  0  0  0  0  0  0  0  0  0
    9.1890   -3.5540   24.0140 C   0  0  0  0  0  0  0  0  0  0  0  0
    7.8700   -2.0610   25.3550 C   0  0  0  0  0  0  0  0  0  0  0  0
    9.5890   -2.4950   23.2210 C   0  0  0  0  0  0  0  0  0  0  0  0
    8.2550   -1.0010   24.5520 C   0  0  0  0  0  0  0  0  0  0  0  0
    7.5840   -0.2700   18.5160 C   0  0  0  0  0  0  0  0  0  0  0  0
   11.9616   -0.1817   23.2889 C   0  0  0  0  0  0  0  0  0  0  0  0
    5.7970    0.9500   18.6730 C   0  0  0  0  0  0  0  0  0  0  0  0
    6.1460    0.6070   19.9750 C   0  0  0  0  0  0  0  0  0  0  0  0
    8.3450   -3.3440   25.0980 C   0  0  0  0  0  0  0  0  0  0  0  0
    9.1280   -1.2090   23.4870 C   0  0  0  0  0  0  0  0  0  0  0  0
    7.8687   -5.7518   25.4384 C   0  0  0  0  0  0  0  0  0  0  0  0
    9.0430    0.2380   21.4940 C   0  0  0  0  0  0  0  0  0  0  0  0
    7.7614   -6.8724   26.4584 C   0  0  0  0  0  0  0  0  0  0  0  0
    7.0004   -6.5095   27.7148 C   0  0  0  0  0  0  0  0  0  0  0  0
    7.6035   -5.2531   28.3027 C   0  0  0  0  0  0  0  0  0  0  0  0
    7.4713   -4.1195   27.2996 C   0  0  0  0  0  0  0  0  0  0  0  0
   10.7220    0.6590   23.1850 C   0  0  0  0  0  0  0  0  0  0  0  0
    8.0950   -0.7700   20.8440 C   0  0  0  0  0  0  0  0  0  0  0  0
    6.7100    0.3850   17.8100 N   0  0  0  0  0  0  0  0  0  0  0  0
    7.2710   -0.1460   19.8310 N   0  0  0  0  0  0  0  0  0  0  0  0
    7.9635   -4.4452   25.9501 N   0  0  0  0  0  0  0  0  0  0  0  0
    9.5820   -0.1080   22.7000 N   0  0  0  0  0  0  0  0  0  0  0  0
    7.9246   -6.0590   24.2445 O   0  0  0  0  0  0  0  0  0  0  0  0
    9.2950    1.3000   20.9480 O   0  0  0  0  0  0  0  0  0  0  0  0
   15.1613   -2.3527   23.5555 H   0  0  0  0  0  0  0  0  0  0  0  0
   14.8297   -0.4373   25.0971 H   0  0  0  0  0  0  0  0  0  0  0  0
   13.4443   -2.8780   21.8427 H   0  0  0  0  0  0  0  0  0  0  0  0
    2.9844    2.6932   19.3613 H   0  0  0  0  0  0  0  0  0  0  0  0
    3.6232    2.0695   21.6567 H   0  0  0  0  0  0  0  0  0  0  0  0
   12.7899    0.9506   24.9315 H   0  0  0  0  0  0  0  0  0  0  0  0
   11.4013   -1.4963   21.6690 H   0  0  0  0  0  0  0  0  0  0  0  0
    4.3779    2.0108   17.4276 H   0  0  0  0  0  0  0  0  0  0  0  0
    5.6762    0.7334   22.0897 H   0  0  0  0  0  0  0  0  0  0  0  0
    9.5436   -4.5614   23.7799 H   0  0  0  0  0  0  0  0  0  0  0  0
    7.1918   -1.8823   26.1906 H   0  0  0  0  0  0  0  0  0  0  0  0
   10.2676   -2.6754   22.3861 H   0  0  0  0  0  0  0  0  0  0  0  0
    7.8686   -0.0026   24.7598 H   0  0  0  0  0  0  0  0  0  0  0  0
    8.4216   -0.8246   18.1565 H   0  0  0  0  0  0  0  0  0  0  0  0
    7.2713   -7.7257   25.9758 H   0  0  0  0  0  0  0  0  0  0  0  0
    8.7837   -7.1790   26.7111 H   0  0  0  0  0  0  0  0  0  0  0  0
    5.9406   -6.3476   27.4837 H   0  0  0  0  0  0  0  0  0  0  0  0
    7.0566   -7.3314   28.4368 H   0  0  0  0  0  0  0  0  0  0  0  0
    7.0858   -4.9863   29.2307 H   0  0  0  0  0  0  0  0  0  0  0  0
    8.6585   -5.4140   28.5554 H   0  0  0  0  0  0  0  0  0  0  0  0
    6.4149   -3.8417   27.1934 H   0  0  0  0  0  0  0  0  0  0  0  0
    8.0152   -3.2408   27.6666 H   0  0  0  0  0  0  0  0  0  0  0  0
   10.4561    1.0772   24.1620 H   0  0  0  0  0  0  0  0  0  0  0  0
   10.8743    1.5008   22.5014 H   0  0  0  0  0  0  0  0  0  0  0  0
    8.6688   -1.5655   20.3666 H   0  0  0  0  0  0  0  0  0  0  0  0
    7.4298   -1.1908   21.5994 H   0  0  0  0  0  0  0  0  0  0  0  0
  1  2  1  0  0  0  0
  1  3  2  0  0  0  0
  2  6  2  0  0  0  0
  3  7  1  0  0  0  0
  4  5  1  0  0  0  0
  4  8  2  0  0  0  0
  5  9  2  0  0  0  0
  6 15  1  0  0  0  0
  7 15  2  0  0  0  0
  8 16  1  0  0  0  0
  9 17  1  0  0  0  0
 10 12  2  0  0  0  0
 10 18  1  0  0  0  0
 11 13  1  0  0  0  0
 11 18  2  0  0  0  0
 12 19  1  0  0  0  0
 13 19  2  0  0  0  0
 14 28  2  0  0  0  0
 14 29  1  0  0  0  0
 15 26  1  0  0  0  0
 16 17  2  0  0  0  0
 16 28  1  0  0  0  0
 17 29  1  0  0  0  0
 18 30  1  0  0  0  0
 19 31  1  0  0  0  0
 20 22  1  0  0  0  0
 20 30  1  0  0  0  0
 20 32  2  0  0  0  0
 21 27  1  0  0  0  0
 21 31  1  0  0  0  0
 21 33  2  0  0  0  0
 22 23  1  0  0  0  0
 23 24  1  0  0  0  0
 24 25  1  0  0  0  0
 25 30  1  0  0  0  0
 26 31  1  0  0  0  0
 27 29  1  0  0  0  0
  1 34  1  0  0  0  0
  2 35  1  0  0  0  0
  3 36  1  0  0  0  0
  4 37  1  0  0  0  0
  5 38  1  0  0  0  0
  6 39  1  0  0  0  0
  7 40  1  0  0  0  0
  8 41  1  0  0  0  0
  9 42  1  0  0  0  0
 10 43  1  0  0  0  0
 11 44  1  0  0  0  0
 12 45  1  0  0  0  0
 13 46  1  0  0  0  0
 14 47  1  0  0  0  0
 22 48  1  0  0  0  0
 22 49  1  0  0  0  0
 23 50  1  0  0  0  0
 23 51  1  0  0  0  0
 24 52  1  0  0  0  0
 24 53  1  0  0  0  0
 25 54  1  0  0  0  0
 25 55  1  0  0  0  0
 26 56  1  0  0  0  0
 26 57  1  0  0  0  0
 27 58  1  0  0  0  0
 27 59  1  0  0  0  0
M  END
> <clash_score>
0

> <docking_score>
-9.281649589538574

> <overlap_score>
0.9891777038574219

$$$$
BENZO_384_1
  -OEChem-08222022473D

 56 60  0     0  0  0  0  0  0999 V2000
    3.8860    2.1050   19.5250 C   0  0  0  0  0  0  0  0  0  0  0  0
    4.2460    1.7520   20.8250 C   0  0  0  0  0  0  0  0  0  0  0  0
    4.6610    1.7170   18.4380 C   0  0  0  0  0  0  0  0  0  0  0  0
    5.3890    1.0010   21.0690 C   0  0  0  0  0  0  0  0  0  0  0  0
    9.1890   -3.5540   24.0140 C   0  0  0  0  0  0  0  0  0  0  0  0
    7.8700   -2.0610   25.3550 C   0  0  0  0  0  0  0  0  0  0  0  0
    9.5890   -2.4950   23.2210 C   0  0  0  0  0  0  0  0  0  0  0  0
    8.2550   -1.0010   24.5520 C   0  0  0  0  0  0  0  0  0  0  0  0
   12.6785   -0.3936   24.5018 C   0  0  0  0  0  0  0  0  0  0  0  0
   13.7775   -1.2037   24.3186 C   0  0  0  0  0  0  0  0  0  0  0  0
   12.5401   -0.8378   22.2246 C   0  0  0  0  0  0  0  0  0  0  0  0
    7.5840   -0.2700   18.5160 C   0  0  0  0  0  0  0  0  0  0  0  0
   11.9616   -0.1817   23.2889 C   0  0  0  0  0  0  0  0  0  0  0  0
    5.7970    0.9500   18.6730 C   0  0  0  0  0  0  0  0  0  0  0  0
    6.1460    0.6070   19.9750 C   0  0  0  0  0  0  0  0  0  0  0  0
    8.3450   -3.3440   25.0980 C   0  0  0  0  0  0  0  0  0  0  0  0
    9.1280   -1.2090   23.4870 C   0  0  0  0  0  0  0  0  0  0  0  0
    7.2752   -5.5548   25.4273 C   0  0  0  0  0  0  0  0  0  0  0  0
    9.0430    0.2380   21.4940 C   0  0  0  0  0  0  0  0  0  0  0  0
    7.1880   -6.7800   26.3209 C   0  0  0  0  0  0  0  0  0  0  0  0
    7.0916   -6.4753   27.7999 C   0  0  0  0  0  0  0  0  0  0  0  0
    8.2362   -5.5641   28.1841 C   0  0  0  0  0  0  0  0  0  0  0  0
    8.1241   -4.2655   27.4032 C   0  0  0  0  0  0  0  0  0  0  0  0
   10.7220    0.6590   23.1850 C   0  0  0  0  0  0  0  0  0  0  0  0
    8.0950   -0.7700   20.8440 C   0  0  0  0  0  0  0  0  0  0  0  0
    6.7100    0.3850   17.8100 N   0  0  0  0  0  0  0  0  0  0  0  0
    7.2710   -0.1460   19.8310 N   0  0  0  0  0  0  0  0  0  0  0  0
    7.9635   -4.4452   25.9501 N   0  0  0  0  0  0  0  0  0  0  0  0
    9.5820   -0.1080   22.7000 N   0  0  0  0  0  0  0  0  0  0  0  0
    6.7947   -5.6299   24.2931 O   0  0  0  0  0  0  0  0  0  0  0  0
    9.2950    1.3000   20.9480 O   0  0  0  0  0  0  0  0  0  0  0  0
   13.9416   -1.7051   22.6894 S   0  0  0  0  0  0  0  0  0  0  0  0
    2.9844    2.6932   19.3613 H   0  0  0  0  0  0  0  0  0  0  0  0
    3.6232    2.0695   21.6567 H   0  0  0  0  0  0  0  0  0  0  0  0
    4.3779    2.0108   17.4276 H   0  0  0  0  0  0  0  0  0  0  0  0
    5.6762    0.7334   22.0897 H   0  0  0  0  0  0  0  0  0  0  0  0
    9.5436   -4.5614   23.7799 H   0  0  0  0  0  0  0  0  0  0  0  0
    7.1918   -1.8823   26.1906 H   0  0  0  0  0  0  0  0  0  0  0  0
   10.2676   -2.6754   22.3861 H   0  0  0  0  0  0  0  0  0  0  0  0
    7.8686   -0.0026   24.7598 H   0  0  0  0  0  0  0  0  0  0  0  0
   12.4058    0.0253   25.4623 H   0  0  0  0  0  0  0  0  0  0  0  0
   14.4923   -1.5246   25.0631 H   0  0  0  0  0  0  0  0  0  0  0  0
   12.2108   -0.8511   21.1948 H   0  0  0  0  0  0  0  0  0  0  0  0
    8.4216   -0.8246   18.1565 H   0  0  0  0  0  0  0  0  0  0  0  0
    6.3101   -7.3613   26.0164 H   0  0  0  0  0  0  0  0  0  0  0  0
    8.0752   -7.3922   26.1183 H   0  0  0  0  0  0  0  0  0  0  0  0
    6.1328   -5.9938   28.0269 H   0  0  0  0  0  0  0  0  0  0  0  0
    7.1363   -7.4051   28.3772 H   0  0  0  0  0  0  0  0  0  0  0  0
    8.2035   -5.3520   29.2586 H   0  0  0  0  0  0  0  0  0  0  0  0
    9.1990   -6.0474   27.9788 H   0  0  0  0  0  0  0  0  0  0  0  0
    7.2505   -3.6996   27.7511 H   0  0  0  0  0  0  0  0  0  0  0  0
    9.0155   -3.6525   27.5824 H   0  0  0  0  0  0  0  0  0  0  0  0
   10.4561    1.0772   24.1620 H   0  0  0  0  0  0  0  0  0  0  0  0
   10.8743    1.5008   22.5014 H   0  0  0  0  0  0  0  0  0  0  0  0
    8.6688   -1.5655   20.3666 H   0  0  0  0  0  0  0  0  0  0  0  0
    7.4298   -1.1908   21.5994 H   0  0  0  0  0  0  0  0  0  0  0  0
  1  2  1  0  0  0  0
  1  3  2  0  0  0  0
  2  4  2  0  0  0  0
  3 14  1  0  0  0  0
  4 15  1  0  0  0  0
  5  7  2  0  0  0  0
  5 16  1  0  0  0  0
  6  8  1  0  0  0  0
  6 16  2  0  0  0  0
  7 17  1  0  0  0  0
  8 17  2  0  0  0  0
  9 10  2  0  0  0  0
  9 13  1  0  0  0  0
 10 32  1  0  0  0  0
 11 13  2  0  0  0  0
 11 32  1  0  0  0  0
 12 26  2  0  0  0  0
 12 27  1  0  0  0  0
 13 24  1  0  0  0  0
 14 15  2  0  0  0  0
 14 26  1  0  0  0  0
 15 27  1  0  0  0  0
 16 28  1  0  0  0  0
 17 29  1  0  0  0  0
 18 20  1  0  0  0  0
 18 28  1  0  0  0  0
 18 30  2  0  0  0  0
 19 25  1  0  0  0  0
 19 29  1  0  0  0  0
 19 31  2  0  0  0  0
 20 21  1  0  0  0  0
 21 22  1  0  0  0  0
 22 23  1  0  0  0  0
 23 28  1  0  0  0  0
 24 29  1  0  0  0  0
 25 27  1  0  0  0  0
  1 33  1  0  0  0  0
  2 34  1  0  0  0  0
  3 35  1  0  0  0  0
  4 36  1  0  0  0  0
  5 37  1  0  0  0  0
  6 38  1  0  0  0  0
  7 39  1  0  0  0  0
  8 40  1  0  0  0  0
  9 41  1  0  0  0  0
 10 42  1  0  0  0  0
 11 43  1  0  0  0  0
 12 44  1  0  0  0  0
 20 45  1  0  0  0  0
 20 46  1  0  0  0  0
 21 47  1  0  0  0  0
 21 48  1  0  0  0  0
 22 49  1  0  0  0  0
 22 50  1  0  0  0  0
 23 51  1  0  0  0  0
 23 52  1  0  0  0  0
 24 53  1  0  0  0  0
 24 54  1  0  0  0  0
 25 55  1  0  0  0  0
 25 56  1  0  0  0  0
M  END
> <clash_score>
0

> <docking_score>
-9.678775787353516

> <overlap_score>
0.9828841090202332

$$$$
BENZO_387_1
  -OEChem-08222022473D

 59 63  0     0  0  0  0  0  0999 V2000
    3.8860    2.1050   19.5250 C   0  0  0  0  0  0  0  0  0  0  0  0
    4.2460    1.7520   20.8250 C   0  0  0  0  0  0  0  0  0  0  0  0
    4.6610    1.7170   18.4380 C   0  0  0  0  0  0  0  0  0  0  0  0
    5.3890    1.0010   21.0690 C   0  0  0  0  0  0  0  0  0  0  0  0
    9.1890   -3.5540   24.0140 C   0  0  0  0  0  0  0  0  0  0  0  0
    7.8700   -2.0610   25.3550 C   0  0  0  0  0  0  0  0  0  0  0  0
    9.5890   -2.4950   23.2210 C   0  0  0  0  0  0  0  0  0  0  0  0
    8.2550   -1.0010   24.5520 C   0  0  0  0  0  0  0  0  0  0  0  0
   12.7320   -0.4464   24.4370 C   0  0  0  0  0  0  0  0  0  0  0  0
   12.5970   -0.8682   22.2832 C   0  0  0  0  0  0  0  0  0  0  0  0
    7.5840   -0.2700   18.5160 C   0  0  0  0  0  0  0  0  0  0  0  0
   11.9616   -0.1817   23.2889 C   0  0  0  0  0  0  0  0  0  0  0  0
    5.7970    0.9500   18.6730 C   0  0  0  0  0  0  0  0  0  0  0  0
    6.1460    0.6070   19.9750 C   0  0  0  0  0  0  0  0  0  0  0  0
    8.3450   -3.3440   25.0980 C   0  0  0  0  0  0  0  0  0  0  0  0
    9.1280   -1.2090   23.4870 C   0  0  0  0  0  0  0  0  0  0  0  0
    7.2752   -5.5548   25.4273 C   0  0  0  0  0  0  0  0  0  0  0  0
    9.0430    0.2380   21.4940 C   0  0  0  0  0  0  0  0  0  0  0  0
    7.1880   -6.7800   26.3209 C   0  0  0  0  0  0  0  0  0  0  0  0
    7.0916   -6.4753   27.7999 C   0  0  0  0  0  0  0  0  0  0  0  0
    8.2362   -5.5641   28.1841 C   0  0  0  0  0  0  0  0  0  0  0  0
    8.1241   -4.2655   27.4032 C   0  0  0  0  0  0  0  0  0  0  0  0
   14.6393   -2.3180   22.2082 C   0  0  0  0  0  0  0  0  0  0  0  0
   10.7220    0.6590   23.1850 C   0  0  0  0  0  0  0  0  0  0  0  0
    8.0950   -0.7700   20.8440 C   0  0  0  0  0  0  0  0  0  0  0  0
   13.7770   -1.2393   24.1852 N   0  0  0  0  0  0  0  0  0  0  0  0
    6.7100    0.3850   17.8100 N   0  0  0  0  0  0  0  0  0  0  0  0
   13.6676   -1.4788   22.8673 N   0  0  0  0  0  0  0  0  0  0  0  0
    7.2710   -0.1460   19.8310 N   0  0  0  0  0  0  0  0  0  0  0  0
    7.9635   -4.4452   25.9501 N   0  0  0  0  0  0  0  0  0  0  0  0
    9.5820   -0.1080   22.7000 N   0  0  0  0  0  0  0  0  0  0  0  0
    6.7947   -5.6299   24.2931 O   0  0  0  0  0  0  0  0  0  0  0  0
    9.2950    1.3000   20.9480 O   0  0  0  0  0  0  0  0  0  0  0  0
    2.9844    2.6932   19.3613 H   0  0  0  0  0  0  0  0  0  0  0  0
    3.6232    2.0695   21.6567 H   0  0  0  0  0  0  0  0  0  0  0  0
    4.3779    2.0108   17.4276 H   0  0  0  0  0  0  0  0  0  0  0  0
    5.6762    0.7334   22.0897 H   0  0  0  0  0  0  0  0  0  0  0  0
    9.5436   -4.5614   23.7799 H   0  0  0  0  0  0  0  0  0  0  0  0
    7.1918   -1.8823   26.1906 H   0  0  0  0  0  0  0  0  0  0  0  0
   10.2676   -2.6754   22.3861 H   0  0  0  0  0  0  0  0  0  0  0  0
    7.8686   -0.0026   24.7598 H   0  0  0  0  0  0  0  0  0  0  0  0
   12.5771   -0.0965   25.4478 H   0  0  0  0  0  0  0  0  0  0  0  0
   12.3832   -0.9726   21.2281 H   0  0  0  0  0  0  0  0  0  0  0  0
    8.4216   -0.8246   18.1565 H   0  0  0  0  0  0  0  0  0  0  0  0
    6.3101   -7.3613   26.0164 H   0  0  0  0  0  0  0  0  0  0  0  0
    8.0752   -7.3922   26.1183 H   0  0  0  0  0  0  0  0  0  0  0  0
    6.1328   -5.9938   28.0269 H   0  0  0  0  0  0  0  0  0  0  0  0
    7.1363   -7.4051   28.3772 H   0  0  0  0  0  0  0  0  0  0  0  0
    8.2035   -5.3520   29.2586 H   0  0  0  0  0  0  0  0  0  0  0  0
    9.1990   -6.0474   27.9788 H   0  0  0  0  0  0  0  0  0  0  0  0
    7.2505   -3.6996   27.7511 H   0  0  0  0  0  0  0  0  0  0  0  0
    9.0155   -3.6525   27.5824 H   0  0  0  0  0  0  0  0  0  0  0  0
   15.4522   -1.6787   21.8540 H   0  0  0  0  0  0  0  0  0  0  0  0
   15.0179   -3.0612   22.9154 H   0  0  0  0  0  0  0  0  0  0  0  0
   14.1626   -2.8324   21.3691 H   0  0  0  0  0  0  0  0  0  0  0  0
   10.4561    1.0772   24.1620 H   0  0  0  0  0  0  0  0  0  0  0  0
   10.8743    1.5008   22.5014 H   0  0  0  0  0  0  0  0  0  0  0  0
    8.6688   -1.5655   20.3666 H   0  0  0  0  0  0  0  0  0  0  0  0
    7.4298   -1.1908   21.5994 H   0  0  0  0  0  0  0  0  0  0  0  0
  1  2  1  0  0  0  0
  1  3  2  0  0  0  0
  2  4  2  0  0  0  0
  3 13  1  0  0  0  0
  4 14  1  0  0  0  0
  5  7  2  0  0  0  0
  5 15  1  0  0  0  0
  6  8  1  0  0  0  0
  6 15  2  0  0  0  0
  7 16  1  0  0  0  0
  8 16  2  0  0  0  0
  9 12  1  0  0  0  0
  9 26  2  0  0  0  0
 10 12  2  0  0  0  0
 10 28  1  0  0  0  0
 11 27  2  0  0  0  0
 11 29  1  0  0  0  0
 12 24  1  0  0  0  0
 13 14  2  0  0  0  0
 13 27  1  0  0  0  0
 14 29  1  0  0  0  0
 15 30  1  0  0  0  0
 16 31  1  0  0  0  0
 17 19  1  0  0  0  0
 17 30  1  0  0  0  0
 17 32  2  0  0  0  0
 18 25  1  0  0  0  0
 18 31  1  0  0  0  0
 18 33  2  0  0  0  0
 19 20  1  0  0  0  0
 20 21  1  0  0  0  0
 21 22  1  0  0  0  0
 22 30  1  0  0  0  0
 23 28  1  0  0  0  0
 24 31  1  0  0  0  0
 25 29  1  0  0  0  0
 26 28  1  0  0  0  0
  1 34  1  0  0  0  0
  2 35  1  0  0  0  0
  3 36  1  0  0  0  0
  4 37  1  0  0  0  0
  5 38  1  0  0  0  0
  6 39  1  0  0  0  0
  7 40  1  0  0  0  0
  8 41  1  0  0  0  0
  9 42  1  0  0  0  0
 10 43  1  0  0  0  0
 11 44  1  0  0  0  0
 19 45  1  0  0  0  0
 19 46  1  0  0  0  0
 20 47  1  0  0  0  0
 20 48  1  0  0  0  0
 21 49  1  0  0  0  0
 21 50  1  0  0  0  0
 22 51  1  0  0  0  0
 22 52  1  0  0  0  0
 23 53  1  0  0  0  0
 23 54  1  0  0  0  0
 23 55  1  0  0  0  0
 24 56  1  0  0  0  0
 24 57  1  0  0  0  0
 25 58  1  0  0  0  0
 25 59  1  0  0  0  0
M  END
> <clash_score>
0

> <docking_score>
-8.427998542785645

> <overlap_score>
0.9994743466377258

$$$$
BENZO_389_1
  -OEChem-08222022473D

 58 62  0     0  0  0  0  0  0999 V2000
   14.2642   -1.7450   23.4813 C   0  0  0  0  0  0  0  0  0  0  0  0
   14.0779   -0.6681   24.3480 C   0  0  0  0  0  0  0  0  0  0  0  0
   13.2991   -2.0403   22.5184 C   0  0  0  0  0  0  0  0  0  0  0  0
    3.8860    2.1050   19.5250 C   0  0  0  0  0  0  0  0  0  0  0  0
    4.2460    1.7520   20.8250 C   0  0  0  0  0  0  0  0  0  0  0  0
   12.9266    0.1135   24.2518 C   0  0  0  0  0  0  0  0  0  0  0  0
   12.1478   -1.2587   22.4222 C   0  0  0  0  0  0  0  0  0  0  0  0
    4.6610    1.7170   18.4380 C   0  0  0  0  0  0  0  0  0  0  0  0
    5.3890    1.0010   21.0690 C   0  0  0  0  0  0  0  0  0  0  0  0
    9.1890   -3.5540   24.0140 C   0  0  0  0  0  0  0  0  0  0  0  0
    7.8700   -2.0610   25.3550 C   0  0  0  0  0  0  0  0  0  0  0  0
    9.5890   -2.4950   23.2210 C   0  0  0  0  0  0  0  0  0  0  0  0
    8.2550   -1.0010   24.5520 C   0  0  0  0  0  0  0  0  0  0  0  0
    7.5840   -0.2700   18.5160 C   0  0  0  0  0  0  0  0  0  0  0  0
   11.9616   -0.1817   23.2889 C   0  0  0  0  0  0  0  0  0  0  0  0
    5.7970    0.9500   18.6730 C   0  0  0  0  0  0  0  0  0  0  0  0
    6.1460    0.6070   19.9750 C   0  0  0  0  0  0  0  0  0  0  0  0
    8.3450   -3.3440   25.0980 C   0  0  0  0  0  0  0  0  0  0  0  0
    9.1280   -1.2090   23.4870 C   0  0  0  0  0  0  0  0  0  0  0  0
    9.0430    0.2380   21.4940 C   0  0  0  0  0  0  0  0  0  0  0  0
    7.2567   -5.5373   25.3128 C   0  0  0  0  0  0  0  0  0  0  0  0
    7.6783   -4.1701   27.3375 C   0  0  0  0  0  0  0  0  0  0  0  0
    7.3927   -6.7710   26.1978 C   0  0  0  0  0  0  0  0  0  0  0  0
    7.7912   -5.4770   28.1147 C   0  0  0  0  0  0  0  0  0  0  0  0
   10.7220    0.6590   23.1850 C   0  0  0  0  0  0  0  0  0  0  0  0
    8.0950   -0.7700   20.8440 C   0  0  0  0  0  0  0  0  0  0  0  0
    6.7100    0.3850   17.8100 N   0  0  0  0  0  0  0  0  0  0  0  0
    7.2710   -0.1460   19.8310 N   0  0  0  0  0  0  0  0  0  0  0  0
    7.9750   -4.4088   25.9208 N   0  0  0  0  0  0  0  0  0  0  0  0
    9.5820   -0.1080   22.7000 N   0  0  0  0  0  0  0  0  0  0  0  0
    9.2950    1.3000   20.9480 O   0  0  0  0  0  0  0  0  0  0  0  0
    6.9636   -6.4808   27.5280 O   0  0  0  0  0  0  0  0  0  0  0  0
   15.1613   -2.3527   23.5555 H   0  0  0  0  0  0  0  0  0  0  0  0
   14.8297   -0.4373   25.0971 H   0  0  0  0  0  0  0  0  0  0  0  0
   13.4443   -2.8780   21.8427 H   0  0  0  0  0  0  0  0  0  0  0  0
    2.9844    2.6932   19.3613 H   0  0  0  0  0  0  0  0  0  0  0  0
    3.6232    2.0695   21.6567 H   0  0  0  0  0  0  0  0  0  0  0  0
   12.7899    0.9506   24.9315 H   0  0  0  0  0  0  0  0  0  0  0  0
   11.4013   -1.4963   21.6690 H   0  0  0  0  0  0  0  0  0  0  0  0
    4.3779    2.0108   17.4276 H   0  0  0  0  0  0  0  0  0  0  0  0
    5.6763    0.7334   22.0897 H   0  0  0  0  0  0  0  0  0  0  0  0
    9.5426   -4.5618   23.7797 H   0  0  0  0  0  0  0  0  0  0  0  0
    7.1914   -1.8824   26.1903 H   0  0  0  0  0  0  0  0  0  0  0  0
   10.2669   -2.6745   22.3854 H   0  0  0  0  0  0  0  0  0  0  0  0
    7.8690   -0.0020   24.7587 H   0  0  0  0  0  0  0  0  0  0  0  0
    8.4216   -0.8246   18.1565 H   0  0  0  0  0  0  0  0  0  0  0  0
    7.6535   -5.7575   24.3148 H   0  0  0  0  0  0  0  0  0  0  0  0
    6.1962   -5.2737   25.2113 H   0  0  0  0  0  0  0  0  0  0  0  0
    6.6579   -3.7759   27.4290 H   0  0  0  0  0  0  0  0  0  0  0  0
    8.3696   -3.4320   27.7610 H   0  0  0  0  0  0  0  0  0  0  0  0
    6.7582   -7.5752   25.8116 H   0  0  0  0  0  0  0  0  0  0  0  0
    8.4238   -7.1441   26.2130 H   0  0  0  0  0  0  0  0  0  0  0  0
    8.8287   -5.8300   28.1600 H   0  0  0  0  0  0  0  0  0  0  0  0
    7.4508   -5.3251   29.1440 H   0  0  0  0  0  0  0  0  0  0  0  0
   10.4561    1.0772   24.1620 H   0  0  0  0  0  0  0  0  0  0  0  0
   10.8743    1.5008   22.5014 H   0  0  0  0  0  0  0  0  0  0  0  0
    8.6688   -1.5655   20.3666 H   0  0  0  0  0  0  0  0  0  0  0  0
    7.4298   -1.1908   21.5994 H   0  0  0  0  0  0  0  0  0  0  0  0
  1  2  1  0  0  0  0
  1  3  2  0  0  0  0
  2  6  2  0  0  0  0
  3  7  1  0  0  0  0
  4  5  1  0  0  0  0
  4  8  2  0  0  0  0
  5  9  2  0  0  0  0
  6 15  1  0  0  0  0
  7 15  2  0  0  0  0
  8 16  1  0  0  0  0
  9 17  1  0  0  0  0
 10 12  2  0  0  0  0
 10 18  1  0  0  0  0
 11 13  1  0  0  0  0
 11 18  2  0  0  0  0
 12 19  1  0  0  0  0
 13 19  2  0  0  0  0
 14 27  2  0  0  0  0
 14 28  1  0  0  0  0
 15 25  1  0  0  0  0
 16 17  2  0  0  0  0
 16 27  1  0  0  0  0
 17 28  1  0  0  0  0
 18 29  1  0  0  0  0
 19 30  1  0  0  0  0
 20 26  1  0  0  0  0
 20 30  1  0  0  0  0
 20 31  2  0  0  0  0
 21 23  1  0  0  0  0
 21 29  1  0  0  0  0
 22 24  1  0  0  0  0
 22 29  1  0  0  0  0
 23 32  1  0  0  0  0
 24 32  1  0  0  0  0
 25 30  1  0  0  0  0
 26 28  1  0  0  0  0
  1 33  1  0  0  0  0
  2 34  1  0  0  0  0
  3 35  1  0  0  0  0
  4 36  1  0  0  0  0
  5 37  1  0  0  0  0
  6 38  1  0  0  0  0
  7 39  1  0  0  0  0
  8 40  1  0  0  0  0
  9 41  1  0  0  0  0
 10 42  1  0  0  0  0
 11 43  1  0  0  0  0
 12 44  1  0  0  0  0
 13 45  1  0  0  0  0
 14 46  1  0  0  0  0
 21 47  1  0  0  0  0
 21 48  1  0  0  0  0
 22 49  1  0  0  0  0
 22 50  1  0  0  0  0
 23 51  1  0  0  0  0
 23 52  1  0  0  0  0
 24 53  1  0  0  0  0
 24 54  1  0  0  0  0
 25 55  1  0  0  0  0
 25 56  1  0  0  0  0
 26 57  1  0  0  0  0
 26 58  1  0  0  0  0
M  END
> <clash_score>
0

> <docking_score>
-10.541864395141602

> <overlap_score>
0.9890322685241699

$$$$
BENZO_386_1
  -OEChem-08222022473D

 59 63  0     0  0  0  0  0  0999 V2000
    3.8860    2.1050   19.5250 C   0  0  0  0  0  0  0  0  0  0  0  0
    4.2460    1.7520   20.8250 C   0  0  0  0  0  0  0  0  0  0  0  0
   13.7501   -1.1157   24.6176 C   0  0  0  0  0  0  0  0  0  0  0  0
   12.5991   -0.3339   24.5202 C   0  0  0  0  0  0  0  0  0  0  0  0
    4.6610    1.7170   18.4380 C   0  0  0  0  0  0  0  0  0  0  0  0
    5.3890    1.0010   21.0690 C   0  0  0  0  0  0  0  0  0  0  0  0
    9.1890   -3.5540   24.0140 C   0  0  0  0  0  0  0  0  0  0  0  0
    7.8700   -2.0610   25.3550 C   0  0  0  0  0  0  0  0  0  0  0  0
    9.5890   -2.4950   23.2210 C   0  0  0  0  0  0  0  0  0  0  0  0
    8.2550   -1.0010   24.5520 C   0  0  0  0  0  0  0  0  0  0  0  0
   14.2636   -1.7454   23.4838 C   0  0  0  0  0  0  0  0  0  0  0  0
   12.4750   -0.8115   22.1551 C   0  0  0  0  0  0  0  0  0  0  0  0
    7.5840   -0.2700   18.5160 C   0  0  0  0  0  0  0  0  0  0  0  0
   11.9616   -0.1817   23.2889 C   0  0  0  0  0  0  0  0  0  0  0  0
    5.7970    0.9500   18.6730 C   0  0  0  0  0  0  0  0  0  0  0  0
    6.1460    0.6070   19.9750 C   0  0  0  0  0  0  0  0  0  0  0  0
    8.3450   -3.3440   25.0980 C   0  0  0  0  0  0  0  0  0  0  0  0
    9.1280   -1.2090   23.4870 C   0  0  0  0  0  0  0  0  0  0  0  0
   13.6260   -1.5933   22.2526 C   0  0  0  0  0  0  0  0  0  0  0  0
    7.2757   -5.5631   25.4492 C   0  0  0  0  0  0  0  0  0  0  0  0
    9.0430    0.2380   21.4940 C   0  0  0  0  0  0  0  0  0  0  0  0
    6.9626   -6.6001   26.5133 C   0  0  0  0  0  0  0  0  0  0  0  0
    6.3764   -5.9422   27.7501 C   0  0  0  0  0  0  0  0  0  0  0  0
    7.2660   -4.8258   28.2881 C   0  0  0  0  0  0  0  0  0  0  0  0
    8.4098   -4.4623   27.3426 C   0  0  0  0  0  0  0  0  0  0  0  0
   10.7220    0.6590   23.1850 C   0  0  0  0  0  0  0  0  0  0  0  0
    8.0950   -0.7700   20.8440 C   0  0  0  0  0  0  0  0  0  0  0  0
    6.7100    0.3850   17.8100 N   0  0  0  0  0  0  0  0  0  0  0  0
    7.2710   -0.1460   19.8310 N   0  0  0  0  0  0  0  0  0  0  0  0
    7.9658   -4.4384   25.9449 N   0  0  0  0  0  0  0  0  0  0  0  0
    9.5820   -0.1080   22.7000 N   0  0  0  0  0  0  0  0  0  0  0  0
    6.9858   -5.7908   24.2753 O   0  0  0  0  0  0  0  0  0  0  0  0
    9.2950    1.3000   20.9480 O   0  0  0  0  0  0  0  0  0  0  0  0
   14.2594   -2.3714   20.8543 Cl  0  0  0  0  0  0  0  0  0  0  0  0
    2.9844    2.6932   19.3613 H   0  0  0  0  0  0  0  0  0  0  0  0
    3.6232    2.0695   21.6567 H   0  0  0  0  0  0  0  0  0  0  0  0
   14.2462   -1.2340   25.5766 H   0  0  0  0  0  0  0  0  0  0  0  0
   12.2060    0.1530   25.4088 H   0  0  0  0  0  0  0  0  0  0  0  0
    4.3779    2.0108   17.4276 H   0  0  0  0  0  0  0  0  0  0  0  0
    5.6762    0.7334   22.0897 H   0  0  0  0  0  0  0  0  0  0  0  0
    9.5436   -4.5614   23.7799 H   0  0  0  0  0  0  0  0  0  0  0  0
    7.1918   -1.8823   26.1906 H   0  0  0  0  0  0  0  0  0  0  0  0
   10.2676   -2.6754   22.3861 H   0  0  0  0  0  0  0  0  0  0  0  0
    7.8686   -0.0026   24.7598 H   0  0  0  0  0  0  0  0  0  0  0  0
   15.1613   -2.3520   23.5747 H   0  0  0  0  0  0  0  0  0  0  0  0
   11.9745   -0.6893   21.1973 H   0  0  0  0  0  0  0  0  0  0  0  0
    8.4216   -0.8246   18.1565 H   0  0  0  0  0  0  0  0  0  0  0  0
    6.2500   -7.3027   26.1097 H   0  0  0  0  0  0  0  0  0  0  0  0
    7.8838   -7.1078   26.7574 H   0  0  0  0  0  0  0  0  0  0  0  0
    5.3690   -5.5363   27.5214 H   0  0  0  0  0  0  0  0  0  0  0  0
    6.2178   -6.7054   28.5384 H   0  0  0  0  0  0  0  0  0  0  0  0
    6.6498   -3.9225   28.4807 H   0  0  0  0  0  0  0  0  0  0  0  0
    7.6764   -5.1138   29.2803 H   0  0  0  0  0  0  0  0  0  0  0  0
    8.7796   -3.4700   27.5826 H   0  0  0  0  0  0  0  0  0  0  0  0
    9.2112   -5.1853   27.4497 H   0  0  0  0  0  0  0  0  0  0  0  0
   10.4561    1.0772   24.1620 H   0  0  0  0  0  0  0  0  0  0  0  0
   10.8743    1.5008   22.5014 H   0  0  0  0  0  0  0  0  0  0  0  0
    8.6688   -1.5655   20.3666 H   0  0  0  0  0  0  0  0  0  0  0  0
    7.4298   -1.1908   21.5994 H   0  0  0  0  0  0  0  0  0  0  0  0
  1  2  1  0  0  0  0
  1  5  2  0  0  0  0
  2  6  2  0  0  0  0
  3  4  2  0  0  0  0
  3 11  1  0  0  0  0
  4 14  1  0  0  0  0
  5 15  1  0  0  0  0
  6 16  1  0  0  0  0
  7  9  2  0  0  0  0
  7 17  1  0  0  0  0
  8 10  1  0  0  0  0
  8 17  2  0  0  0  0
  9 18  1  0  0  0  0
 10 18  2  0  0  0  0
 11 19  2  0  0  0  0
 12 14  2  0  0  0  0
 12 19  1  0  0  0  0
 13 28  2  0  0  0  0
 13 29  1  0  0  0  0
 14 26  1  0  0  0  0
 15 16  2  0  0  0  0
 15 28  1  0  0  0  0
 16 29  1  0  0  0  0
 17 30  1  0  0  0  0
 18 31  1  0  0  0  0
 19 34  1  0  0  0  0
 20 22  1  0  0  0  0
 20 30  1  0  0  0  0
 20 32  2  0  0  0  0
 21 27  1  0  0  0  0
 21 31  1  0  0  0  0
 21 33  2  0  0  0  0
 22 23  1  0  0  0  0
 23 24  1  0  0  0  0
 24 25  1  0  0  0  0
 25 30  1  0  0  0  0
 26 31  1  0  0  0  0
 27 29  1  0  0  0  0
  1 35  1  0  0  0  0
  2 36  1  0  0  0  0
  3 37  1  0  0  0  0
  4 38  1  0  0  0  0
  5 39  1  0  0  0  0
  6 40  1  0  0  0  0
  7 41  1  0  0  0  0
  8 42  1  0  0  0  0
  9 43  1  0  0  0  0
 10 44  1  0  0  0  0
 11 45  1  0  0  0  0
 12 46  1  0  0  0  0
 13 47  1  0  0  0  0
 22 48  1  0  0  0  0
 22 49  1  0  0  0  0
 23 50  1  0  0  0  0
 23 51  1  0  0  0  0
 24 52  1  0  0  0  0
 24 53  1  0  0  0  0
 25 54  1  0  0  0  0
 25 55  1  0  0  0  0
 26 56  1  0  0  0  0
 26 57  1  0  0  0  0
 27 58  1  0  0  0  0
 27 59  1  0  0  0  0
M  END
> <clash_score>
0

> <docking_score>
-9.271417617797852

> <overlap_score>
0.9984303712844849

$$$$
BENZO_388_1
  -OEChem-08222022473D

 55 59  0     0  0  0  0  0  0999 V2000
    3.8860    2.1050   19.5250 C   0  0  0  0  0  0  0  0  0  0  0  0
    4.2460    1.7520   20.8250 C   0  0  0  0  0  0  0  0  0  0  0  0
    4.6610    1.7170   18.4380 C   0  0  0  0  0  0  0  0  0  0  0  0
    5.3890    1.0010   21.0690 C   0  0  0  0  0  0  0  0  0  0  0  0
    9.1890   -3.5540   24.0140 C   0  0  0  0  0  0  0  0  0  0  0  0
    7.8700   -2.0610   25.3550 C   0  0  0  0  0  0  0  0  0  0  0  0
    9.5890   -2.4950   23.2210 C   0  0  0  0  0  0  0  0  0  0  0  0
    8.2550   -1.0010   24.5520 C   0  0  0  0  0  0  0  0  0  0  0  0
   12.6785   -0.3936   24.5018 C   0  0  0  0  0  0  0  0  0  0  0  0
   13.7775   -1.2037   24.3186 C   0  0  0  0  0  0  0  0  0  0  0  0
   12.5401   -0.8378   22.2246 C   0  0  0  0  0  0  0  0  0  0  0  0
    7.5840   -0.2700   18.5160 C   0  0  0  0  0  0  0  0  0  0  0  0
   11.9616   -0.1817   23.2889 C   0  0  0  0  0  0  0  0  0  0  0  0
    5.7970    0.9500   18.6730 C   0  0  0  0  0  0  0  0  0  0  0  0
    6.1460    0.6070   19.9750 C   0  0  0  0  0  0  0  0  0  0  0  0
    8.3450   -3.3440   25.0980 C   0  0  0  0  0  0  0  0  0  0  0  0
    9.1280   -1.2090   23.4870 C   0  0  0  0  0  0  0  0  0  0  0  0
    9.0430    0.2380   21.4940 C   0  0  0  0  0  0  0  0  0  0  0  0
    8.9524   -5.2012   26.6600 C   0  0  0  0  0  0  0  0  0  0  0  0
    6.6112   -4.5068   26.4379 C   0  0  0  0  0  0  0  0  0  0  0  0
    8.9037   -4.7845   28.1261 C   0  0  0  0  0  0  0  0  0  0  0  0
    6.6374   -4.1243   27.9184 C   0  0  0  0  0  0  0  0  0  0  0  0
   10.7220    0.6590   23.1850 C   0  0  0  0  0  0  0  0  0  0  0  0
    8.0950   -0.7700   20.8440 C   0  0  0  0  0  0  0  0  0  0  0  0
    6.7100    0.3850   17.8100 N   0  0  0  0  0  0  0  0  0  0  0  0
    7.2710   -0.1460   19.8310 N   0  0  0  0  0  0  0  0  0  0  0  0
    7.9775   -4.4014   25.9151 N   0  0  0  0  0  0  0  0  0  0  0  0
    9.5820   -0.1080   22.7000 N   0  0  0  0  0  0  0  0  0  0  0  0
    9.2950    1.3000   20.9480 O   0  0  0  0  0  0  0  0  0  0  0  0
    7.5729   -4.9391   28.6338 O   0  0  0  0  0  0  0  0  0  0  0  0
   13.9416   -1.7050   22.6894 S   0  0  0  0  0  0  0  0  0  0  0  0
    2.9844    2.6932   19.3613 H   0  0  0  0  0  0  0  0  0  0  0  0
    3.6232    2.0695   21.6567 H   0  0  0  0  0  0  0  0  0  0  0  0
    4.3779    2.0108   17.4276 H   0  0  0  0  0  0  0  0  0  0  0  0
    5.6762    0.7334   22.0897 H   0  0  0  0  0  0  0  0  0  0  0  0
    9.5426   -4.5618   23.7797 H   0  0  0  0  0  0  0  0  0  0  0  0
    7.1914   -1.8824   26.1903 H   0  0  0  0  0  0  0  0  0  0  0  0
   10.2669   -2.6745   22.3854 H   0  0  0  0  0  0  0  0  0  0  0  0
    7.8690   -0.0020   24.7587 H   0  0  0  0  0  0  0  0  0  0  0  0
   12.4058    0.0253   25.4622 H   0  0  0  0  0  0  0  0  0  0  0  0
   14.4923   -1.5245   25.0631 H   0  0  0  0  0  0  0  0  0  0  0  0
   12.2108   -0.8511   21.1948 H   0  0  0  0  0  0  0  0  0  0  0  0
    8.4216   -0.8246   18.1565 H   0  0  0  0  0  0  0  0  0  0  0  0
    9.9615   -5.0500   26.2711 H   0  0  0  0  0  0  0  0  0  0  0  0
    8.6935   -6.2597   26.5720 H   0  0  0  0  0  0  0  0  0  0  0  0
    6.2628   -5.5350   26.3330 H   0  0  0  0  0  0  0  0  0  0  0  0
    5.9347   -3.8423   25.9023 H   0  0  0  0  0  0  0  0  0  0  0  0
    9.5597   -5.4275   28.7166 H   0  0  0  0  0  0  0  0  0  0  0  0
    9.2344   -3.7511   28.2636 H   0  0  0  0  0  0  0  0  0  0  0  0
    6.8874   -3.0657   28.0553 H   0  0  0  0  0  0  0  0  0  0  0  0
    5.6495   -4.2893   28.3591 H   0  0  0  0  0  0  0  0  0  0  0  0
   10.4561    1.0772   24.1620 H   0  0  0  0  0  0  0  0  0  0  0  0
   10.8743    1.5008   22.5014 H   0  0  0  0  0  0  0  0  0  0  0  0
    8.6688   -1.5655   20.3666 H   0  0  0  0  0  0  0  0  0  0  0  0
    7.4298   -1.1908   21.5994 H   0  0  0  0  0  0  0  0  0  0  0  0
  1  2  1  0  0  0  0
  1  3  2  0  0  0  0
  2  4  2  0  0  0  0
  3 14  1  0  0  0  0
  4 15  1  0  0  0  0
  5  7  2  0  0  0  0
  5 16  1  0  0  0  0
  6  8  1  0  0  0  0
  6 16  2  0  0  0  0
  7 17  1  0  0  0  0
  8 17  2  0  0  0  0
  9 10  2  0  0  0  0
  9 13  1  0  0  0  0
 10 31  1  0  0  0  0
 11 13  2  0  0  0  0
 11 31  1  0  0  0  0
 12 25  2  0  0  0  0
 12 26  1  0  0  0  0
 13 23  1  0  0  0  0
 14 15  2  0  0  0  0
 14 25  1  0  0  0  0
 15 26  1  0  0  0  0
 16 27  1  0  0  0  0
 17 28  1  0  0  0  0
 18 24  1  0  0  0  0
 18 28  1  0  0  0  0
 18 29  2  0  0  0  0
 19 21  1  0  0  0  0
 19 27  1  0  0  0  0
 20 22  1  0  0  0  0
 20 27  1  0  0  0  0
 21 30  1  0  0  0  0
 22 30  1  0  0  0  0
 23 28  1  0  0  0  0
 24 26  1  0  0  0  0
  1 32  1  0  0  0  0
  2 33  1  0  0  0  0
  3 34  1  0  0  0  0
  4 35  1  0  0  0  0
  5 36  1  0  0  0  0
  6 37  1  0  0  0  0
  7 38  1  0  0  0  0
  8 39  1  0  0  0  0
  9 40  1  0  0  0  0
 10 41  1  0  0  0  0
 11 42  1  0  0  0  0
 12 43  1  0  0  0  0
 19 44  1  0  0  0  0
 19 45  1  0  0  0  0
 20 46  1  0  0  0  0
 20 47  1  0  0  0  0
 21 48  1  0  0  0  0
 21 49  1  0  0  0  0
 22 50  1  0  0  0  0
 22 51  1  0  0  0  0
 23 52  1  0  0  0  0
 23 53  1  0  0  0  0
 24 54  1  0  0  0  0
 24 55  1  0  0  0  0
M  END
> <clash_score>
0

> <docking_score>
-10.816390991210938

> <overlap_score>
0.9805795550346375

$$$$
BENZO_390_1
  -OEChem-08222022473D

 58 62  0     0  0  0  0  0  0999 V2000
    3.8860    2.1050   19.5250 C   0  0  0  0  0  0  0  0  0  0  0  0
    4.2460    1.7520   20.8250 C   0  0  0  0  0  0  0  0  0  0  0  0
   13.7501   -1.1157   24.6176 C   0  0  0  0  0  0  0  0  0  0  0  0
   12.5992   -0.3339   24.5202 C   0  0  0  0  0  0  0  0  0  0  0  0
    4.6610    1.7170   18.4380 C   0  0  0  0  0  0  0  0  0  0  0  0
    5.3890    1.0010   21.0690 C   0  0  0  0  0  0  0  0  0  0  0  0
    9.1890   -3.5540   24.0140 C   0  0  0  0  0  0  0  0  0  0  0  0
    7.8700   -2.0610   25.3550 C   0  0  0  0  0  0  0  0  0  0  0  0
    9.5890   -2.4950   23.2210 C   0  0  0  0  0  0  0  0  0  0  0  0
    8.2550   -1.0010   24.5520 C   0  0  0  0  0  0  0  0  0  0  0  0
   14.2636   -1.7454   23.4838 C   0  0  0  0  0  0  0  0  0  0  0  0
   12.4750   -0.8115   22.1551 C   0  0  0  0  0  0  0  0  0  0  0  0
    7.5840   -0.2700   18.5160 C   0  0  0  0  0  0  0  0  0  0  0  0
   11.9616   -0.1817   23.2889 C   0  0  0  0  0  0  0  0  0  0  0  0
    5.7970    0.9500   18.6730 C   0  0  0  0  0  0  0  0  0  0  0  0
    6.1460    0.6070   19.9750 C   0  0  0  0  0  0  0  0  0  0  0  0
    8.3450   -3.3440   25.0980 C   0  0  0  0  0  0  0  0  0  0  0  0
    9.1280   -1.2090   23.4870 C   0  0  0  0  0  0  0  0  0  0  0  0
   13.6260   -1.5933   22.2526 C   0  0  0  0  0  0  0  0  0  0  0  0
    9.0430    0.2380   21.4940 C   0  0  0  0  0  0  0  0  0  0  0  0
    8.9524   -5.2012   26.6600 C   0  0  0  0  0  0  0  0  0  0  0  0
    6.6112   -4.5068   26.4379 C   0  0  0  0  0  0  0  0  0  0  0  0
    8.9037   -4.7845   28.1261 C   0  0  0  0  0  0  0  0  0  0  0  0
    6.6374   -4.1243   27.9184 C   0  0  0  0  0  0  0  0  0  0  0  0
   10.7220    0.6590   23.1850 C   0  0  0  0  0  0  0  0  0  0  0  0
    8.0950   -0.7700   20.8440 C   0  0  0  0  0  0  0  0  0  0  0  0
    6.7100    0.3850   17.8100 N   0  0  0  0  0  0  0  0  0  0  0  0
    7.2710   -0.1460   19.8310 N   0  0  0  0  0  0  0  0  0  0  0  0
    7.9775   -4.4014   25.9151 N   0  0  0  0  0  0  0  0  0  0  0  0
    9.5820   -0.1080   22.7000 N   0  0  0  0  0  0  0  0  0  0  0  0
    9.2950    1.3000   20.9480 O   0  0  0  0  0  0  0  0  0  0  0  0
    7.5729   -4.9391   28.6338 O   0  0  0  0  0  0  0  0  0  0  0  0
   14.2594   -2.3714   20.8543 Cl  0  0  0  0  0  0  0  0  0  0  0  0
    2.9844    2.6932   19.3613 H   0  0  0  0  0  0  0  0  0  0  0  0
    3.6232    2.0695   21.6567 H   0  0  0  0  0  0  0  0  0  0  0  0
   14.2462   -1.2340   25.5766 H   0  0  0  0  0  0  0  0  0  0  0  0
   12.2060    0.1530   25.4088 H   0  0  0  0  0  0  0  0  0  0  0  0
    4.3779    2.0108   17.4276 H   0  0  0  0  0  0  0  0  0  0  0  0
    5.6762    0.7334   22.0897 H   0  0  0  0  0  0  0  0  0  0  0  0
    9.5426   -4.5618   23.7797 H   0  0  0  0  0  0  0  0  0  0  0  0
    7.1914   -1.8824   26.1903 H   0  0  0  0  0  0  0  0  0  0  0  0
   10.2669   -2.6745   22.3854 H   0  0  0  0  0  0  0  0  0  0  0  0
    7.8690   -0.0020   24.7587 H   0  0  0  0  0  0  0  0  0  0  0  0
   15.1613   -2.3520   23.5747 H   0  0  0  0  0  0  0  0  0  0  0  0
   11.9745   -0.6893   21.1973 H   0  0  0  0  0  0  0  0  0  0  0  0
    8.4216   -0.8246   18.1565 H   0  0  0  0  0  0  0  0  0  0  0  0
    9.9615   -5.0500   26.2711 H   0  0  0  0  0  0  0  0  0  0  0  0
    8.6935   -6.2597   26.5720 H   0  0  0  0  0  0  0  0  0  0  0  0
    6.2628   -5.5350   26.3330 H   0  0  0  0  0  0  0  0  0  0  0  0
    5.9347   -3.8423   25.9023 H   0  0  0  0  0  0  0  0  0  0  0  0
    9.5597   -5.4275   28.7166 H   0  0  0  0  0  0  0  0  0  0  0  0
    9.2344   -3.7511   28.2636 H   0  0  0  0  0  0  0  0  0  0  0  0
    6.8874   -3.0657   28.0553 H   0  0  0  0  0  0  0  0  0  0  0  0
    5.6495   -4.2893   28.3591 H   0  0  0  0  0  0  0  0  0  0  0  0
   10.4561    1.0772   24.1620 H   0  0  0  0  0  0  0  0  0  0  0  0
   10.8743    1.5008   22.5014 H   0  0  0  0  0  0  0  0  0  0  0  0
    8.6688   -1.5655   20.3666 H   0  0  0  0  0  0  0  0  0  0  0  0
    7.4298   -1.1908   21.5994 H   0  0  0  0  0  0  0  0  0  0  0  0
  1  2  1  0  0  0  0
  1  5  2  0  0  0  0
  2  6  2  0  0  0  0
  3  4  2  0  0  0  0
  3 11  1  0  0  0  0
  4 14  1  0  0  0  0
  5 15  1  0  0  0  0
  6 16  1  0  0  0  0
  7  9  2  0  0  0  0
  7 17  1  0  0  0  0
  8 10  1  0  0  0  0
  8 17  2  0  0  0  0
  9 18  1  0  0  0  0
 10 18  2  0  0  0  0
 11 19  2  0  0  0  0
 12 14  2  0  0  0  0
 12 19  1  0  0  0  0
 13 27  2  0  0  0  0
 13 28  1  0  0  0  0
 14 25  1  0  0  0  0
 15 16  2  0  0  0  0
 15 27  1  0  0  0  0
 16 28  1  0  0  0  0
 17 29  1  0  0  0  0
 18 30  1  0  0  0  0
 19 33  1  0  0  0  0
 20 26  1  0  0  0  0
 20 30  1  0  0  0  0
 20 31  2  0  0  0  0
 21 23  1  0  0  0  0
 21 29  1  0  0  0  0
 22 24  1  0  0  0  0
 22 29  1  0  0  0  0
 23 32  1  0  0  0  0
 24 32  1  0  0  0  0
 25 30  1  0  0  0  0
 26 28  1  0  0  0  0
  1 34  1  0  0  0  0
  2 35  1  0  0  0  0
  3 36  1  0  0  0  0
  4 37  1  0  0  0  0
  5 38  1  0  0  0  0
  6 39  1  0  0  0  0
  7 40  1  0  0  0  0
  8 41  1  0  0  0  0
  9 42  1  0  0  0  0
 10 43  1  0  0  0  0
 11 44  1  0  0  0  0
 12 45  1  0  0  0  0
 13 46  1  0  0  0  0
 21 47  1  0  0  0  0
 21 48  1  0  0  0  0
 22 49  1  0  0  0  0
 22 50  1  0  0  0  0
 23 51  1  0  0  0  0
 23 52  1  0  0  0  0
 24 53  1  0  0  0  0
 24 54  1  0  0  0  0
 25 55  1  0  0  0  0
 25 56  1  0  0  0  0
 26 57  1  0  0  0  0
 26 58  1  0  0  0  0
M  END
> <clash_score>
0

> <docking_score>
-10.329587936401367

> <overlap_score>
1.0017138719558716

$$$$
BENZO_391_1
  -OEChem-08222022473D

 58 62  0     0  0  0  0  0  0999 V2000
    3.8860    2.1050   19.5250 C   0  0  0  0  0  0  0  0  0  0  0  0
    4.2460    1.7520   20.8250 C   0  0  0  0  0  0  0  0  0  0  0  0
    4.6610    1.7170   18.4380 C   0  0  0  0  0  0  0  0  0  0  0  0
    5.3890    1.0010   21.0690 C   0  0  0  0  0  0  0  0  0  0  0  0
    9.1890   -3.5540   24.0140 C   0  0  0  0  0  0  0  0  0  0  0  0
    7.8700   -2.0610   25.3550 C   0  0  0  0  0  0  0  0  0  0  0  0
    9.5890   -2.4950   23.2210 C   0  0  0  0  0  0  0  0  0  0  0  0
    8.2550   -1.0010   24.5520 C   0  0  0  0  0  0  0  0  0  0  0  0
   12.7320   -0.4464   24.4370 C   0  0  0  0  0  0  0  0  0  0  0  0
   12.5970   -0.8682   22.2832 C   0  0  0  0  0  0  0  0  0  0  0  0
    7.5840   -0.2700   18.5160 C   0  0  0  0  0  0  0  0  0  0  0  0
   11.9616   -0.1817   23.2889 C   0  0  0  0  0  0  0  0  0  0  0  0
    5.7970    0.9500   18.6730 C   0  0  0  0  0  0  0  0  0  0  0  0
    6.1460    0.6070   19.9750 C   0  0  0  0  0  0  0  0  0  0  0  0
    8.3450   -3.3440   25.0980 C   0  0  0  0  0  0  0  0  0  0  0  0
    9.1280   -1.2090   23.4870 C   0  0  0  0  0  0  0  0  0  0  0  0
    9.0430    0.2380   21.4940 C   0  0  0  0  0  0  0  0  0  0  0  0
    8.9524   -5.2012   26.6600 C   0  0  0  0  0  0  0  0  0  0  0  0
    6.6112   -4.5068   26.4379 C   0  0  0  0  0  0  0  0  0  0  0  0
    8.9037   -4.7845   28.1261 C   0  0  0  0  0  0  0  0  0  0  0  0
    6.6374   -4.1243   27.9184 C   0  0  0  0  0  0  0  0  0  0  0  0
   14.6393   -2.3180   22.2082 C   0  0  0  0  0  0  0  0  0  0  0  0
   10.7220    0.6590   23.1850 C   0  0  0  0  0  0  0  0  0  0  0  0
    8.0950   -0.7700   20.8440 C   0  0  0  0  0  0  0  0  0  0  0  0
   13.7770   -1.2393   24.1852 N   0  0  0  0  0  0  0  0  0  0  0  0
    6.7100    0.3850   17.8100 N   0  0  0  0  0  0  0  0  0  0  0  0
   13.6676   -1.4788   22.8673 N   0  0  0  0  0  0  0  0  0  0  0  0
    7.2710   -0.1460   19.8310 N   0  0  0  0  0  0  0  0  0  0  0  0
    7.9775   -4.4014   25.9151 N   0  0  0  0  0  0  0  0  0  0  0  0
    9.5820   -0.1080   22.7000 N   0  0  0  0  0  0  0  0  0  0  0  0
    9.2950    1.3000   20.9480 O   0  0  0  0  0  0  0  0  0  0  0  0
    7.5729   -4.9391   28.6338 O   0  0  0  0  0  0  0  0  0  0  0  0
    2.9844    2.6932   19.3613 H   0  0  0  0  0  0  0  0  0  0  0  0
    3.6232    2.0695   21.6567 H   0  0  0  0  0  0  0  0  0  0  0  0
    4.3779    2.0108   17.4276 H   0  0  0  0  0  0  0  0  0  0  0  0
    5.6762    0.7334   22.0897 H   0  0  0  0  0  0  0  0  0  0  0  0
    9.5426   -4.5618   23.7797 H   0  0  0  0  0  0  0  0  0  0  0  0
    7.1914   -1.8824   26.1903 H   0  0  0  0  0  0  0  0  0  0  0  0
   10.2669   -2.6745   22.3854 H   0  0  0  0  0  0  0  0  0  0  0  0
    7.8690   -0.0020   24.7587 H   0  0  0  0  0  0  0  0  0  0  0  0
   12.5771   -0.0965   25.4478 H   0  0  0  0  0  0  0  0  0  0  0  0
   12.3832   -0.9726   21.2281 H   0  0  0  0  0  0  0  0  0  0  0  0
    8.4216   -0.8246   18.1565 H   0  0  0  0  0  0  0  0  0  0  0  0
    9.9615   -5.0500   26.2711 H   0  0  0  0  0  0  0  0  0  0  0  0
    8.6935   -6.2597   26.5720 H   0  0  0  0  0  0  0  0  0  0  0  0
    6.2628   -5.5350   26.3330 H   0  0  0  0  0  0  0  0  0  0  0  0
    5.9347   -3.8423   25.9023 H   0  0  0  0  0  0  0  0  0  0  0  0
    9.5597   -5.4275   28.7166 H   0  0  0  0  0  0  0  0  0  0  0  0
    9.2344   -3.7511   28.2636 H   0  0  0  0  0  0  0  0  0  0  0  0
    6.8874   -3.0657   28.0553 H   0  0  0  0  0  0  0  0  0  0  0  0
    5.6495   -4.2893   28.3591 H   0  0  0  0  0  0  0  0  0  0  0  0
   15.4522   -1.6787   21.8540 H   0  0  0  0  0  0  0  0  0  0  0  0
   15.0179   -3.0612   22.9154 H   0  0  0  0  0  0  0  0  0  0  0  0
   14.1626   -2.8324   21.3691 H   0  0  0  0  0  0  0  0  0  0  0  0
   10.4561    1.0772   24.1620 H   0  0  0  0  0  0  0  0  0  0  0  0
   10.8743    1.5008   22.5014 H   0  0  0  0  0  0  0  0  0  0  0  0
    8.6688   -1.5655   20.3666 H   0  0  0  0  0  0  0  0  0  0  0  0
    7.4298   -1.1908   21.5994 H   0  0  0  0  0  0  0  0  0  0  0  0
  1  2  1  0  0  0  0
  1  3  2  0  0  0  0
  2  4  2  0  0  0  0
  3 13  1  0  0  0  0
  4 14  1  0  0  0  0
  5  7  2  0  0  0  0
  5 15  1  0  0  0  0
  6  8  1  0  0  0  0
  6 15  2  0  0  0  0
  7 16  1  0  0  0  0
  8 16  2  0  0  0  0
  9 12  1  0  0  0  0
  9 25  2  0  0  0  0
 10 12  2  0  0  0  0
 10 27  1  0  0  0  0
 11 26  2  0  0  0  0
 11 28  1  0  0  0  0
 12 23  1  0  0  0  0
 13 14  2  0  0  0  0
 13 26  1  0  0  0  0
 14 28  1  0  0  0  0
 15 29  1  0  0  0  0
 16 30  1  0  0  0  0
 17 24  1  0  0  0  0
 17 30  1  0  0  0  0
 17 31  2  0  0  0  0
 18 20  1  0  0  0  0
 18 29  1  0  0  0  0
 19 21  1  0  0  0  0
 19 29  1  0  0  0  0
 20 32  1  0  0  0  0
 21 32  1  0  0  0  0
 22 27  1  0  0  0  0
 23 30  1  0  0  0  0
 24 28  1  0  0  0  0
 25 27  1  0  0  0  0
  1 33  1  0  0  0  0
  2 34  1  0  0  0  0
  3 35  1  0  0  0  0
  4 36  1  0  0  0  0
  5 37  1  0  0  0  0
  6 38  1  0  0  0  0
  7 39  1  0  0  0  0
  8 40  1  0  0  0  0
  9 41  1  0  0  0  0
 10 42  1  0  0  0  0
 11 43  1  0  0  0  0
 18 44  1  0  0  0  0
 18 45  1  0  0  0  0
 19 46  1  0  0  0  0
 19 47  1  0  0  0  0
 20 48  1  0  0  0  0
 20 49  1  0  0  0  0
 21 50  1  0  0  0  0
 21 51  1  0  0  0  0
 22 52  1  0  0  0  0
 22 53  1  0  0  0  0
 22 54  1  0  0  0  0
 23 55  1  0  0  0  0
 23 56  1  0  0  0  0
 24 57  1  0  0  0  0
 24 58  1  0  0  0  0
M  END
> <clash_score>
0

> <docking_score>
-9.56559944152832

> <overlap_score>
0.9972016215324402

$$$$
BENZO_393_1
  -OEChem-08222022473D

 53 56  0     0  0  0  0  0  0999 V2000
   14.2641   -1.7450   23.4813 C   0  0  0  0  0  0  0  0  0  0  0  0
    4.2460    1.7520   20.8250 C   0  0  0  0  0  0  0  0  0  0  0  0
   14.0779   -0.6681   24.3480 C   0  0  0  0  0  0  0  0  0  0  0  0
   13.2991   -2.0403   22.5184 C   0  0  0  0  0  0  0  0  0  0  0  0
    3.8860    2.1050   19.5250 C   0  0  0  0  0  0  0  0  0  0  0  0
    5.3890    1.0010   21.0690 C   0  0  0  0  0  0  0  0  0  0  0  0
   12.9266    0.1135   24.2518 C   0  0  0  0  0  0  0  0  0  0  0  0
   12.1478   -1.2587   22.4222 C   0  0  0  0  0  0  0  0  0  0  0  0
    4.6610    1.7170   18.4380 C   0  0  0  0  0  0  0  0  0  0  0  0
    9.5890   -2.4950   23.2210 C   0  0  0  0  0  0  0  0  0  0  0  0
    8.2550   -1.0010   24.5520 C   0  0  0  0  0  0  0  0  0  0  0  0
    9.1890   -3.5540   24.0140 C   0  0  0  0  0  0  0  0  0  0  0  0
    7.8700   -2.0610   25.3550 C   0  0  0  0  0  0  0  0  0  0  0  0
    6.1460    0.6070   19.9750 C   0  0  0  0  0  0  0  0  0  0  0  0
   11.9616   -0.1817   23.2889 C   0  0  0  0  0  0  0  0  0  0  0  0
    5.7970    0.9500   18.6730 C   0  0  0  0  0  0  0  0  0  0  0  0
    9.1280   -1.2090   23.4870 C   0  0  0  0  0  0  0  0  0  0  0  0
    8.3450   -3.3440   25.0980 C   0  0  0  0  0  0  0  0  0  0  0  0
    7.2710   -0.1460   19.8310 C   0  0  0  0  0  0  0  0  0  0  0  0
    9.0430    0.2380   21.4940 C   0  0  0  0  0  0  0  0  0  0  0  0
    8.4656   -5.7549   25.6620 C   0  0  0  0  0  0  0  0  0  0  0  0
    7.1039   -4.1993   27.0671 C   0  0  0  0  0  0  0  0  0  0  0  0
   10.7220    0.6590   23.1850 C   0  0  0  0  0  0  0  0  0  0  0  0
    8.0950   -0.7700   20.8440 C   0  0  0  0  0  0  0  0  0  0  0  0
    6.7100    0.3850   17.8100 N   0  0  0  0  0  0  0  0  0  0  0  0
    7.5840   -0.2700   18.5160 N   0  0  0  0  0  0  0  0  0  0  0  0
    9.5820   -0.1080   22.7000 N   0  0  0  0  0  0  0  0  0  0  0  0
    7.9731   -4.4180   25.9279 N   0  0  0  0  0  0  0  0  0  0  0  0
    9.2950    1.3000   20.9480 O   0  0  0  0  0  0  0  0  0  0  0  0
   15.1613   -2.3527   23.5555 H   0  0  0  0  0  0  0  0  0  0  0  0
    3.6316    2.0634   21.6529 H   0  0  0  0  0  0  0  0  0  0  0  0
   14.8297   -0.4373   25.0971 H   0  0  0  0  0  0  0  0  0  0  0  0
   13.4443   -2.8780   21.8427 H   0  0  0  0  0  0  0  0  0  0  0  0
    2.9935    2.6871   19.3570 H   0  0  0  0  0  0  0  0  0  0  0  0
    5.6758    0.7297   22.1281 H   0  0  0  0  0  0  0  0  0  0  0  0
   12.7899    0.9506   24.9315 H   0  0  0  0  0  0  0  0  0  0  0  0
   11.4013   -1.4963   21.6690 H   0  0  0  0  0  0  0  0  0  0  0  0
    4.3688    2.0204   17.3972 H   0  0  0  0  0  0  0  0  0  0  0  0
   10.2682   -2.6746   22.3864 H   0  0  0  0  0  0  0  0  0  0  0  0
    7.8692   -0.0022   24.7600 H   0  0  0  0  0  0  0  0  0  0  0  0
    9.5433   -4.5619   23.7809 H   0  0  0  0  0  0  0  0  0  0  0  0
    7.1923   -1.8829   26.1908 H   0  0  0  0  0  0  0  0  0  0  0  0
    8.0658   -6.4501   26.4149 H   0  0  0  0  0  0  0  0  0  0  0  0
    8.1404   -6.0728   24.6604 H   0  0  0  0  0  0  0  0  0  0  0  0
    9.5646   -5.7567   25.7084 H   0  0  0  0  0  0  0  0  0  0  0  0
    6.9312   -5.1538   27.5858 H   0  0  0  0  0  0  0  0  0  0  0  0
    7.5780   -3.4870   27.7584 H   0  0  0  0  0  0  0  0  0  0  0  0
    6.1428   -3.7906   26.7217 H   0  0  0  0  0  0  0  0  0  0  0  0
   10.4561    1.0772   24.1620 H   0  0  0  0  0  0  0  0  0  0  0  0
   10.8743    1.5008   22.5014 H   0  0  0  0  0  0  0  0  0  0  0  0
    7.4774   -1.2066   21.6419 H   0  0  0  0  0  0  0  0  0  0  0  0
    8.7084   -1.5788   20.4215 H   0  0  0  0  0  0  0  0  0  0  0  0
    8.3291   -0.7564   18.0959 H   0  0  0  0  0  0  0  0  0  0  0  0
  1  3  1  0  0  0  0
  1  4  2  0  0  0  0
  2  5  1  0  0  0  0
  2  6  2  0  0  0  0
  3  7  2  0  0  0  0
  4  8  1  0  0  0  0
  5  9  2  0  0  0  0
  6 14  1  0  0  0  0
  7 15  1  0  0  0  0
  8 15  2  0  0  0  0
  9 16  1  0  0  0  0
 10 12  2  0  0  0  0
 10 17  1  0  0  0  0
 11 13  1  0  0  0  0
 11 17  2  0  0  0  0
 12 18  1  0  0  0  0
 13 18  2  0  0  0  0
 14 16  1  0  0  0  0
 14 19  2  0  0  0  0
 15 23  1  0  0  0  0
 16 25  2  0  0  0  0
 17 27  1  0  0  0  0
 18 28  1  0  0  0  0
 19 24  1  0  0  0  0
 19 26  1  0  0  0  0
 20 24  1  0  0  0  0
 20 27  1  0  0  0  0
 20 29  2  0  0  0  0
 21 28  1  0  0  0  0
 22 28  1  0  0  0  0
 23 27  1  0  0  0  0
 25 26  1  0  0  0  0
  1 30  1  0  0  0  0
  2 31  1  0  0  0  0
  3 32  1  0  0  0  0
  4 33  1  0  0  0  0
  5 34  1  0  0  0  0
  6 35  1  0  0  0  0
  7 36  1  0  0  0  0
  8 37  1  0  0  0  0
  9 38  1  0  0  0  0
 10 39  1  0  0  0  0
 11 40  1  0  0  0  0
 12 41  1  0  0  0  0
 13 42  1  0  0  0  0
 21 43  1  0  0  0  0
 21 44  1  0  0  0  0
 21 45  1  0  0  0  0
 22 46  1  0  0  0  0
 22 47  1  0  0  0  0
 22 48  1  0  0  0  0
 23 49  1  0  0  0  0
 23 50  1  0  0  0  0
 24 51  1  0  0  0  0
 24 52  1  0  0  0  0
 26 53  1  0  0  0  0
M  END
> <clash_score>
0

> <docking_score>
-9.72712230682373

> <overlap_score>
0.9344950914382935

$$$$
BENZO_392_1
  -OEChem-08222022473D

 50 53  0     0  0  0  0  0  0999 V2000
    4.2460    1.7520   20.8250 C   0  0  0  0  0  0  0  0  0  0  0  0
    3.8860    2.1050   19.5250 C   0  0  0  0  0  0  0  0  0  0  0  0
    5.3890    1.0010   21.0690 C   0  0  0  0  0  0  0  0  0  0  0  0
    4.6610    1.7170   18.4380 C   0  0  0  0  0  0  0  0  0  0  0  0
    9.5890   -2.4950   23.2210 C   0  0  0  0  0  0  0  0  0  0  0  0
    8.2550   -1.0010   24.5520 C   0  0  0  0  0  0  0  0  0  0  0  0
    9.1890   -3.5540   24.0140 C   0  0  0  0  0  0  0  0  0  0  0  0
    7.8700   -2.0610   25.3550 C   0  0  0  0  0  0  0  0  0  0  0  0
   12.6785   -0.3937   24.5018 C   0  0  0  0  0  0  0  0  0  0  0  0
   13.7775   -1.2037   24.3186 C   0  0  0  0  0  0  0  0  0  0  0  0
   12.5401   -0.8378   22.2246 C   0  0  0  0  0  0  0  0  0  0  0  0
    6.1460    0.6070   19.9750 C   0  0  0  0  0  0  0  0  0  0  0  0
   11.9616   -0.1817   23.2889 C   0  0  0  0  0  0  0  0  0  0  0  0
    5.7970    0.9500   18.6730 C   0  0  0  0  0  0  0  0  0  0  0  0
    9.1280   -1.2090   23.4870 C   0  0  0  0  0  0  0  0  0  0  0  0
    8.3450   -3.3440   25.0980 C   0  0  0  0  0  0  0  0  0  0  0  0
    7.2710   -0.1460   19.8310 C   0  0  0  0  0  0  0  0  0  0  0  0
    9.0430    0.2380   21.4940 C   0  0  0  0  0  0  0  0  0  0  0  0
    7.2639   -5.5569   25.3796 C   0  0  0  0  0  0  0  0  0  0  0  0
    8.3060   -4.4058   27.3385 C   0  0  0  0  0  0  0  0  0  0  0  0
   10.7220    0.6590   23.1850 C   0  0  0  0  0  0  0  0  0  0  0  0
    8.0950   -0.7700   20.8440 C   0  0  0  0  0  0  0  0  0  0  0  0
    6.7100    0.3850   17.8100 N   0  0  0  0  0  0  0  0  0  0  0  0
    7.5840   -0.2700   18.5160 N   0  0  0  0  0  0  0  0  0  0  0  0
    9.5820   -0.1080   22.7000 N   0  0  0  0  0  0  0  0  0  0  0  0
    7.9731   -4.4180   25.9279 N   0  0  0  0  0  0  0  0  0  0  0  0
    9.2950    1.3000   20.9480 O   0  0  0  0  0  0  0  0  0  0  0  0
   13.9416   -1.7051   22.6894 S   0  0  0  0  0  0  0  0  0  0  0  0
    3.6316    2.0634   21.6529 H   0  0  0  0  0  0  0  0  0  0  0  0
    2.9935    2.6871   19.3570 H   0  0  0  0  0  0  0  0  0  0  0  0
    5.6758    0.7297   22.1281 H   0  0  0  0  0  0  0  0  0  0  0  0
    4.3688    2.0204   17.3972 H   0  0  0  0  0  0  0  0  0  0  0  0
   10.2682   -2.6746   22.3864 H   0  0  0  0  0  0  0  0  0  0  0  0
    7.8692   -0.0022   24.7600 H   0  0  0  0  0  0  0  0  0  0  0  0
    9.5433   -4.5619   23.7809 H   0  0  0  0  0  0  0  0  0  0  0  0
    7.1923   -1.8829   26.1908 H   0  0  0  0  0  0  0  0  0  0  0  0
   12.4058    0.0253   25.4623 H   0  0  0  0  0  0  0  0  0  0  0  0
   14.4923   -1.5246   25.0631 H   0  0  0  0  0  0  0  0  0  0  0  0
   12.2108   -0.8511   21.1948 H   0  0  0  0  0  0  0  0  0  0  0  0
    7.0639   -6.2849   26.1797 H   0  0  0  0  0  0  0  0  0  0  0  0
    6.3116   -5.2206   24.9437 H   0  0  0  0  0  0  0  0  0  0  0  0
    7.8778   -6.0298   24.5989 H   0  0  0  0  0  0  0  0  0  0  0  0
    7.9323   -5.3256   27.8120 H   0  0  0  0  0  0  0  0  0  0  0  0
    9.3983   -4.3503   27.4568 H   0  0  0  0  0  0  0  0  0  0  0  0
    7.8405   -3.5318   27.8175 H   0  0  0  0  0  0  0  0  0  0  0  0
   10.4561    1.0772   24.1620 H   0  0  0  0  0  0  0  0  0  0  0  0
   10.8743    1.5008   22.5014 H   0  0  0  0  0  0  0  0  0  0  0  0
    7.4774   -1.2066   21.6419 H   0  0  0  0  0  0  0  0  0  0  0  0
    8.7084   -1.5788   20.4215 H   0  0  0  0  0  0  0  0  0  0  0  0
    8.3291   -0.7564   18.0959 H   0  0  0  0  0  0  0  0  0  0  0  0
  1  2  1  0  0  0  0
  1  3  2  0  0  0  0
  2  4  2  0  0  0  0
  3 12  1  0  0  0  0
  4 14  1  0  0  0  0
  5  7  2  0  0  0  0
  5 15  1  0  0  0  0
  6  8  1  0  0  0  0
  6 15  2  0  0  0  0
  7 16  1  0  0  0  0
  8 16  2  0  0  0  0
  9 10  2  0  0  0  0
  9 13  1  0  0  0  0
 10 28  1  0  0  0  0
 11 13  2  0  0  0  0
 11 28  1  0  0  0  0
 12 14  1  0  0  0  0
 12 17  2  0  0  0  0
 13 21  1  0  0  0  0
 14 23  2  0  0  0  0
 15 25  1  0  0  0  0
 16 26  1  0  0  0  0
 17 22  1  0  0  0  0
 17 24  1  0  0  0  0
 18 22  1  0  0  0  0
 18 25  1  0  0  0  0
 18 27  2  0  0  0  0
 19 26  1  0  0  0  0
 20 26  1  0  0  0  0
 21 25  1  0  0  0  0
 23 24  1  0  0  0  0
  1 29  1  0  0  0  0
  2 30  1  0  0  0  0
  3 31  1  0  0  0  0
  4 32  1  0  0  0  0
  5 33  1  0  0  0  0
  6 34  1  0  0  0  0
  7 35  1  0  0  0  0
  8 36  1  0  0  0  0
  9 37  1  0  0  0  0
 10 38  1  0  0  0  0
 11 39  1  0  0  0  0
 19 40  1  0  0  0  0
 19 41  1  0  0  0  0
 19 42  1  0  0  0  0
 20 43  1  0  0  0  0
 20 44  1  0  0  0  0
 20 45  1  0  0  0  0
 21 46  1  0  0  0  0
 21 47  1  0  0  0  0
 22 48  1  0  0  0  0
 22 49  1  0  0  0  0
 24 50  1  0  0  0  0
M  END
> <clash_score>
0

> <docking_score>
-9.299615859985352

> <overlap_score>
0.9331531524658203

$$$$
BENZO_395_1
  -OEChem-08222022473D

 53 56  0     0  0  0  0  0  0999 V2000
    4.2460    1.7520   20.8250 C   0  0  0  0  0  0  0  0  0  0  0  0
    3.8860    2.1050   19.5250 C   0  0  0  0  0  0  0  0  0  0  0  0
    5.3890    1.0010   21.0690 C   0  0  0  0  0  0  0  0  0  0  0  0
    4.6610    1.7170   18.4380 C   0  0  0  0  0  0  0  0  0  0  0  0
    9.5890   -2.4950   23.2210 C   0  0  0  0  0  0  0  0  0  0  0  0
    8.2550   -1.0010   24.5520 C   0  0  0  0  0  0  0  0  0  0  0  0
    9.1890   -3.5540   24.0140 C   0  0  0  0  0  0  0  0  0  0  0  0
    7.8700   -2.0610   25.3550 C   0  0  0  0  0  0  0  0  0  0  0  0
   12.7320   -0.4464   24.4370 C   0  0  0  0  0  0  0  0  0  0  0  0
   12.5970   -0.8682   22.2832 C   0  0  0  0  0  0  0  0  0  0  0  0
    6.1460    0.6070   19.9750 C   0  0  0  0  0  0  0  0  0  0  0  0
   11.9616   -0.1817   23.2889 C   0  0  0  0  0  0  0  0  0  0  0  0
    5.7970    0.9500   18.6730 C   0  0  0  0  0  0  0  0  0  0  0  0
    9.1280   -1.2090   23.4870 C   0  0  0  0  0  0  0  0  0  0  0  0
    8.3450   -3.3440   25.0980 C   0  0  0  0  0  0  0  0  0  0  0  0
    7.2710   -0.1460   19.8310 C   0  0  0  0  0  0  0  0  0  0  0  0
    9.0430    0.2380   21.4940 C   0  0  0  0  0  0  0  0  0  0  0  0
   14.6393   -2.3180   22.2082 C   0  0  0  0  0  0  0  0  0  0  0  0
    7.2639   -5.5569   25.3796 C   0  0  0  0  0  0  0  0  0  0  0  0
    8.3060   -4.4058   27.3385 C   0  0  0  0  0  0  0  0  0  0  0  0
   10.7220    0.6590   23.1850 C   0  0  0  0  0  0  0  0  0  0  0  0
    8.0950   -0.7700   20.8440 C   0  0  0  0  0  0  0  0  0  0  0  0
   13.7770   -1.2393   24.1852 N   0  0  0  0  0  0  0  0  0  0  0  0
    6.7100    0.3850   17.8100 N   0  0  0  0  0  0  0  0  0  0  0  0
    7.5840   -0.2700   18.5160 N   0  0  0  0  0  0  0  0  0  0  0  0
   13.6676   -1.4788   22.8673 N   0  0  0  0  0  0  0  0  0  0  0  0
    9.5820   -0.1080   22.7000 N   0  0  0  0  0  0  0  0  0  0  0  0
    7.9731   -4.4180   25.9279 N   0  0  0  0  0  0  0  0  0  0  0  0
    9.2950    1.3000   20.9480 O   0  0  0  0  0  0  0  0  0  0  0  0
    3.6316    2.0634   21.6529 H   0  0  0  0  0  0  0  0  0  0  0  0
    2.9935    2.6871   19.3570 H   0  0  0  0  0  0  0  0  0  0  0  0
    5.6758    0.7297   22.1281 H   0  0  0  0  0  0  0  0  0  0  0  0
    4.3688    2.0204   17.3972 H   0  0  0  0  0  0  0  0  0  0  0  0
   10.2682   -2.6746   22.3864 H   0  0  0  0  0  0  0  0  0  0  0  0
    7.8692   -0.0022   24.7600 H   0  0  0  0  0  0  0  0  0  0  0  0
    9.5433   -4.5619   23.7809 H   0  0  0  0  0  0  0  0  0  0  0  0
    7.1923   -1.8829   26.1908 H   0  0  0  0  0  0  0  0  0  0  0  0
   12.5771   -0.0965   25.4478 H   0  0  0  0  0  0  0  0  0  0  0  0
   12.3832   -0.9726   21.2281 H   0  0  0  0  0  0  0  0  0  0  0  0
   15.4522   -1.6787   21.8540 H   0  0  0  0  0  0  0  0  0  0  0  0
   15.0179   -3.0612   22.9154 H   0  0  0  0  0  0  0  0  0  0  0  0
   14.1626   -2.8324   21.3691 H   0  0  0  0  0  0  0  0  0  0  0  0
    7.0639   -6.2849   26.1797 H   0  0  0  0  0  0  0  0  0  0  0  0
    6.3116   -5.2206   24.9437 H   0  0  0  0  0  0  0  0  0  0  0  0
    7.8778   -6.0298   24.5989 H   0  0  0  0  0  0  0  0  0  0  0  0
    7.9323   -5.3256   27.8120 H   0  0  0  0  0  0  0  0  0  0  0  0
    9.3983   -4.3503   27.4568 H   0  0  0  0  0  0  0  0  0  0  0  0
    7.8405   -3.5318   27.8175 H   0  0  0  0  0  0  0  0  0  0  0  0
   10.4561    1.0772   24.1620 H   0  0  0  0  0  0  0  0  0  0  0  0
   10.8743    1.5008   22.5014 H   0  0  0  0  0  0  0  0  0  0  0  0
    7.4774   -1.2066   21.6419 H   0  0  0  0  0  0  0  0  0  0  0  0
    8.7084   -1.5788   20.4215 H   0  0  0  0  0  0  0  0  0  0  0  0
    8.3291   -0.7564   18.0959 H   0  0  0  0  0  0  0  0  0  0  0  0
  1  2  1  0  0  0  0
  1  3  2  0  0  0  0
  2  4  2  0  0  0  0
  3 11  1  0  0  0  0
  4 13  1  0  0  0  0
  5  7  2  0  0  0  0
  5 14  1  0  0  0  0
  6  8  1  0  0  0  0
  6 14  2  0  0  0  0
  7 15  1  0  0  0  0
  8 15  2  0  0  0  0
  9 12  1  0  0  0  0
  9 23  2  0  0  0  0
 10 12  2  0  0  0  0
 10 26  1  0  0  0  0
 11 13  1  0  0  0  0
 11 16  2  0  0  0  0
 12 21  1  0  0  0  0
 13 24  2  0  0  0  0
 14 27  1  0  0  0  0
 15 28  1  0  0  0  0
 16 22  1  0  0  0  0
 16 25  1  0  0  0  0
 17 22  1  0  0  0  0
 17 27  1  0  0  0  0
 17 29  2  0  0  0  0
 18 26  1  0  0  0  0
 19 28  1  0  0  0  0
 20 28  1  0  0  0  0
 21 27  1  0  0  0  0
 23 26  1  0  0  0  0
 24 25  1  0  0  0  0
  1 30  1  0  0  0  0
  2 31  1  0  0  0  0
  3 32  1  0  0  0  0
  4 33  1  0  0  0  0
  5 34  1  0  0  0  0
  6 35  1  0  0  0  0
  7 36  1  0  0  0  0
  8 37  1  0  0  0  0
  9 38  1  0  0  0  0
 10 39  1  0  0  0  0
 18 40  1  0  0  0  0
 18 41  1  0  0  0  0
 18 42  1  0  0  0  0
 19 43  1  0  0  0  0
 19 44  1  0  0  0  0
 19 45  1  0  0  0  0
 20 46  1  0  0  0  0
 20 47  1  0  0  0  0
 20 48  1  0  0  0  0
 21 49  1  0  0  0  0
 21 50  1  0  0  0  0
 22 51  1  0  0  0  0
 22 52  1  0  0  0  0
 25 53  1  0  0  0  0
M  END
> <clash_score>
0

> <docking_score>
-8.048839569091797

> <overlap_score>
0.9499830007553101

$$$$
BENZO_394_1
  -OEChem-08222022473D

 53 56  0     0  0  0  0  0  0999 V2000
    4.2460    1.7520   20.8250 C   0  0  0  0  0  0  0  0  0  0  0  0
    3.8860    2.1050   19.5250 C   0  0  0  0  0  0  0  0  0  0  0  0
   13.7501   -1.1157   24.6176 C   0  0  0  0  0  0  0  0  0  0  0  0
    5.3890    1.0010   21.0690 C   0  0  0  0  0  0  0  0  0  0  0  0
   12.5991   -0.3339   24.5202 C   0  0  0  0  0  0  0  0  0  0  0  0
    4.6610    1.7170   18.4380 C   0  0  0  0  0  0  0  0  0  0  0  0
    9.5890   -2.4950   23.2210 C   0  0  0  0  0  0  0  0  0  0  0  0
    8.2550   -1.0010   24.5520 C   0  0  0  0  0  0  0  0  0  0  0  0
    9.1890   -3.5540   24.0140 C   0  0  0  0  0  0  0  0  0  0  0  0
    7.8700   -2.0610   25.3550 C   0  0  0  0  0  0  0  0  0  0  0  0
   14.2636   -1.7454   23.4838 C   0  0  0  0  0  0  0  0  0  0  0  0
   12.4750   -0.8115   22.1551 C   0  0  0  0  0  0  0  0  0  0  0  0
    6.1460    0.6070   19.9750 C   0  0  0  0  0  0  0  0  0  0  0  0
   11.9616   -0.1817   23.2889 C   0  0  0  0  0  0  0  0  0  0  0  0
    5.7970    0.9500   18.6730 C   0  0  0  0  0  0  0  0  0  0  0  0
    9.1280   -1.2090   23.4870 C   0  0  0  0  0  0  0  0  0  0  0  0
    8.3450   -3.3440   25.0980 C   0  0  0  0  0  0  0  0  0  0  0  0
   13.6261   -1.5933   22.2526 C   0  0  0  0  0  0  0  0  0  0  0  0
    7.2710   -0.1460   19.8310 C   0  0  0  0  0  0  0  0  0  0  0  0
    9.0430    0.2380   21.4940 C   0  0  0  0  0  0  0  0  0  0  0  0
    7.2639   -5.5569   25.3796 C   0  0  0  0  0  0  0  0  0  0  0  0
    8.3060   -4.4058   27.3385 C   0  0  0  0  0  0  0  0  0  0  0  0
   10.7220    0.6590   23.1850 C   0  0  0  0  0  0  0  0  0  0  0  0
    8.0950   -0.7700   20.8440 C   0  0  0  0  0  0  0  0  0  0  0  0
    6.7100    0.3850   17.8100 N   0  0  0  0  0  0  0  0  0  0  0  0
    7.5840   -0.2700   18.5160 N   0  0  0  0  0  0  0  0  0  0  0  0
    9.5820   -0.1080   22.7000 N   0  0  0  0  0  0  0  0  0  0  0  0
    7.9731   -4.4180   25.9279 N   0  0  0  0  0  0  0  0  0  0  0  0
    9.2950    1.3000   20.9480 O   0  0  0  0  0  0  0  0  0  0  0  0
   14.2594   -2.3714   20.8543 Cl  0  0  0  0  0  0  0  0  0  0  0  0
    3.6316    2.0634   21.6529 H   0  0  0  0  0  0  0  0  0  0  0  0
    2.9935    2.6871   19.3570 H   0  0  0  0  0  0  0  0  0  0  0  0
   14.2462   -1.2340   25.5766 H   0  0  0  0  0  0  0  0  0  0  0  0
    5.6758    0.7297   22.1281 H   0  0  0  0  0  0  0  0  0  0  0  0
   12.2060    0.1530   25.4088 H   0  0  0  0  0  0  0  0  0  0  0  0
    4.3688    2.0204   17.3972 H   0  0  0  0  0  0  0  0  0  0  0  0
   10.2682   -2.6746   22.3864 H   0  0  0  0  0  0  0  0  0  0  0  0
    7.8692   -0.0022   24.7600 H   0  0  0  0  0  0  0  0  0  0  0  0
    9.5433   -4.5619   23.7809 H   0  0  0  0  0  0  0  0  0  0  0  0
    7.1923   -1.8829   26.1908 H   0  0  0  0  0  0  0  0  0  0  0  0
   15.1613   -2.3520   23.5747 H   0  0  0  0  0  0  0  0  0  0  0  0
   11.9745   -0.6893   21.1973 H   0  0  0  0  0  0  0  0  0  0  0  0
    7.0639   -6.2849   26.1797 H   0  0  0  0  0  0  0  0  0  0  0  0
    6.3116   -5.2206   24.9437 H   0  0  0  0  0  0  0  0  0  0  0  0
    7.8778   -6.0298   24.5989 H   0  0  0  0  0  0  0  0  0  0  0  0
    7.9323   -5.3256   27.8120 H   0  0  0  0  0  0  0  0  0  0  0  0
    9.3983   -4.3503   27.4568 H   0  0  0  0  0  0  0  0  0  0  0  0
    7.8405   -3.5318   27.8175 H   0  0  0  0  0  0  0  0  0  0  0  0
   10.4561    1.0772   24.1620 H   0  0  0  0  0  0  0  0  0  0  0  0
   10.8743    1.5008   22.5014 H   0  0  0  0  0  0  0  0  0  0  0  0
    7.4774   -1.2066   21.6419 H   0  0  0  0  0  0  0  0  0  0  0  0
    8.7084   -1.5788   20.4215 H   0  0  0  0  0  0  0  0  0  0  0  0
    8.3291   -0.7564   18.0959 H   0  0  0  0  0  0  0  0  0  0  0  0
  1  2  1  0  0  0  0
  1  4  2  0  0  0  0
  2  6  2  0  0  0  0
  3  5  2  0  0  0  0
  3 11  1  0  0  0  0
  4 13  1  0  0  0  0
  5 14  1  0  0  0  0
  6 15  1  0  0  0  0
  7  9  2  0  0  0  0
  7 16  1  0  0  0  0
  8 10  1  0  0  0  0
  8 16  2  0  0  0  0
  9 17  1  0  0  0  0
 10 17  2  0  0  0  0
 11 18  2  0  0  0  0
 12 14  2  0  0  0  0
 12 18  1  0  0  0  0
 13 15  1  0  0  0  0
 13 19  2  0  0  0  0
 14 23  1  0  0  0  0
 15 25  2  0  0  0  0
 16 27  1  0  0  0  0
 17 28  1  0  0  0  0
 18 30  1  0  0  0  0
 19 24  1  0  0  0  0
 19 26  1  0  0  0  0
 20 24  1  0  0  0  0
 20 27  1  0  0  0  0
 20 29  2  0  0  0  0
 21 28  1  0  0  0  0
 22 28  1  0  0  0  0
 23 27  1  0  0  0  0
 25 26  1  0  0  0  0
  1 31  1  0  0  0  0
  2 32  1  0  0  0  0
  3 33  1  0  0  0  0
  4 34  1  0  0  0  0
  5 35  1  0  0  0  0
  6 36  1  0  0  0  0
  7 37  1  0  0  0  0
  8 38  1  0  0  0  0
  9 39  1  0  0  0  0
 10 40  1  0  0  0  0
 11 41  1  0  0  0  0
 12 42  1  0  0  0  0
 21 43  1  0  0  0  0
 21 44  1  0  0  0  0
 21 45  1  0  0  0  0
 22 46  1  0  0  0  0
 22 47  1  0  0  0  0
 22 48  1  0  0  0  0
 23 49  1  0  0  0  0
 23 50  1  0  0  0  0
 24 51  1  0  0  0  0
 24 52  1  0  0  0  0
 26 53  1  0  0  0  0
M  END
> <clash_score>
0

> <docking_score>
-8.812810897827148

> <overlap_score>
0.9545669555664062

$$$$
BENZO_397_1
  -OEChem-08222022473D

 55 58  0     0  0  0  0  0  0999 V2000
   14.2641   -1.7450   23.4813 C   0  0  0  0  0  0  0  0  0  0  0  0
    4.2460    1.7520   20.8250 C   0  0  0  0  0  0  0  0  0  0  0  0
   14.0779   -0.6681   24.3480 C   0  0  0  0  0  0  0  0  0  0  0  0
   13.2991   -2.0403   22.5184 C   0  0  0  0  0  0  0  0  0  0  0  0
    3.8860    2.1050   19.5250 C   0  0  0  0  0  0  0  0  0  0  0  0
    5.3890    1.0010   21.0690 C   0  0  0  0  0  0  0  0  0  0  0  0
   12.9266    0.1135   24.2518 C   0  0  0  0  0  0  0  0  0  0  0  0
   12.1478   -1.2587   22.4222 C   0  0  0  0  0  0  0  0  0  0  0  0
    4.6610    1.7170   18.4380 C   0  0  0  0  0  0  0  0  0  0  0  0
    9.1890   -3.5540   24.0140 C   0  0  0  0  0  0  0  0  0  0  0  0
    7.8700   -2.0610   25.3550 C   0  0  0  0  0  0  0  0  0  0  0  0
    9.5890   -2.4950   23.2210 C   0  0  0  0  0  0  0  0  0  0  0  0
    8.2550   -1.0010   24.5520 C   0  0  0  0  0  0  0  0  0  0  0  0
    6.1460    0.6070   19.9750 C   0  0  0  0  0  0  0  0  0  0  0  0
   11.9616   -0.1817   23.2889 C   0  0  0  0  0  0  0  0  0  0  0  0
    5.7970    0.9500   18.6730 C   0  0  0  0  0  0  0  0  0  0  0  0
    8.3450   -3.3440   25.0980 C   0  0  0  0  0  0  0  0  0  0  0  0
    9.1280   -1.2090   23.4870 C   0  0  0  0  0  0  0  0  0  0  0  0
    7.2710   -0.1460   19.8310 C   0  0  0  0  0  0  0  0  0  0  0  0
    9.0430    0.2380   21.4940 C   0  0  0  0  0  0  0  0  0  0  0  0
    7.1418   -4.3826   27.0483 C   0  0  0  0  0  0  0  0  0  0  0  0
    8.0793   -6.0704   28.6847 C   0  0  0  0  0  0  0  0  0  0  0  0
   10.7220    0.6590   23.1850 C   0  0  0  0  0  0  0  0  0  0  0  0
    8.0950   -0.7700   20.8440 C   0  0  0  0  0  0  0  0  0  0  0  0
    7.0024   -5.7696   27.6577 C   0  0  0  0  0  0  0  0  0  0  0  0
    6.7100    0.3850   17.8100 N   0  0  0  0  0  0  0  0  0  0  0  0
    7.5840   -0.2700   18.5160 N   0  0  0  0  0  0  0  0  0  0  0  0
    7.9771   -4.4058   25.9196 N   0  0  0  0  0  0  0  0  0  0  0  0
    9.5820   -0.1080   22.7000 N   0  0  0  0  0  0  0  0  0  0  0  0
    9.2950    1.3000   20.9480 O   0  0  0  0  0  0  0  0  0  0  0  0
    6.5747   -3.4037   27.5223 O   0  0  0  0  0  0  0  0  0  0  0  0
   15.1613   -2.3527   23.5555 H   0  0  0  0  0  0  0  0  0  0  0  0
    3.6316    2.0634   21.6529 H   0  0  0  0  0  0  0  0  0  0  0  0
   14.8297   -0.4373   25.0971 H   0  0  0  0  0  0  0  0  0  0  0  0
   13.4443   -2.8780   21.8427 H   0  0  0  0  0  0  0  0  0  0  0  0
    2.9935    2.6871   19.3570 H   0  0  0  0  0  0  0  0  0  0  0  0
    5.6758    0.7297   22.1281 H   0  0  0  0  0  0  0  0  0  0  0  0
   12.7899    0.9506   24.9315 H   0  0  0  0  0  0  0  0  0  0  0  0
   11.4013   -1.4963   21.6690 H   0  0  0  0  0  0  0  0  0  0  0  0
    4.3688    2.0204   17.3972 H   0  0  0  0  0  0  0  0  0  0  0  0
    9.5436   -4.5614   23.7799 H   0  0  0  0  0  0  0  0  0  0  0  0
    7.1918   -1.8823   26.1906 H   0  0  0  0  0  0  0  0  0  0  0  0
   10.2676   -2.6754   22.3861 H   0  0  0  0  0  0  0  0  0  0  0  0
    7.8686   -0.0026   24.7598 H   0  0  0  0  0  0  0  0  0  0  0  0
    9.0773   -6.0031   28.2393 H   0  0  0  0  0  0  0  0  0  0  0  0
    7.9515   -7.0804   29.0862 H   0  0  0  0  0  0  0  0  0  0  0  0
    8.0356   -5.3626   29.5190 H   0  0  0  0  0  0  0  0  0  0  0  0
   10.4561    1.0772   24.1620 H   0  0  0  0  0  0  0  0  0  0  0  0
   10.8743    1.5008   22.5014 H   0  0  0  0  0  0  0  0  0  0  0  0
    7.4774   -1.2066   21.6419 H   0  0  0  0  0  0  0  0  0  0  0  0
    8.7084   -1.5788   20.4215 H   0  0  0  0  0  0  0  0  0  0  0  0
    6.0161   -5.8441   28.1300 H   0  0  0  0  0  0  0  0  0  0  0  0
    7.0494   -6.5101   26.8510 H   0  0  0  0  0  0  0  0  0  0  0  0
    8.3291   -0.7564   18.0959 H   0  0  0  0  0  0  0  0  0  0  0  0
    8.3624   -5.3252   25.6740 H   0  0  0  0  0  0  0  0  0  0  0  0
  1  3  1  0  0  0  0
  1  4  2  0  0  0  0
  2  5  1  0  0  0  0
  2  6  2  0  0  0  0
  3  7  2  0  0  0  0
  4  8  1  0  0  0  0
  5  9  2  0  0  0  0
  6 14  1  0  0  0  0
  7 15  1  0  0  0  0
  8 15  2  0  0  0  0
  9 16  1  0  0  0  0
 10 12  2  0  0  0  0
 10 17  1  0  0  0  0
 11 13  1  0  0  0  0
 11 17  2  0  0  0  0
 12 18  1  0  0  0  0
 13 18  2  0  0  0  0
 14 16  1  0  0  0  0
 14 19  2  0  0  0  0
 15 23  1  0  0  0  0
 16 26  2  0  0  0  0
 17 28  1  0  0  0  0
 18 29  1  0  0  0  0
 19 24  1  0  0  0  0
 19 27  1  0  0  0  0
 20 24  1  0  0  0  0
 20 29  1  0  0  0  0
 20 30  2  0  0  0  0
 21 25  1  0  0  0  0
 21 28  1  0  0  0  0
 21 31  2  0  0  0  0
 22 25  1  0  0  0  0
 23 29  1  0  0  0  0
 26 27  1  0  0  0  0
  1 32  1  0  0  0  0
  2 33  1  0  0  0  0
  3 34  1  0  0  0  0
  4 35  1  0  0  0  0
  5 36  1  0  0  0  0
  6 37  1  0  0  0  0
  7 38  1  0  0  0  0
  8 39  1  0  0  0  0
  9 40  1  0  0  0  0
 10 41  1  0  0  0  0
 11 42  1  0  0  0  0
 12 43  1  0  0  0  0
 13 44  1  0  0  0  0
 22 45  1  0  0  0  0
 22 46  1  0  0  0  0
 22 47  1  0  0  0  0
 23 48  1  0  0  0  0
 23 49  1  0  0  0  0
 24 50  1  0  0  0  0
 24 51  1  0  0  0  0
 25 52  1  0  0  0  0
 25 53  1  0  0  0  0
 27 54  1  0  0  0  0
 28 55  1  0  0  0  0
M  END
> <clash_score>
0

> <docking_score>
-9.287425994873047

> <overlap_score>
0.9713266491889954

$$$$
BENZO_396_1
  -OEChem-08222022473D

 52 55  0     0  0  0  0  0  0999 V2000
    4.2460    1.7520   20.8250 C   0  0  0  0  0  0  0  0  0  0  0  0
    3.8860    2.1050   19.5250 C   0  0  0  0  0  0  0  0  0  0  0  0
    5.3890    1.0010   21.0690 C   0  0  0  0  0  0  0  0  0  0  0  0
    4.6610    1.7170   18.4380 C   0  0  0  0  0  0  0  0  0  0  0  0
    9.1890   -3.5540   24.0140 C   0  0  0  0  0  0  0  0  0  0  0  0
    7.8700   -2.0610   25.3550 C   0  0  0  0  0  0  0  0  0  0  0  0
    9.5890   -2.4950   23.2210 C   0  0  0  0  0  0  0  0  0  0  0  0
    8.2550   -1.0010   24.5520 C   0  0  0  0  0  0  0  0  0  0  0  0
   12.6785   -0.3937   24.5018 C   0  0  0  0  0  0  0  0  0  0  0  0
   13.7775   -1.2037   24.3186 C   0  0  0  0  0  0  0  0  0  0  0  0
   12.5401   -0.8378   22.2246 C   0  0  0  0  0  0  0  0  0  0  0  0
    6.1460    0.6070   19.9750 C   0  0  0  0  0  0  0  0  0  0  0  0
   11.9616   -0.1817   23.2889 C   0  0  0  0  0  0  0  0  0  0  0  0
    5.7970    0.9500   18.6730 C   0  0  0  0  0  0  0  0  0  0  0  0
    8.3450   -3.3440   25.0980 C   0  0  0  0  0  0  0  0  0  0  0  0
    9.1280   -1.2090   23.4870 C   0  0  0  0  0  0  0  0  0  0  0  0
    7.2710   -0.1460   19.8310 C   0  0  0  0  0  0  0  0  0  0  0  0
    9.0430    0.2380   21.4940 C   0  0  0  0  0  0  0  0  0  0  0  0
    8.2020   -4.5570   27.2975 C   0  0  0  0  0  0  0  0  0  0  0  0
    7.8876   -6.0892   29.2873 C   0  0  0  0  0  0  0  0  0  0  0  0
   10.7220    0.6590   23.1850 C   0  0  0  0  0  0  0  0  0  0  0  0
    8.0950   -0.7700   20.8440 C   0  0  0  0  0  0  0  0  0  0  0  0
    7.6337   -5.8735   27.8062 C   0  0  0  0  0  0  0  0  0  0  0  0
    6.7100    0.3850   17.8100 N   0  0  0  0  0  0  0  0  0  0  0  0
    7.5840   -0.2700   18.5160 N   0  0  0  0  0  0  0  0  0  0  0  0
    7.9771   -4.4058   25.9196 N   0  0  0  0  0  0  0  0  0  0  0  0
    9.5820   -0.1080   22.7000 N   0  0  0  0  0  0  0  0  0  0  0  0
    9.2950    1.3000   20.9480 O   0  0  0  0  0  0  0  0  0  0  0  0
    8.7738   -3.7653   28.0397 O   0  0  0  0  0  0  0  0  0  0  0  0
   13.9416   -1.7051   22.6894 S   0  0  0  0  0  0  0  0  0  0  0  0
    3.6316    2.0634   21.6529 H   0  0  0  0  0  0  0  0  0  0  0  0
    2.9935    2.6871   19.3570 H   0  0  0  0  0  0  0  0  0  0  0  0
    5.6758    0.7297   22.1281 H   0  0  0  0  0  0  0  0  0  0  0  0
    4.3688    2.0204   17.3972 H   0  0  0  0  0  0  0  0  0  0  0  0
    9.5436   -4.5614   23.7799 H   0  0  0  0  0  0  0  0  0  0  0  0
    7.1918   -1.8823   26.1906 H   0  0  0  0  0  0  0  0  0  0  0  0
   10.2676   -2.6754   22.3861 H   0  0  0  0  0  0  0  0  0  0  0  0
    7.8686   -0.0026   24.7598 H   0  0  0  0  0  0  0  0  0  0  0  0
   12.4058    0.0253   25.4623 H   0  0  0  0  0  0  0  0  0  0  0  0
   14.4923   -1.5246   25.0631 H   0  0  0  0  0  0  0  0  0  0  0  0
   12.2108   -0.8511   21.1948 H   0  0  0  0  0  0  0  0  0  0  0  0
    8.9603   -6.0845   29.5072 H   0  0  0  0  0  0  0  0  0  0  0  0
    7.4771   -7.0516   29.6082 H   0  0  0  0  0  0  0  0  0  0  0  0
    7.4189   -5.3008   29.8855 H   0  0  0  0  0  0  0  0  0  0  0  0
   10.4561    1.0772   24.1620 H   0  0  0  0  0  0  0  0  0  0  0  0
   10.8743    1.5008   22.5014 H   0  0  0  0  0  0  0  0  0  0  0  0
    7.4774   -1.2066   21.6419 H   0  0  0  0  0  0  0  0  0  0  0  0
    8.7084   -1.5788   20.4215 H   0  0  0  0  0  0  0  0  0  0  0  0
    6.5544   -5.8829   27.6153 H   0  0  0  0  0  0  0  0  0  0  0  0
    8.0867   -6.6917   27.2346 H   0  0  0  0  0  0  0  0  0  0  0  0
    8.3291   -0.7564   18.0959 H   0  0  0  0  0  0  0  0  0  0  0  0
    7.4775   -5.1795   25.4660 H   0  0  0  0  0  0  0  0  0  0  0  0
  1  2  1  0  0  0  0
  1  3  2  0  0  0  0
  2  4  2  0  0  0  0
  3 12  1  0  0  0  0
  4 14  1  0  0  0  0
  5  7  2  0  0  0  0
  5 15  1  0  0  0  0
  6  8  1  0  0  0  0
  6 15  2  0  0  0  0
  7 16  1  0  0  0  0
  8 16  2  0  0  0  0
  9 10  2  0  0  0  0
  9 13  1  0  0  0  0
 10 30  1  0  0  0  0
 11 13  2  0  0  0  0
 11 30  1  0  0  0  0
 12 14  1  0  0  0  0
 12 17  2  0  0  0  0
 13 21  1  0  0  0  0
 14 24  2  0  0  0  0
 15 26  1  0  0  0  0
 16 27  1  0  0  0  0
 17 22  1  0  0  0  0
 17 25  1  0  0  0  0
 18 22  1  0  0  0  0
 18 27  1  0  0  0  0
 18 28  2  0  0  0  0
 19 23  1  0  0  0  0
 19 26  1  0  0  0  0
 19 29  2  0  0  0  0
 20 23  1  0  0  0  0
 21 27  1  0  0  0  0
 24 25  1  0  0  0  0
  1 31  1  0  0  0  0
  2 32  1  0  0  0  0
  3 33  1  0  0  0  0
  4 34  1  0  0  0  0
  5 35  1  0  0  0  0
  6 36  1  0  0  0  0
  7 37  1  0  0  0  0
  8 38  1  0  0  0  0
  9 39  1  0  0  0  0
 10 40  1  0  0  0  0
 11 41  1  0  0  0  0
 20 42  1  0  0  0  0
 20 43  1  0  0  0  0
 20 44  1  0  0  0  0
 21 45  1  0  0  0  0
 21 46  1  0  0  0  0
 22 47  1  0  0  0  0
 22 48  1  0  0  0  0
 23 49  1  0  0  0  0
 23 50  1  0  0  0  0
 25 51  1  0  0  0  0
 26 52  1  0  0  0  0
M  END
> <clash_score>
0

> <docking_score>
-9.578071594238281

> <overlap_score>
0.9895526766777039

$$$$
BENZO_401_1
  -OEChem-08222022473D

 60 64  0     0  0  0  0  0  0999 V2000
   14.2642   -1.7450   23.4813 C   0  0  0  0  0  0  0  0  0  0  0  0
    4.2460    1.7520   20.8250 C   0  0  0  0  0  0  0  0  0  0  0  0
   14.0779   -0.6681   24.3480 C   0  0  0  0  0  0  0  0  0  0  0  0
   13.2991   -2.0403   22.5184 C   0  0  0  0  0  0  0  0  0  0  0  0
    3.8860    2.1050   19.5250 C   0  0  0  0  0  0  0  0  0  0  0  0
    5.3890    1.0010   21.0690 C   0  0  0  0  0  0  0  0  0  0  0  0
   12.9266    0.1135   24.2518 C   0  0  0  0  0  0  0  0  0  0  0  0
   12.1478   -1.2587   22.4222 C   0  0  0  0  0  0  0  0  0  0  0  0
    4.6610    1.7170   18.4380 C   0  0  0  0  0  0  0  0  0  0  0  0
    9.1890   -3.5540   24.0140 C   0  0  0  0  0  0  0  0  0  0  0  0
    7.8700   -2.0610   25.3550 C   0  0  0  0  0  0  0  0  0  0  0  0
    9.5890   -2.4950   23.2210 C   0  0  0  0  0  0  0  0  0  0  0  0
    8.2550   -1.0010   24.5520 C   0  0  0  0  0  0  0  0  0  0  0  0
    6.1460    0.6070   19.9750 C   0  0  0  0  0  0  0  0  0  0  0  0
   11.9616   -0.1817   23.2889 C   0  0  0  0  0  0  0  0  0  0  0  0
    5.7970    0.9500   18.6730 C   0  0  0  0  0  0  0  0  0  0  0  0
    8.3450   -3.3440   25.0980 C   0  0  0  0  0  0  0  0  0  0  0  0
    9.1280   -1.2090   23.4870 C   0  0  0  0  0  0  0  0  0  0  0  0
    7.2710   -0.1460   19.8310 C   0  0  0  0  0  0  0  0  0  0  0  0
    9.0430    0.2380   21.4940 C   0  0  0  0  0  0  0  0  0  0  0  0
    7.3495   -6.6199   27.6701 C   0  0  0  0  0  0  0  0  0  0  0  0
    6.9542   -6.6348   26.1986 C   0  0  0  0  0  0  0  0  0  0  0  0
    7.3959   -5.1872   28.1871 C   0  0  0  0  0  0  0  0  0  0  0  0
    7.8834   -5.7613   25.3569 C   0  0  0  0  0  0  0  0  0  0  0  0
    8.3297   -4.3204   27.3453 C   0  0  0  0  0  0  0  0  0  0  0  0
   10.7220    0.6590   23.1850 C   0  0  0  0  0  0  0  0  0  0  0  0
    8.0950   -0.7700   20.8440 C   0  0  0  0  0  0  0  0  0  0  0  0
    6.7100    0.3850   17.8100 N   0  0  0  0  0  0  0  0  0  0  0  0
    7.5840   -0.2700   18.5160 N   0  0  0  0  0  0  0  0  0  0  0  0
    7.9745   -4.4101   25.9218 N   0  0  0  0  0  0  0  0  0  0  0  0
    9.5820   -0.1080   22.7000 N   0  0  0  0  0  0  0  0  0  0  0  0
    9.2950    1.3000   20.9480 O   0  0  0  0  0  0  0  0  0  0  0  0
   15.1613   -2.3527   23.5555 H   0  0  0  0  0  0  0  0  0  0  0  0
    3.6316    2.0634   21.6529 H   0  0  0  0  0  0  0  0  0  0  0  0
   14.8297   -0.4373   25.0971 H   0  0  0  0  0  0  0  0  0  0  0  0
   13.4443   -2.8780   21.8427 H   0  0  0  0  0  0  0  0  0  0  0  0
    2.9935    2.6871   19.3570 H   0  0  0  0  0  0  0  0  0  0  0  0
    5.6758    0.7297   22.1281 H   0  0  0  0  0  0  0  0  0  0  0  0
   12.7899    0.9506   24.9315 H   0  0  0  0  0  0  0  0  0  0  0  0
   11.4013   -1.4963   21.6690 H   0  0  0  0  0  0  0  0  0  0  0  0
    4.3688    2.0204   17.3972 H   0  0  0  0  0  0  0  0  0  0  0  0
    9.5426   -4.5618   23.7797 H   0  0  0  0  0  0  0  0  0  0  0  0
    7.1914   -1.8824   26.1903 H   0  0  0  0  0  0  0  0  0  0  0  0
   10.2669   -2.6745   22.3854 H   0  0  0  0  0  0  0  0  0  0  0  0
    7.8690   -0.0020   24.7587 H   0  0  0  0  0  0  0  0  0  0  0  0
    6.6275   -7.2030   28.2544 H   0  0  0  0  0  0  0  0  0  0  0  0
    8.3286   -7.0944   27.7981 H   0  0  0  0  0  0  0  0  0  0  0  0
    6.9785   -7.6646   25.8205 H   0  0  0  0  0  0  0  0  0  0  0  0
    5.9224   -6.2815   26.0912 H   0  0  0  0  0  0  0  0  0  0  0  0
    6.3874   -4.7586   28.1744 H   0  0  0  0  0  0  0  0  0  0  0  0
    7.7314   -5.1812   29.2316 H   0  0  0  0  0  0  0  0  0  0  0  0
    8.8752   -6.2297   25.3260 H   0  0  0  0  0  0  0  0  0  0  0  0
    7.5092   -5.7078   24.3260 H   0  0  0  0  0  0  0  0  0  0  0  0
    8.2703   -3.2761   27.6782 H   0  0  0  0  0  0  0  0  0  0  0  0
    9.3614   -4.6600   27.5015 H   0  0  0  0  0  0  0  0  0  0  0  0
   10.4561    1.0772   24.1620 H   0  0  0  0  0  0  0  0  0  0  0  0
   10.8743    1.5008   22.5014 H   0  0  0  0  0  0  0  0  0  0  0  0
    7.4659   -1.2025   21.6292 H   0  0  0  0  0  0  0  0  0  0  0  0
    8.6969   -1.5747   20.4087 H   0  0  0  0  0  0  0  0  0  0  0  0
    8.3291   -0.7564   18.0959 H   0  0  0  0  0  0  0  0  0  0  0  0
  1  3  1  0  0  0  0
  1  4  2  0  0  0  0
  2  5  1  0  0  0  0
  2  6  2  0  0  0  0
  3  7  2  0  0  0  0
  4  8  1  0  0  0  0
  5  9  2  0  0  0  0
  6 14  1  0  0  0  0
  7 15  1  0  0  0  0
  8 15  2  0  0  0  0
  9 16  1  0  0  0  0
 10 12  2  0  0  0  0
 10 17  1  0  0  0  0
 11 13  1  0  0  0  0
 11 17  2  0  0  0  0
 12 18  1  0  0  0  0
 13 18  2  0  0  0  0
 14 16  1  0  0  0  0
 14 19  2  0  0  0  0
 15 26  1  0  0  0  0
 16 28  2  0  0  0  0
 17 30  1  0  0  0  0
 18 31  1  0  0  0  0
 19 27  1  0  0  0  0
 19 29  1  0  0  0  0
 20 27  1  0  0  0  0
 20 31  1  0  0  0  0
 20 32  2  0  0  0  0
 21 22  1  0  0  0  0
 21 23  1  0  0  0  0
 22 24  1  0  0  0  0
 23 25  1  0  0  0  0
 24 30  1  0  0  0  0
 25 30  1  0  0  0  0
 26 31  1  0  0  0  0
 28 29  1  0  0  0  0
  1 33  1  0  0  0  0
  2 34  1  0  0  0  0
  3 35  1  0  0  0  0
  4 36  1  0  0  0  0
  5 37  1  0  0  0  0
  6 38  1  0  0  0  0
  7 39  1  0  0  0  0
  8 40  1  0  0  0  0
  9 41  1  0  0  0  0
 10 42  1  0  0  0  0
 11 43  1  0  0  0  0
 12 44  1  0  0  0  0
 13 45  1  0  0  0  0
 21 46  1  0  0  0  0
 21 47  1  0  0  0  0
 22 48  1  0  0  0  0
 22 49  1  0  0  0  0
 23 50  1  0  0  0  0
 23 51  1  0  0  0  0
 24 52  1  0  0  0  0
 24 53  1  0  0  0  0
 25 54  1  0  0  0  0
 25 55  1  0  0  0  0
 26 56  1  0  0  0  0
 26 57  1  0  0  0  0
 27 58  1  0  0  0  0
 27 59  1  0  0  0  0
 29 60  1  0  0  0  0
M  END
> <clash_score>
0

> <docking_score>
-9.372885704040527

> <overlap_score>
0.9952272772789001

$$$$
BENZO_399_1
  -OEChem-08222022473D

 55 58  0     0  0  0  0  0  0999 V2000
    4.2460    1.7520   20.8250 C   0  0  0  0  0  0  0  0  0  0  0  0
    3.8860    2.1050   19.5250 C   0  0  0  0  0  0  0  0  0  0  0  0
    5.3890    1.0010   21.0690 C   0  0  0  0  0  0  0  0  0  0  0  0
    4.6610    1.7170   18.4380 C   0  0  0  0  0  0  0  0  0  0  0  0
    9.1890   -3.5540   24.0140 C   0  0  0  0  0  0  0  0  0  0  0  0
    7.8700   -2.0610   25.3550 C   0  0  0  0  0  0  0  0  0  0  0  0
    9.5890   -2.4950   23.2210 C   0  0  0  0  0  0  0  0  0  0  0  0
    8.2550   -1.0010   24.5520 C   0  0  0  0  0  0  0  0  0  0  0  0
   12.7320   -0.4464   24.4370 C   0  0  0  0  0  0  0  0  0  0  0  0
   12.5970   -0.8682   22.2832 C   0  0  0  0  0  0  0  0  0  0  0  0
    6.1460    0.6070   19.9750 C   0  0  0  0  0  0  0  0  0  0  0  0
   11.9616   -0.1817   23.2889 C   0  0  0  0  0  0  0  0  0  0  0  0
    5.7970    0.9500   18.6730 C   0  0  0  0  0  0  0  0  0  0  0  0
    8.3450   -3.3440   25.0980 C   0  0  0  0  0  0  0  0  0  0  0  0
    9.1280   -1.2090   23.4870 C   0  0  0  0  0  0  0  0  0  0  0  0
    7.2710   -0.1460   19.8310 C   0  0  0  0  0  0  0  0  0  0  0  0
    9.0430    0.2380   21.4940 C   0  0  0  0  0  0  0  0  0  0  0  0
    8.2020   -4.5570   27.2975 C   0  0  0  0  0  0  0  0  0  0  0  0
    7.8876   -6.0892   29.2873 C   0  0  0  0  0  0  0  0  0  0  0  0
   14.6393   -2.3180   22.2082 C   0  0  0  0  0  0  0  0  0  0  0  0
   10.7220    0.6590   23.1850 C   0  0  0  0  0  0  0  0  0  0  0  0
    8.0950   -0.7700   20.8440 C   0  0  0  0  0  0  0  0  0  0  0  0
    7.6337   -5.8735   27.8062 C   0  0  0  0  0  0  0  0  0  0  0  0
   13.7770   -1.2393   24.1852 N   0  0  0  0  0  0  0  0  0  0  0  0
    6.7100    0.3850   17.8100 N   0  0  0  0  0  0  0  0  0  0  0  0
    7.5840   -0.2700   18.5160 N   0  0  0  0  0  0  0  0  0  0  0  0
   13.6676   -1.4788   22.8673 N   0  0  0  0  0  0  0  0  0  0  0  0
    7.9771   -4.4058   25.9196 N   0  0  0  0  0  0  0  0  0  0  0  0
    9.5820   -0.1080   22.7000 N   0  0  0  0  0  0  0  0  0  0  0  0
    9.2950    1.3000   20.9480 O   0  0  0  0  0  0  0  0  0  0  0  0
    8.7738   -3.7653   28.0397 O   0  0  0  0  0  0  0  0  0  0  0  0
    3.6316    2.0634   21.6529 H   0  0  0  0  0  0  0  0  0  0  0  0
    2.9935    2.6871   19.3570 H   0  0  0  0  0  0  0  0  0  0  0  0
    5.6758    0.7297   22.1281 H   0  0  0  0  0  0  0  0  0  0  0  0
    4.3688    2.0204   17.3972 H   0  0  0  0  0  0  0  0  0  0  0  0
    9.5436   -4.5614   23.7799 H   0  0  0  0  0  0  0  0  0  0  0  0
    7.1918   -1.8823   26.1906 H   0  0  0  0  0  0  0  0  0  0  0  0
   10.2676   -2.6754   22.3861 H   0  0  0  0  0  0  0  0  0  0  0  0
    7.8686   -0.0026   24.7598 H   0  0  0  0  0  0  0  0  0  0  0  0
   12.5771   -0.0965   25.4478 H   0  0  0  0  0  0  0  0  0  0  0  0
   12.3832   -0.9726   21.2281 H   0  0  0  0  0  0  0  0  0  0  0  0
    8.9603   -6.0845   29.5072 H   0  0  0  0  0  0  0  0  0  0  0  0
    7.4771   -7.0516   29.6082 H   0  0  0  0  0  0  0  0  0  0  0  0
    7.4189   -5.3008   29.8855 H   0  0  0  0  0  0  0  0  0  0  0  0
   15.4522   -1.6787   21.8540 H   0  0  0  0  0  0  0  0  0  0  0  0
   15.0179   -3.0612   22.9154 H   0  0  0  0  0  0  0  0  0  0  0  0
   14.1626   -2.8324   21.3691 H   0  0  0  0  0  0  0  0  0  0  0  0
   10.4561    1.0772   24.1620 H   0  0  0  0  0  0  0  0  0  0  0  0
   10.8743    1.5008   22.5014 H   0  0  0  0  0  0  0  0  0  0  0  0
    7.4774   -1.2066   21.6419 H   0  0  0  0  0  0  0  0  0  0  0  0
    8.7084   -1.5788   20.4215 H   0  0  0  0  0  0  0  0  0  0  0  0
    6.5544   -5.8829   27.6153 H   0  0  0  0  0  0  0  0  0  0  0  0
    8.0867   -6.6917   27.2346 H   0  0  0  0  0  0  0  0  0  0  0  0
    8.3291   -0.7564   18.0959 H   0  0  0  0  0  0  0  0  0  0  0  0
    7.4775   -5.1795   25.4660 H   0  0  0  0  0  0  0  0  0  0  0  0
  1  2  1  0  0  0  0
  1  3  2  0  0  0  0
  2  4  2  0  0  0  0
  3 11  1  0  0  0  0
  4 13  1  0  0  0  0
  5  7  2  0  0  0  0
  5 14  1  0  0  0  0
  6  8  1  0  0  0  0
  6 14  2  0  0  0  0
  7 15  1  0  0  0  0
  8 15  2  0  0  0  0
  9 12  1  0  0  0  0
  9 24  2  0  0  0  0
 10 12  2  0  0  0  0
 10 27  1  0  0  0  0
 11 13  1  0  0  0  0
 11 16  2  0  0  0  0
 12 21  1  0  0  0  0
 13 25  2  0  0  0  0
 14 28  1  0  0  0  0
 15 29  1  0  0  0  0
 16 22  1  0  0  0  0
 16 26  1  0  0  0  0
 17 22  1  0  0  0  0
 17 29  1  0  0  0  0
 17 30  2  0  0  0  0
 18 23  1  0  0  0  0
 18 28  1  0  0  0  0
 18 31  2  0  0  0  0
 19 23  1  0  0  0  0
 20 27  1  0  0  0  0
 21 29  1  0  0  0  0
 24 27  1  0  0  0  0
 25 26  1  0  0  0  0
  1 32  1  0  0  0  0
  2 33  1  0  0  0  0
  3 34  1  0  0  0  0
  4 35  1  0  0  0  0
  5 36  1  0  0  0  0
  6 37  1  0  0  0  0
  7 38  1  0  0  0  0
  8 39  1  0  0  0  0
  9 40  1  0  0  0  0
 10 41  1  0  0  0  0
 19 42  1  0  0  0  0
 19 43  1  0  0  0  0
 19 44  1  0  0  0  0
 20 45  1  0  0  0  0
 20 46  1  0  0  0  0
 20 47  1  0  0  0  0
 21 48  1  0  0  0  0
 21 49  1  0  0  0  0
 22 50  1  0  0  0  0
 22 51  1  0  0  0  0
 23 52  1  0  0  0  0
 23 53  1  0  0  0  0
 26 54  1  0  0  0  0
 28 55  1  0  0  0  0
M  END
> <clash_score>
0

> <docking_score>
-8.32729721069336

> <overlap_score>
1.0061899423599243

$$$$
BENZO_398_1
  -OEChem-08222022473D

 55 58  0     0  0  0  0  0  0999 V2000
    4.2460    1.7520   20.8250 C   0  0  0  0  0  0  0  0  0  0  0  0
    3.8860    2.1050   19.5250 C   0  0  0  0  0  0  0  0  0  0  0  0
   13.7501   -1.1157   24.6176 C   0  0  0  0  0  0  0  0  0  0  0  0
    5.3890    1.0010   21.0690 C   0  0  0  0  0  0  0  0  0  0  0  0
   12.5991   -0.3339   24.5202 C   0  0  0  0  0  0  0  0  0  0  0  0
    4.6610    1.7170   18.4380 C   0  0  0  0  0  0  0  0  0  0  0  0
    9.1890   -3.5540   24.0140 C   0  0  0  0  0  0  0  0  0  0  0  0
    7.8700   -2.0610   25.3550 C   0  0  0  0  0  0  0  0  0  0  0  0
    9.5890   -2.4950   23.2210 C   0  0  0  0  0  0  0  0  0  0  0  0
    8.2550   -1.0010   24.5520 C   0  0  0  0  0  0  0  0  0  0  0  0
   14.2636   -1.7454   23.4838 C   0  0  0  0  0  0  0  0  0  0  0  0
   12.4750   -0.8115   22.1551 C   0  0  0  0  0  0  0  0  0  0  0  0
    6.1460    0.6070   19.9750 C   0  0  0  0  0  0  0  0  0  0  0  0
   11.9616   -0.1817   23.2889 C   0  0  0  0  0  0  0  0  0  0  0  0
    5.7970    0.9500   18.6730 C   0  0  0  0  0  0  0  0  0  0  0  0
    8.3450   -3.3440   25.0980 C   0  0  0  0  0  0  0  0  0  0  0  0
    9.1280   -1.2090   23.4870 C   0  0  0  0  0  0  0  0  0  0  0  0
   13.6261   -1.5933   22.2526 C   0  0  0  0  0  0  0  0  0  0  0  0
    7.2710   -0.1460   19.8310 C   0  0  0  0  0  0  0  0  0  0  0  0
    9.0430    0.2380   21.4940 C   0  0  0  0  0  0  0  0  0  0  0  0
    8.2020   -4.5570   27.2975 C   0  0  0  0  0  0  0  0  0  0  0  0
    7.8876   -6.0892   29.2873 C   0  0  0  0  0  0  0  0  0  0  0  0
   10.7220    0.6590   23.1850 C   0  0  0  0  0  0  0  0  0  0  0  0
    8.0950   -0.7700   20.8440 C   0  0  0  0  0  0  0  0  0  0  0  0
    7.6337   -5.8735   27.8062 C   0  0  0  0  0  0  0  0  0  0  0  0
    6.7100    0.3850   17.8100 N   0  0  0  0  0  0  0  0  0  0  0  0
    7.5840   -0.2700   18.5160 N   0  0  0  0  0  0  0  0  0  0  0  0
    7.9771   -4.4058   25.9196 N   0  0  0  0  0  0  0  0  0  0  0  0
    9.5820   -0.1080   22.7000 N   0  0  0  0  0  0  0  0  0  0  0  0
    9.2950    1.3000   20.9480 O   0  0  0  0  0  0  0  0  0  0  0  0
    8.7738   -3.7653   28.0397 O   0  0  0  0  0  0  0  0  0  0  0  0
   14.2594   -2.3714   20.8543 Cl  0  0  0  0  0  0  0  0  0  0  0  0
    3.6316    2.0634   21.6529 H   0  0  0  0  0  0  0  0  0  0  0  0
    2.9935    2.6871   19.3570 H   0  0  0  0  0  0  0  0  0  0  0  0
   14.2462   -1.2340   25.5766 H   0  0  0  0  0  0  0  0  0  0  0  0
    5.6758    0.7297   22.1281 H   0  0  0  0  0  0  0  0  0  0  0  0
   12.2060    0.1530   25.4088 H   0  0  0  0  0  0  0  0  0  0  0  0
    4.3688    2.0204   17.3972 H   0  0  0  0  0  0  0  0  0  0  0  0
    9.5436   -4.5614   23.7799 H   0  0  0  0  0  0  0  0  0  0  0  0
    7.1918   -1.8823   26.1906 H   0  0  0  0  0  0  0  0  0  0  0  0
   10.2676   -2.6754   22.3861 H   0  0  0  0  0  0  0  0  0  0  0  0
    7.8686   -0.0026   24.7598 H   0  0  0  0  0  0  0  0  0  0  0  0
   15.1613   -2.3520   23.5747 H   0  0  0  0  0  0  0  0  0  0  0  0
   11.9745   -0.6893   21.1973 H   0  0  0  0  0  0  0  0  0  0  0  0
    8.9603   -6.0845   29.5072 H   0  0  0  0  0  0  0  0  0  0  0  0
    7.4771   -7.0516   29.6082 H   0  0  0  0  0  0  0  0  0  0  0  0
    7.4189   -5.3008   29.8855 H   0  0  0  0  0  0  0  0  0  0  0  0
   10.4561    1.0772   24.1620 H   0  0  0  0  0  0  0  0  0  0  0  0
   10.8743    1.5008   22.5014 H   0  0  0  0  0  0  0  0  0  0  0  0
    7.4774   -1.2066   21.6419 H   0  0  0  0  0  0  0  0  0  0  0  0
    8.7084   -1.5788   20.4215 H   0  0  0  0  0  0  0  0  0  0  0  0
    6.5544   -5.8829   27.6153 H   0  0  0  0  0  0  0  0  0  0  0  0
    8.0867   -6.6917   27.2346 H   0  0  0  0  0  0  0  0  0  0  0  0
    8.3291   -0.7564   18.0959 H   0  0  0  0  0  0  0  0  0  0  0  0
    7.4775   -5.1795   25.4660 H   0  0  0  0  0  0  0  0  0  0  0  0
  1  2  1  0  0  0  0
  1  4  2  0  0  0  0
  2  6  2  0  0  0  0
  3  5  2  0  0  0  0
  3 11  1  0  0  0  0
  4 13  1  0  0  0  0
  5 14  1  0  0  0  0
  6 15  1  0  0  0  0
  7  9  2  0  0  0  0
  7 16  1  0  0  0  0
  8 10  1  0  0  0  0
  8 16  2  0  0  0  0
  9 17  1  0  0  0  0
 10 17  2  0  0  0  0
 11 18  2  0  0  0  0
 12 14  2  0  0  0  0
 12 18  1  0  0  0  0
 13 15  1  0  0  0  0
 13 19  2  0  0  0  0
 14 23  1  0  0  0  0
 15 26  2  0  0  0  0
 16 28  1  0  0  0  0
 17 29  1  0  0  0  0
 18 32  1  0  0  0  0
 19 24  1  0  0  0  0
 19 27  1  0  0  0  0
 20 24  1  0  0  0  0
 20 29  1  0  0  0  0
 20 30  2  0  0  0  0
 21 25  1  0  0  0  0
 21 28  1  0  0  0  0
 21 31  2  0  0  0  0
 22 25  1  0  0  0  0
 23 29  1  0  0  0  0
 26 27  1  0  0  0  0
  1 33  1  0  0  0  0
  2 34  1  0  0  0  0
  3 35  1  0  0  0  0
  4 36  1  0  0  0  0
  5 37  1  0  0  0  0
  6 38  1  0  0  0  0
  7 39  1  0  0  0  0
  8 40  1  0  0  0  0
  9 41  1  0  0  0  0
 10 42  1  0  0  0  0
 11 43  1  0  0  0  0
 12 44  1  0  0  0  0
 22 45  1  0  0  0  0
 22 46  1  0  0  0  0
 22 47  1  0  0  0  0
 23 48  1  0  0  0  0
 23 49  1  0  0  0  0
 24 50  1  0  0  0  0
 24 51  1  0  0  0  0
 25 52  1  0  0  0  0
 25 53  1  0  0  0  0
 27 54  1  0  0  0  0
 28 55  1  0  0  0  0
M  END
> <clash_score>
0

> <docking_score>
-9.091264724731445

> <overlap_score>
1.010703444480896

$$$$
BENZO_400_1
  -OEChem-08222022473D

 57 61  0     0  0  0  0  0  0999 V2000
    4.2460    1.7520   20.8250 C   0  0  0  0  0  0  0  0  0  0  0  0
    3.8860    2.1050   19.5250 C   0  0  0  0  0  0  0  0  0  0  0  0
    5.3890    1.0010   21.0690 C   0  0  0  0  0  0  0  0  0  0  0  0
    4.6610    1.7170   18.4380 C   0  0  0  0  0  0  0  0  0  0  0  0
    9.1890   -3.5540   24.0140 C   0  0  0  0  0  0  0  0  0  0  0  0
    7.8700   -2.0610   25.3550 C   0  0  0  0  0  0  0  0  0  0  0  0
    9.5890   -2.4950   23.2210 C   0  0  0  0  0  0  0  0  0  0  0  0
    8.2550   -1.0010   24.5520 C   0  0  0  0  0  0  0  0  0  0  0  0
   12.6785   -0.3936   24.5018 C   0  0  0  0  0  0  0  0  0  0  0  0
   13.7775   -1.2037   24.3186 C   0  0  0  0  0  0  0  0  0  0  0  0
   12.5401   -0.8378   22.2246 C   0  0  0  0  0  0  0  0  0  0  0  0
    6.1460    0.6070   19.9750 C   0  0  0  0  0  0  0  0  0  0  0  0
   11.9616   -0.1817   23.2889 C   0  0  0  0  0  0  0  0  0  0  0  0
    5.7970    0.9500   18.6730 C   0  0  0  0  0  0  0  0  0  0  0  0
    8.3450   -3.3440   25.0980 C   0  0  0  0  0  0  0  0  0  0  0  0
    9.1280   -1.2090   23.4870 C   0  0  0  0  0  0  0  0  0  0  0  0
    7.2710   -0.1460   19.8310 C   0  0  0  0  0  0  0  0  0  0  0  0
    9.0430    0.2380   21.4940 C   0  0  0  0  0  0  0  0  0  0  0  0
    7.5748   -4.8280   28.7278 C   0  0  0  0  0  0  0  0  0  0  0  0
    8.9776   -4.7555   28.1204 C   0  0  0  0  0  0  0  0  0  0  0  0
    6.5554   -4.0713   27.8732 C   0  0  0  0  0  0  0  0  0  0  0  0
    8.9620   -5.1961   26.6568 C   0  0  0  0  0  0  0  0  0  0  0  0
    6.6009   -4.5253   26.4110 C   0  0  0  0  0  0  0  0  0  0  0  0
   10.7220    0.6590   23.1850 C   0  0  0  0  0  0  0  0  0  0  0  0
    8.0950   -0.7700   20.8440 C   0  0  0  0  0  0  0  0  0  0  0  0
    6.7100    0.3850   17.8100 N   0  0  0  0  0  0  0  0  0  0  0  0
    7.5840   -0.2700   18.5160 N   0  0  0  0  0  0  0  0  0  0  0  0
    7.9770   -4.4029   25.9162 N   0  0  0  0  0  0  0  0  0  0  0  0
    9.5820   -0.1080   22.7000 N   0  0  0  0  0  0  0  0  0  0  0  0
    9.2950    1.3000   20.9480 O   0  0  0  0  0  0  0  0  0  0  0  0
   13.9416   -1.7050   22.6894 S   0  0  0  0  0  0  0  0  0  0  0  0
    3.6316    2.0634   21.6529 H   0  0  0  0  0  0  0  0  0  0  0  0
    2.9935    2.6871   19.3570 H   0  0  0  0  0  0  0  0  0  0  0  0
    5.6758    0.7297   22.1281 H   0  0  0  0  0  0  0  0  0  0  0  0
    4.3688    2.0204   17.3972 H   0  0  0  0  0  0  0  0  0  0  0  0
    9.5426   -4.5618   23.7797 H   0  0  0  0  0  0  0  0  0  0  0  0
    7.1914   -1.8824   26.1903 H   0  0  0  0  0  0  0  0  0  0  0  0
   10.2669   -2.6745   22.3854 H   0  0  0  0  0  0  0  0  0  0  0  0
    7.8690   -0.0020   24.7587 H   0  0  0  0  0  0  0  0  0  0  0  0
   12.4058    0.0253   25.4623 H   0  0  0  0  0  0  0  0  0  0  0  0
   14.4923   -1.5245   25.0631 H   0  0  0  0  0  0  0  0  0  0  0  0
   12.2108   -0.8511   21.1948 H   0  0  0  0  0  0  0  0  0  0  0  0
    7.2681   -5.8807   28.8239 H   0  0  0  0  0  0  0  0  0  0  0  0
    7.5891   -4.4101   29.7448 H   0  0  0  0  0  0  0  0  0  0  0  0
    9.3554   -3.7320   28.1920 H   0  0  0  0  0  0  0  0  0  0  0  0
    9.6558   -5.3943   28.6900 H   0  0  0  0  0  0  0  0  0  0  0  0
    5.5496   -4.2322   28.2751 H   0  0  0  0  0  0  0  0  0  0  0  0
    6.7545   -2.9948   27.9293 H   0  0  0  0  0  0  0  0  0  0  0  0
    9.9612   -5.0560   26.2363 H   0  0  0  0  0  0  0  0  0  0  0  0
    8.7097   -6.2583   26.5922 H   0  0  0  0  0  0  0  0  0  0  0  0
    6.2649   -5.5600   26.3335 H   0  0  0  0  0  0  0  0  0  0  0  0
    5.9271   -3.8964   25.8283 H   0  0  0  0  0  0  0  0  0  0  0  0
   10.4561    1.0772   24.1620 H   0  0  0  0  0  0  0  0  0  0  0  0
   10.8743    1.5008   22.5014 H   0  0  0  0  0  0  0  0  0  0  0  0
    7.4659   -1.2025   21.6292 H   0  0  0  0  0  0  0  0  0  0  0  0
    8.6969   -1.5747   20.4087 H   0  0  0  0  0  0  0  0  0  0  0  0
    8.3291   -0.7564   18.0959 H   0  0  0  0  0  0  0  0  0  0  0  0
  1  2  1  0  0  0  0
  1  3  2  0  0  0  0
  2  4  2  0  0  0  0
  3 12  1  0  0  0  0
  4 14  1  0  0  0  0
  5  7  2  0  0  0  0
  5 15  1  0  0  0  0
  6  8  1  0  0  0  0
  6 15  2  0  0  0  0
  7 16  1  0  0  0  0
  8 16  2  0  0  0  0
  9 10  2  0  0  0  0
  9 13  1  0  0  0  0
 10 31  1  0  0  0  0
 11 13  2  0  0  0  0
 11 31  1  0  0  0  0
 12 14  1  0  0  0  0
 12 17  2  0  0  0  0
 13 24  1  0  0  0  0
 14 26  2  0  0  0  0
 15 28  1  0  0  0  0
 16 29  1  0  0  0  0
 17 25  1  0  0  0  0
 17 27  1  0  0  0  0
 18 25  1  0  0  0  0
 18 29  1  0  0  0  0
 18 30  2  0  0  0  0
 19 20  1  0  0  0  0
 19 21  1  0  0  0  0
 20 22  1  0  0  0  0
 21 23  1  0  0  0  0
 22 28  1  0  0  0  0
 23 28  1  0  0  0  0
 24 29  1  0  0  0  0
 26 27  1  0  0  0  0
  1 32  1  0  0  0  0
  2 33  1  0  0  0  0
  3 34  1  0  0  0  0
  4 35  1  0  0  0  0
  5 36  1  0  0  0  0
  6 37  1  0  0  0  0
  7 38  1  0  0  0  0
  8 39  1  0  0  0  0
  9 40  1  0  0  0  0
 10 41  1  0  0  0  0
 11 42  1  0  0  0  0
 19 43  1  0  0  0  0
 19 44  1  0  0  0  0
 20 45  1  0  0  0  0
 20 46  1  0  0  0  0
 21 47  1  0  0  0  0
 21 48  1  0  0  0  0
 22 49  1  0  0  0  0
 22 50  1  0  0  0  0
 23 51  1  0  0  0  0
 23 52  1  0  0  0  0
 24 53  1  0  0  0  0
 24 54  1  0  0  0  0
 25 55  1  0  0  0  0
 25 56  1  0  0  0  0
 27 57  1  0  0  0  0
M  END
> <clash_score>
0

> <docking_score>
-9.938658714294434

> <overlap_score>
0.9766672849655151

$$$$
BENZO_404_1
  -OEChem-08222022473D

 45 48  0     0  0  0  0  0  0999 V2000
    4.2460    1.7520   20.8250 C   0  0  0  0  0  0  0  0  0  0  0  0
    3.8860    2.1050   19.5250 C   0  0  0  0  0  0  0  0  0  0  0  0
    5.3890    1.0010   21.0690 C   0  0  0  0  0  0  0  0  0  0  0  0
    9.1890   -3.5540   24.0140 C   0  0  0  0  0  0  0  0  0  0  0  0
    7.8700   -2.0610   25.3550 C   0  0  0  0  0  0  0  0  0  0  0  0
    4.6610    1.7170   18.4380 C   0  0  0  0  0  0  0  0  0  0  0  0
    9.5890   -2.4950   23.2210 C   0  0  0  0  0  0  0  0  0  0  0  0
    8.2550   -1.0010   24.5520 C   0  0  0  0  0  0  0  0  0  0  0  0
   12.6785   -0.3937   24.5018 C   0  0  0  0  0  0  0  0  0  0  0  0
   13.7775   -1.2037   24.3186 C   0  0  0  0  0  0  0  0  0  0  0  0
   12.5401   -0.8378   22.2246 C   0  0  0  0  0  0  0  0  0  0  0  0
    6.1460    0.6070   19.9750 C   0  0  0  0  0  0  0  0  0  0  0  0
    8.3450   -3.3440   25.0980 C   0  0  0  0  0  0  0  0  0  0  0  0
   11.9616   -0.1817   23.2889 C   0  0  0  0  0  0  0  0  0  0  0  0
    5.7970    0.9500   18.6730 C   0  0  0  0  0  0  0  0  0  0  0  0
    9.1280   -1.2090   23.4870 C   0  0  0  0  0  0  0  0  0  0  0  0
    7.2710   -0.1460   19.8310 C   0  0  0  0  0  0  0  0  0  0  0  0
    9.0430    0.2380   21.4940 C   0  0  0  0  0  0  0  0  0  0  0  0
    7.9522   -4.4794   25.9764 C   0  0  0  0  0  0  0  0  0  0  0  0
   10.7220    0.6590   23.1850 C   0  0  0  0  0  0  0  0  0  0  0  0
    8.0950   -0.7700   20.8440 C   0  0  0  0  0  0  0  0  0  0  0  0
    6.7100    0.3850   17.8100 N   0  0  0  0  0  0  0  0  0  0  0  0
    7.5840   -0.2700   18.5160 N   0  0  0  0  0  0  0  0  0  0  0  0
    9.5820   -0.1080   22.7000 N   0  0  0  0  0  0  0  0  0  0  0  0
    9.2950    1.3000   20.9480 O   0  0  0  0  0  0  0  0  0  0  0  0
   13.9416   -1.7051   22.6894 S   0  0  0  0  0  0  0  0  0  0  0  0
    3.6316    2.0634   21.6529 H   0  0  0  0  0  0  0  0  0  0  0  0
    2.9935    2.6871   19.3570 H   0  0  0  0  0  0  0  0  0  0  0  0
    5.6758    0.7297   22.1281 H   0  0  0  0  0  0  0  0  0  0  0  0
    9.5403   -4.5627   23.7809 H   0  0  0  0  0  0  0  0  0  0  0  0
    7.1911   -1.8848   26.1904 H   0  0  0  0  0  0  0  0  0  0  0  0
    4.3688    2.0204   17.3972 H   0  0  0  0  0  0  0  0  0  0  0  0
   10.2682   -2.6746   22.3865 H   0  0  0  0  0  0  0  0  0  0  0  0
    7.8684   -0.0022   24.7594 H   0  0  0  0  0  0  0  0  0  0  0  0
   12.4058    0.0253   25.4623 H   0  0  0  0  0  0  0  0  0  0  0  0
   14.4923   -1.5246   25.0631 H   0  0  0  0  0  0  0  0  0  0  0  0
   12.2108   -0.8511   21.1948 H   0  0  0  0  0  0  0  0  0  0  0  0
    8.6668   -4.5891   26.8013 H   0  0  0  0  0  0  0  0  0  0  0  0
    6.9513   -4.3276   26.4010 H   0  0  0  0  0  0  0  0  0  0  0  0
    7.9196   -5.4231   25.4163 H   0  0  0  0  0  0  0  0  0  0  0  0
   10.4561    1.0772   24.1620 H   0  0  0  0  0  0  0  0  0  0  0  0
   10.8743    1.5008   22.5014 H   0  0  0  0  0  0  0  0  0  0  0  0
    7.4774   -1.2066   21.6419 H   0  0  0  0  0  0  0  0  0  0  0  0
    8.7084   -1.5788   20.4215 H   0  0  0  0  0  0  0  0  0  0  0  0
    8.3291   -0.7564   18.0959 H   0  0  0  0  0  0  0  0  0  0  0  0
  1  2  1  0  0  0  0
  1  3  2  0  0  0  0
  2  6  2  0  0  0  0
  3 12  1  0  0  0  0
  4  7  2  0  0  0  0
  4 13  1  0  0  0  0
  5  8  1  0  0  0  0
  5 13  2  0  0  0  0
  6 15  1  0  0  0  0
  7 16  1  0  0  0  0
  8 16  2  0  0  0  0
  9 10  2  0  0  0  0
  9 14  1  0  0  0  0
 10 26  1  0  0  0  0
 11 14  2  0  0  0  0
 11 26  1  0  0  0  0
 12 15  1  0  0  0  0
 12 17  2  0  0  0  0
 13 19  1  0  0  0  0
 14 20  1  0  0  0  0
 15 22  2  0  0  0  0
 16 24  1  0  0  0  0
 17 21  1  0  0  0  0
 17 23  1  0  0  0  0
 18 21  1  0  0  0  0
 18 24  1  0  0  0  0
 18 25  2  0  0  0  0
 20 24  1  0  0  0  0
 22 23  1  0  0  0  0
  1 27  1  0  0  0  0
  2 28  1  0  0  0  0
  3 29  1  0  0  0  0
  4 30  1  0  0  0  0
  5 31  1  0  0  0  0
  6 32  1  0  0  0  0
  7 33  1  0  0  0  0
  8 34  1  0  0  0  0
  9 35  1  0  0  0  0
 10 36  1  0  0  0  0
 11 37  1  0  0  0  0
 19 38  1  0  0  0  0
 19 39  1  0  0  0  0
 19 40  1  0  0  0  0
 20 41  1  0  0  0  0
 20 42  1  0  0  0  0
 21 43  1  0  0  0  0
 21 44  1  0  0  0  0
 23 45  1  0  0  0  0
M  END
> <clash_score>
0

> <docking_score>
-9.037541389465332

> <overlap_score>
0.8884324431419373

$$$$
BENZO_405_1
  -OEChem-08222022473D

 48 51  0     0  0  0  0  0  0999 V2000
   14.2641   -1.7450   23.4813 C   0  0  0  0  0  0  0  0  0  0  0  0
    4.2460    1.7520   20.8250 C   0  0  0  0  0  0  0  0  0  0  0  0
   14.0779   -0.6681   24.3480 C   0  0  0  0  0  0  0  0  0  0  0  0
   13.2991   -2.0403   22.5184 C   0  0  0  0  0  0  0  0  0  0  0  0
    3.8860    2.1050   19.5250 C   0  0  0  0  0  0  0  0  0  0  0  0
    5.3890    1.0010   21.0690 C   0  0  0  0  0  0  0  0  0  0  0  0
   12.9266    0.1135   24.2518 C   0  0  0  0  0  0  0  0  0  0  0  0
   12.1478   -1.2587   22.4222 C   0  0  0  0  0  0  0  0  0  0  0  0
    9.1890   -3.5540   24.0140 C   0  0  0  0  0  0  0  0  0  0  0  0
    7.8700   -2.0610   25.3550 C   0  0  0  0  0  0  0  0  0  0  0  0
    4.6610    1.7170   18.4380 C   0  0  0  0  0  0  0  0  0  0  0  0
    9.5890   -2.4950   23.2210 C   0  0  0  0  0  0  0  0  0  0  0  0
    8.2550   -1.0010   24.5520 C   0  0  0  0  0  0  0  0  0  0  0  0
    6.1460    0.6070   19.9750 C   0  0  0  0  0  0  0  0  0  0  0  0
    8.3450   -3.3440   25.0980 C   0  0  0  0  0  0  0  0  0  0  0  0
   11.9616   -0.1817   23.2889 C   0  0  0  0  0  0  0  0  0  0  0  0
    5.7970    0.9500   18.6730 C   0  0  0  0  0  0  0  0  0  0  0  0
    9.1280   -1.2090   23.4870 C   0  0  0  0  0  0  0  0  0  0  0  0
    7.2710   -0.1460   19.8310 C   0  0  0  0  0  0  0  0  0  0  0  0
    9.0430    0.2380   21.4940 C   0  0  0  0  0  0  0  0  0  0  0  0
    7.9522   -4.4794   25.9764 C   0  0  0  0  0  0  0  0  0  0  0  0
   10.7220    0.6590   23.1850 C   0  0  0  0  0  0  0  0  0  0  0  0
    8.0950   -0.7700   20.8440 C   0  0  0  0  0  0  0  0  0  0  0  0
    6.7100    0.3850   17.8100 N   0  0  0  0  0  0  0  0  0  0  0  0
    7.5840   -0.2700   18.5160 N   0  0  0  0  0  0  0  0  0  0  0  0
    9.5820   -0.1080   22.7000 N   0  0  0  0  0  0  0  0  0  0  0  0
    9.2950    1.3000   20.9480 O   0  0  0  0  0  0  0  0  0  0  0  0
   15.1613   -2.3527   23.5555 H   0  0  0  0  0  0  0  0  0  0  0  0
    3.6316    2.0634   21.6529 H   0  0  0  0  0  0  0  0  0  0  0  0
   14.8297   -0.4373   25.0971 H   0  0  0  0  0  0  0  0  0  0  0  0
   13.4443   -2.8780   21.8427 H   0  0  0  0  0  0  0  0  0  0  0  0
    2.9935    2.6871   19.3570 H   0  0  0  0  0  0  0  0  0  0  0  0
    5.6758    0.7297   22.1281 H   0  0  0  0  0  0  0  0  0  0  0  0
   12.7899    0.9506   24.9315 H   0  0  0  0  0  0  0  0  0  0  0  0
   11.4013   -1.4963   21.6690 H   0  0  0  0  0  0  0  0  0  0  0  0
    9.5403   -4.5627   23.7809 H   0  0  0  0  0  0  0  0  0  0  0  0
    7.1911   -1.8848   26.1904 H   0  0  0  0  0  0  0  0  0  0  0  0
    4.3688    2.0204   17.3972 H   0  0  0  0  0  0  0  0  0  0  0  0
   10.2682   -2.6746   22.3865 H   0  0  0  0  0  0  0  0  0  0  0  0
    7.8684   -0.0022   24.7594 H   0  0  0  0  0  0  0  0  0  0  0  0
    8.6668   -4.5891   26.8013 H   0  0  0  0  0  0  0  0  0  0  0  0
    6.9513   -4.3276   26.4010 H   0  0  0  0  0  0  0  0  0  0  0  0
    7.9196   -5.4231   25.4163 H   0  0  0  0  0  0  0  0  0  0  0  0
   10.4561    1.0772   24.1620 H   0  0  0  0  0  0  0  0  0  0  0  0
   10.8743    1.5008   22.5014 H   0  0  0  0  0  0  0  0  0  0  0  0
    7.4774   -1.2066   21.6419 H   0  0  0  0  0  0  0  0  0  0  0  0
    8.7084   -1.5788   20.4215 H   0  0  0  0  0  0  0  0  0  0  0  0
    8.3291   -0.7564   18.0959 H   0  0  0  0  0  0  0  0  0  0  0  0
  1  3  1  0  0  0  0
  1  4  2  0  0  0  0
  2  5  1  0  0  0  0
  2  6  2  0  0  0  0
  3  7  2  0  0  0  0
  4  8  1  0  0  0  0
  5 11  2  0  0  0  0
  6 14  1  0  0  0  0
  7 16  1  0  0  0  0
  8 16  2  0  0  0  0
  9 12  2  0  0  0  0
  9 15  1  0  0  0  0
 10 13  1  0  0  0  0
 10 15  2  0  0  0  0
 11 17  1  0  0  0  0
 12 18  1  0  0  0  0
 13 18  2  0  0  0  0
 14 17  1  0  0  0  0
 14 19  2  0  0  0  0
 15 21  1  0  0  0  0
 16 22  1  0  0  0  0
 17 24  2  0  0  0  0
 18 26  1  0  0  0  0
 19 23  1  0  0  0  0
 19 25  1  0  0  0  0
 20 23  1  0  0  0  0
 20 26  1  0  0  0  0
 20 27  2  0  0  0  0
 22 26  1  0  0  0  0
 24 25  1  0  0  0  0
  1 28  1  0  0  0  0
  2 29  1  0  0  0  0
  3 30  1  0  0  0  0
  4 31  1  0  0  0  0
  5 32  1  0  0  0  0
  6 33  1  0  0  0  0
  7 34  1  0  0  0  0
  8 35  1  0  0  0  0
  9 36  1  0  0  0  0
 10 37  1  0  0  0  0
 11 38  1  0  0  0  0
 12 39  1  0  0  0  0
 13 40  1  0  0  0  0
 21 41  1  0  0  0  0
 21 42  1  0  0  0  0
 21 43  1  0  0  0  0
 22 44  1  0  0  0  0
 22 45  1  0  0  0  0
 23 46  1  0  0  0  0
 23 47  1  0  0  0  0
 25 48  1  0  0  0  0
M  END
> <clash_score>
0

> <docking_score>
-9.596870422363281

> <overlap_score>
0.9021970629692078

$$$$
BENZO_403_1
  -OEChem-08222022473D

 60 64  0     0  0  0  0  0  0999 V2000
    4.2460    1.7520   20.8250 C   0  0  0  0  0  0  0  0  0  0  0  0
    3.8860    2.1050   19.5250 C   0  0  0  0  0  0  0  0  0  0  0  0
    5.3890    1.0010   21.0690 C   0  0  0  0  0  0  0  0  0  0  0  0
    4.6610    1.7170   18.4380 C   0  0  0  0  0  0  0  0  0  0  0  0
    9.1890   -3.5540   24.0140 C   0  0  0  0  0  0  0  0  0  0  0  0
    7.8700   -2.0610   25.3550 C   0  0  0  0  0  0  0  0  0  0  0  0
    9.5890   -2.4950   23.2210 C   0  0  0  0  0  0  0  0  0  0  0  0
    8.2550   -1.0010   24.5520 C   0  0  0  0  0  0  0  0  0  0  0  0
   13.3010    0.2819   23.3762 C   0  0  0  0  0  0  0  0  0  0  0  0
   12.2469   -1.0164   21.9485 C   0  0  0  0  0  0  0  0  0  0  0  0
    6.1460    0.6070   19.9750 C   0  0  0  0  0  0  0  0  0  0  0  0
   12.0277    0.0001   22.8458 C   0  0  0  0  0  0  0  0  0  0  0  0
    5.7970    0.9500   18.6730 C   0  0  0  0  0  0  0  0  0  0  0  0
    8.3450   -3.3440   25.0980 C   0  0  0  0  0  0  0  0  0  0  0  0
    9.1280   -1.2090   23.4870 C   0  0  0  0  0  0  0  0  0  0  0  0
    7.2710   -0.1460   19.8310 C   0  0  0  0  0  0  0  0  0  0  0  0
    9.0430    0.2380   21.4940 C   0  0  0  0  0  0  0  0  0  0  0  0
    7.5748   -4.8280   28.7278 C   0  0  0  0  0  0  0  0  0  0  0  0
    8.9776   -4.7555   28.1204 C   0  0  0  0  0  0  0  0  0  0  0  0
    6.5554   -4.0713   27.8732 C   0  0  0  0  0  0  0  0  0  0  0  0
    8.9620   -5.1961   26.6568 C   0  0  0  0  0  0  0  0  0  0  0  0
    6.6009   -4.5253   26.4110 C   0  0  0  0  0  0  0  0  0  0  0  0
   14.2950   -2.2646   21.2232 C   0  0  0  0  0  0  0  0  0  0  0  0
   10.7220    0.6590   23.1850 C   0  0  0  0  0  0  0  0  0  0  0  0
    8.0950   -0.7700   20.8440 C   0  0  0  0  0  0  0  0  0  0  0  0
   14.2580   -0.4932   22.8591 N   0  0  0  0  0  0  0  0  0  0  0  0
    6.7100    0.3850   17.8100 N   0  0  0  0  0  0  0  0  0  0  0  0
    7.5840   -0.2700   18.5160 N   0  0  0  0  0  0  0  0  0  0  0  0
   13.5858   -1.2720   21.9945 N   0  0  0  0  0  0  0  0  0  0  0  0
    7.9770   -4.4029   25.9162 N   0  0  0  0  0  0  0  0  0  0  0  0
    9.5820   -0.1080   22.7000 N   0  0  0  0  0  0  0  0  0  0  0  0
    9.2950    1.3000   20.9480 O   0  0  0  0  0  0  0  0  0  0  0  0
    3.6316    2.0634   21.6529 H   0  0  0  0  0  0  0  0  0  0  0  0
    2.9935    2.6871   19.3570 H   0  0  0  0  0  0  0  0  0  0  0  0
    5.6758    0.7297   22.1281 H   0  0  0  0  0  0  0  0  0  0  0  0
    4.3688    2.0204   17.3972 H   0  0  0  0  0  0  0  0  0  0  0  0
    9.5426   -4.5618   23.7797 H   0  0  0  0  0  0  0  0  0  0  0  0
    7.1914   -1.8824   26.1903 H   0  0  0  0  0  0  0  0  0  0  0  0
   10.2669   -2.6745   22.3854 H   0  0  0  0  0  0  0  0  0  0  0  0
    7.8690   -0.0020   24.7587 H   0  0  0  0  0  0  0  0  0  0  0  0
   13.5736    1.0185   24.1187 H   0  0  0  0  0  0  0  0  0  0  0  0
   11.5805   -1.5669   21.2983 H   0  0  0  0  0  0  0  0  0  0  0  0
    7.2681   -5.8807   28.8239 H   0  0  0  0  0  0  0  0  0  0  0  0
    7.5891   -4.4101   29.7448 H   0  0  0  0  0  0  0  0  0  0  0  0
    9.3554   -3.7320   28.1920 H   0  0  0  0  0  0  0  0  0  0  0  0
    9.6558   -5.3943   28.6900 H   0  0  0  0  0  0  0  0  0  0  0  0
    5.5496   -4.2322   28.2751 H   0  0  0  0  0  0  0  0  0  0  0  0
    6.7545   -2.9948   27.9293 H   0  0  0  0  0  0  0  0  0  0  0  0
    9.9612   -5.0560   26.2363 H   0  0  0  0  0  0  0  0  0  0  0  0
    8.7097   -6.2583   26.5922 H   0  0  0  0  0  0  0  0  0  0  0  0
    6.2649   -5.5600   26.3335 H   0  0  0  0  0  0  0  0  0  0  0  0
    5.9271   -3.8964   25.8283 H   0  0  0  0  0  0  0  0  0  0  0  0
   14.6200   -1.7975   20.2898 H   0  0  0  0  0  0  0  0  0  0  0  0
   15.1576   -2.6206   21.7932 H   0  0  0  0  0  0  0  0  0  0  0  0
   13.6285   -3.1071   21.0185 H   0  0  0  0  0  0  0  0  0  0  0  0
   10.6163    0.7710   24.2696 H   0  0  0  0  0  0  0  0  0  0  0  0
   10.6620    1.6610   22.7472 H   0  0  0  0  0  0  0  0  0  0  0  0
    7.4659   -1.2025   21.6292 H   0  0  0  0  0  0  0  0  0  0  0  0
    8.6969   -1.5747   20.4087 H   0  0  0  0  0  0  0  0  0  0  0  0
    8.3291   -0.7564   18.0959 H   0  0  0  0  0  0  0  0  0  0  0  0
  1  2  1  0  0  0  0
  1  3  2  0  0  0  0
  2  4  2  0  0  0  0
  3 11  1  0  0  0  0
  4 13  1  0  0  0  0
  5  7  2  0  0  0  0
  5 14  1  0  0  0  0
  6  8  1  0  0  0  0
  6 14  2  0  0  0  0
  7 15  1  0  0  0  0
  8 15  2  0  0  0  0
  9 12  1  0  0  0  0
  9 26  2  0  0  0  0
 10 12  2  0  0  0  0
 10 29  1  0  0  0  0
 11 13  1  0  0  0  0
 11 16  2  0  0  0  0
 12 24  1  0  0  0  0
 13 27  2  0  0  0  0
 14 30  1  0  0  0  0
 15 31  1  0  0  0  0
 16 25  1  0  0  0  0
 16 28  1  0  0  0  0
 17 25  1  0  0  0  0
 17 31  1  0  0  0  0
 17 32  2  0  0  0  0
 18 19  1  0  0  0  0
 18 20  1  0  0  0  0
 19 21  1  0  0  0  0
 20 22  1  0  0  0  0
 21 30  1  0  0  0  0
 22 30  1  0  0  0  0
 23 29  1  0  0  0  0
 24 31  1  0  0  0  0
 26 29  1  0  0  0  0
 27 28  1  0  0  0  0
  1 33  1  0  0  0  0
  2 34  1  0  0  0  0
  3 35  1  0  0  0  0
  4 36  1  0  0  0  0
  5 37  1  0  0  0  0
  6 38  1  0  0  0  0
  7 39  1  0  0  0  0
  8 40  1  0  0  0  0
  9 41  1  0  0  0  0
 10 42  1  0  0  0  0
 18 43  1  0  0  0  0
 18 44  1  0  0  0  0
 19 45  1  0  0  0  0
 19 46  1  0  0  0  0
 20 47  1  0  0  0  0
 20 48  1  0  0  0  0
 21 49  1  0  0  0  0
 21 50  1  0  0  0  0
 22 51  1  0  0  0  0
 22 52  1  0  0  0  0
 23 53  1  0  0  0  0
 23 54  1  0  0  0  0
 23 55  1  0  0  0  0
 24 56  1  0  0  0  0
 24 57  1  0  0  0  0
 25 58  1  0  0  0  0
 25 59  1  0  0  0  0
 28 60  1  0  0  0  0
M  END
> <clash_score>
0

> <docking_score>
-9.941932678222656

> <overlap_score>
0.9690293669700623

$$$$
BENZO_402_1
  -OEChem-08222022473D

 60 64  0     0  0  0  0  0  0999 V2000
    4.2460    1.7520   20.8250 C   0  0  0  0  0  0  0  0  0  0  0  0
    3.8860    2.1050   19.5250 C   0  0  0  0  0  0  0  0  0  0  0  0
   13.7501   -1.1157   24.6177 C   0  0  0  0  0  0  0  0  0  0  0  0
    5.3890    1.0010   21.0690 C   0  0  0  0  0  0  0  0  0  0  0  0
   12.5991   -0.3338   24.5202 C   0  0  0  0  0  0  0  0  0  0  0  0
    4.6610    1.7170   18.4380 C   0  0  0  0  0  0  0  0  0  0  0  0
    9.1890   -3.5540   24.0140 C   0  0  0  0  0  0  0  0  0  0  0  0
    7.8700   -2.0610   25.3550 C   0  0  0  0  0  0  0  0  0  0  0  0
    9.5890   -2.4950   23.2210 C   0  0  0  0  0  0  0  0  0  0  0  0
    8.2550   -1.0010   24.5520 C   0  0  0  0  0  0  0  0  0  0  0  0
   14.2636   -1.7454   23.4838 C   0  0  0  0  0  0  0  0  0  0  0  0
   12.4750   -0.8115   22.1551 C   0  0  0  0  0  0  0  0  0  0  0  0
    6.1460    0.6070   19.9750 C   0  0  0  0  0  0  0  0  0  0  0  0
   11.9616   -0.1817   23.2889 C   0  0  0  0  0  0  0  0  0  0  0  0
    5.7970    0.9500   18.6730 C   0  0  0  0  0  0  0  0  0  0  0  0
    8.3450   -3.3440   25.0980 C   0  0  0  0  0  0  0  0  0  0  0  0
    9.1280   -1.2090   23.4870 C   0  0  0  0  0  0  0  0  0  0  0  0
   13.6261   -1.5933   22.2526 C   0  0  0  0  0  0  0  0  0  0  0  0
    7.2710   -0.1460   19.8310 C   0  0  0  0  0  0  0  0  0  0  0  0
    9.0430    0.2380   21.4940 C   0  0  0  0  0  0  0  0  0  0  0  0
    7.5748   -4.8280   28.7278 C   0  0  0  0  0  0  0  0  0  0  0  0
    8.9776   -4.7555   28.1204 C   0  0  0  0  0  0  0  0  0  0  0  0
    6.5554   -4.0713   27.8732 C   0  0  0  0  0  0  0  0  0  0  0  0
    8.9620   -5.1961   26.6568 C   0  0  0  0  0  0  0  0  0  0  0  0
    6.6009   -4.5253   26.4110 C   0  0  0  0  0  0  0  0  0  0  0  0
   10.7220    0.6590   23.1850 C   0  0  0  0  0  0  0  0  0  0  0  0
    8.0950   -0.7700   20.8440 C   0  0  0  0  0  0  0  0  0  0  0  0
    6.7100    0.3850   17.8100 N   0  0  0  0  0  0  0  0  0  0  0  0
    7.5840   -0.2700   18.5160 N   0  0  0  0  0  0  0  0  0  0  0  0
    7.9770   -4.4029   25.9162 N   0  0  0  0  0  0  0  0  0  0  0  0
    9.5820   -0.1080   22.7000 N   0  0  0  0  0  0  0  0  0  0  0  0
    9.2950    1.3000   20.9480 O   0  0  0  0  0  0  0  0  0  0  0  0
   14.2594   -2.3714   20.8543 Cl  0  0  0  0  0  0  0  0  0  0  0  0
    3.6316    2.0634   21.6529 H   0  0  0  0  0  0  0  0  0  0  0  0
    2.9935    2.6871   19.3570 H   0  0  0  0  0  0  0  0  0  0  0  0
   14.2462   -1.2340   25.5766 H   0  0  0  0  0  0  0  0  0  0  0  0
    5.6758    0.7297   22.1281 H   0  0  0  0  0  0  0  0  0  0  0  0
   12.2060    0.1530   25.4088 H   0  0  0  0  0  0  0  0  0  0  0  0
    4.3688    2.0204   17.3972 H   0  0  0  0  0  0  0  0  0  0  0  0
    9.5426   -4.5618   23.7797 H   0  0  0  0  0  0  0  0  0  0  0  0
    7.1914   -1.8824   26.1903 H   0  0  0  0  0  0  0  0  0  0  0  0
   10.2669   -2.6745   22.3854 H   0  0  0  0  0  0  0  0  0  0  0  0
    7.8690   -0.0020   24.7587 H   0  0  0  0  0  0  0  0  0  0  0  0
   15.1613   -2.3520   23.5747 H   0  0  0  0  0  0  0  0  0  0  0  0
   11.9745   -0.6893   21.1973 H   0  0  0  0  0  0  0  0  0  0  0  0
    7.2681   -5.8807   28.8239 H   0  0  0  0  0  0  0  0  0  0  0  0
    7.5891   -4.4101   29.7448 H   0  0  0  0  0  0  0  0  0  0  0  0
    9.3554   -3.7320   28.1920 H   0  0  0  0  0  0  0  0  0  0  0  0
    9.6558   -5.3943   28.6900 H   0  0  0  0  0  0  0  0  0  0  0  0
    5.5496   -4.2322   28.2751 H   0  0  0  0  0  0  0  0  0  0  0  0
    6.7545   -2.9948   27.9293 H   0  0  0  0  0  0  0  0  0  0  0  0
    9.9612   -5.0560   26.2363 H   0  0  0  0  0  0  0  0  0  0  0  0
    8.7097   -6.2583   26.5922 H   0  0  0  0  0  0  0  0  0  0  0  0
    6.2649   -5.5600   26.3335 H   0  0  0  0  0  0  0  0  0  0  0  0
    5.9271   -3.8964   25.8283 H   0  0  0  0  0  0  0  0  0  0  0  0
   10.4561    1.0772   24.1620 H   0  0  0  0  0  0  0  0  0  0  0  0
   10.8743    1.5008   22.5014 H   0  0  0  0  0  0  0  0  0  0  0  0
    7.4659   -1.2025   21.6292 H   0  0  0  0  0  0  0  0  0  0  0  0
    8.6969   -1.5747   20.4087 H   0  0  0  0  0  0  0  0  0  0  0  0
    8.3291   -0.7564   18.0959 H   0  0  0  0  0  0  0  0  0  0  0  0
  1  2  1  0  0  0  0
  1  4  2  0  0  0  0
  2  6  2  0  0  0  0
  3  5  2  0  0  0  0
  3 11  1  0  0  0  0
  4 13  1  0  0  0  0
  5 14  1  0  0  0  0
  6 15  1  0  0  0  0
  7  9  2  0  0  0  0
  7 16  1  0  0  0  0
  8 10  1  0  0  0  0
  8 16  2  0  0  0  0
  9 17  1  0  0  0  0
 10 17  2  0  0  0  0
 11 18  2  0  0  0  0
 12 14  2  0  0  0  0
 12 18  1  0  0  0  0
 13 15  1  0  0  0  0
 13 19  2  0  0  0  0
 14 26  1  0  0  0  0
 15 28  2  0  0  0  0
 16 30  1  0  0  0  0
 17 31  1  0  0  0  0
 18 33  1  0  0  0  0
 19 27  1  0  0  0  0
 19 29  1  0  0  0  0
 20 27  1  0  0  0  0
 20 31  1  0  0  0  0
 20 32  2  0  0  0  0
 21 22  1  0  0  0  0
 21 23  1  0  0  0  0
 22 24  1  0  0  0  0
 23 25  1  0  0  0  0
 24 30  1  0  0  0  0
 25 30  1  0  0  0  0
 26 31  1  0  0  0  0
 28 29  1  0  0  0  0
  1 34  1  0  0  0  0
  2 35  1  0  0  0  0
  3 36  1  0  0  0  0
  4 37  1  0  0  0  0
  5 38  1  0  0  0  0
  6 39  1  0  0  0  0
  7 40  1  0  0  0  0
  8 41  1  0  0  0  0
  9 42  1  0  0  0  0
 10 43  1  0  0  0  0
 11 44  1  0  0  0  0
 12 45  1  0  0  0  0
 21 46  1  0  0  0  0
 21 47  1  0  0  0  0
 22 48  1  0  0  0  0
 22 49  1  0  0  0  0
 23 50  1  0  0  0  0
 23 51  1  0  0  0  0
 24 52  1  0  0  0  0
 24 53  1  0  0  0  0
 25 54  1  0  0  0  0
 25 55  1  0  0  0  0
 26 56  1  0  0  0  0
 26 57  1  0  0  0  0
 27 58  1  0  0  0  0
 27 59  1  0  0  0  0
 29 60  1  0  0  0  0
M  END
> <clash_score>
0

> <docking_score>
-9.451852798461914

> <overlap_score>
0.9978207945823669

$$$$
BENZO_407_1
  -OEChem-08222022473D

 48 51  0     0  0  0  0  0  0999 V2000
    4.2460    1.7520   20.8250 C   0  0  0  0  0  0  0  0  0  0  0  0
    3.8860    2.1050   19.5250 C   0  0  0  0  0  0  0  0  0  0  0  0
    5.3890    1.0010   21.0690 C   0  0  0  0  0  0  0  0  0  0  0  0
    9.1890   -3.5540   24.0140 C   0  0  0  0  0  0  0  0  0  0  0  0
    7.8700   -2.0610   25.3550 C   0  0  0  0  0  0  0  0  0  0  0  0
    4.6610    1.7170   18.4380 C   0  0  0  0  0  0  0  0  0  0  0  0
    9.5890   -2.4950   23.2210 C   0  0  0  0  0  0  0  0  0  0  0  0
    8.2550   -1.0010   24.5520 C   0  0  0  0  0  0  0  0  0  0  0  0
   12.7320   -0.4464   24.4370 C   0  0  0  0  0  0  0  0  0  0  0  0
   12.5970   -0.8682   22.2832 C   0  0  0  0  0  0  0  0  0  0  0  0
    6.1460    0.6070   19.9750 C   0  0  0  0  0  0  0  0  0  0  0  0
    8.3450   -3.3440   25.0980 C   0  0  0  0  0  0  0  0  0  0  0  0
   11.9616   -0.1817   23.2889 C   0  0  0  0  0  0  0  0  0  0  0  0
    5.7970    0.9500   18.6730 C   0  0  0  0  0  0  0  0  0  0  0  0
    9.1280   -1.2090   23.4870 C   0  0  0  0  0  0  0  0  0  0  0  0
    7.2710   -0.1460   19.8310 C   0  0  0  0  0  0  0  0  0  0  0  0
    9.0430    0.2380   21.4940 C   0  0  0  0  0  0  0  0  0  0  0  0
    7.9522   -4.4794   25.9764 C   0  0  0  0  0  0  0  0  0  0  0  0
   14.6393   -2.3180   22.2082 C   0  0  0  0  0  0  0  0  0  0  0  0
   10.7220    0.6590   23.1850 C   0  0  0  0  0  0  0  0  0  0  0  0
    8.0950   -0.7700   20.8440 C   0  0  0  0  0  0  0  0  0  0  0  0
   13.7770   -1.2393   24.1852 N   0  0  0  0  0  0  0  0  0  0  0  0
    6.7100    0.3850   17.8100 N   0  0  0  0  0  0  0  0  0  0  0  0
    7.5840   -0.2700   18.5160 N   0  0  0  0  0  0  0  0  0  0  0  0
   13.6676   -1.4788   22.8673 N   0  0  0  0  0  0  0  0  0  0  0  0
    9.5820   -0.1080   22.7000 N   0  0  0  0  0  0  0  0  0  0  0  0
    9.2950    1.3000   20.9480 O   0  0  0  0  0  0  0  0  0  0  0  0
    3.6316    2.0634   21.6529 H   0  0  0  0  0  0  0  0  0  0  0  0
    2.9935    2.6871   19.3570 H   0  0  0  0  0  0  0  0  0  0  0  0
    5.6758    0.7297   22.1281 H   0  0  0  0  0  0  0  0  0  0  0  0
    9.5403   -4.5627   23.7809 H   0  0  0  0  0  0  0  0  0  0  0  0
    7.1911   -1.8848   26.1904 H   0  0  0  0  0  0  0  0  0  0  0  0
    4.3688    2.0204   17.3972 H   0  0  0  0  0  0  0  0  0  0  0  0
   10.2682   -2.6746   22.3865 H   0  0  0  0  0  0  0  0  0  0  0  0
    7.8684   -0.0022   24.7594 H   0  0  0  0  0  0  0  0  0  0  0  0
   12.5771   -0.0965   25.4478 H   0  0  0  0  0  0  0  0  0  0  0  0
   12.3832   -0.9726   21.2281 H   0  0  0  0  0  0  0  0  0  0  0  0
    8.6668   -4.5891   26.8013 H   0  0  0  0  0  0  0  0  0  0  0  0
    6.9513   -4.3276   26.4010 H   0  0  0  0  0  0  0  0  0  0  0  0
    7.9196   -5.4231   25.4163 H   0  0  0  0  0  0  0  0  0  0  0  0
   15.4522   -1.6787   21.8540 H   0  0  0  0  0  0  0  0  0  0  0  0
   15.0179   -3.0612   22.9154 H   0  0  0  0  0  0  0  0  0  0  0  0
   14.1626   -2.8324   21.3691 H   0  0  0  0  0  0  0  0  0  0  0  0
   10.4561    1.0772   24.1620 H   0  0  0  0  0  0  0  0  0  0  0  0
   10.8743    1.5008   22.5014 H   0  0  0  0  0  0  0  0  0  0  0  0
    7.4774   -1.2066   21.6419 H   0  0  0  0  0  0  0  0  0  0  0  0
    8.7084   -1.5788   20.4215 H   0  0  0  0  0  0  0  0  0  0  0  0
    8.3291   -0.7564   18.0959 H   0  0  0  0  0  0  0  0  0  0  0  0
  1  2  1  0  0  0  0
  1  3  2  0  0  0  0
  2  6  2  0  0  0  0
  3 11  1  0  0  0  0
  4  7  2  0  0  0  0
  4 12  1  0  0  0  0
  5  8  1  0  0  0  0
  5 12  2  0  0  0  0
  6 14  1  0  0  0  0
  7 15  1  0  0  0  0
  8 15  2  0  0  0  0
  9 13  1  0  0  0  0
  9 22  2  0  0  0  0
 10 13  2  0  0  0  0
 10 25  1  0  0  0  0
 11 14  1  0  0  0  0
 11 16  2  0  0  0  0
 12 18  1  0  0  0  0
 13 20  1  0  0  0  0
 14 23  2  0  0  0  0
 15 26  1  0  0  0  0
 16 21  1  0  0  0  0
 16 24  1  0  0  0  0
 17 21  1  0  0  0  0
 17 26  1  0  0  0  0
 17 27  2  0  0  0  0
 19 25  1  0  0  0  0
 20 26  1  0  0  0  0
 22 25  1  0  0  0  0
 23 24  1  0  0  0  0
  1 28  1  0  0  0  0
  2 29  1  0  0  0  0
  3 30  1  0  0  0  0
  4 31  1  0  0  0  0
  5 32  1  0  0  0  0
  6 33  1  0  0  0  0
  7 34  1  0  0  0  0
  8 35  1  0  0  0  0
  9 36  1  0  0  0  0
 10 37  1  0  0  0  0
 18 38  1  0  0  0  0
 18 39  1  0  0  0  0
 18 40  1  0  0  0  0
 19 41  1  0  0  0  0
 19 42  1  0  0  0  0
 19 43  1  0  0  0  0
 20 44  1  0  0  0  0
 20 45  1  0  0  0  0
 21 46  1  0  0  0  0
 21 47  1  0  0  0  0
 24 48  1  0  0  0  0
M  END
> <clash_score>
0

> <docking_score>
-7.786764144897461

> <overlap_score>
0.9054273366928101

$$$$
BENZO_409_1
  -OEChem-08222022473D

 49 52  0     0  0  0  0  0  0999 V2000
   14.2641   -1.7450   23.4813 C   0  0  0  0  0  0  0  0  0  0  0  0
    4.2460    1.7520   20.8250 C   0  0  0  0  0  0  0  0  0  0  0  0
   14.0779   -0.6681   24.3480 C   0  0  0  0  0  0  0  0  0  0  0  0
   13.2991   -2.0403   22.5184 C   0  0  0  0  0  0  0  0  0  0  0  0
    3.8860    2.1050   19.5250 C   0  0  0  0  0  0  0  0  0  0  0  0
    5.3890    1.0010   21.0690 C   0  0  0  0  0  0  0  0  0  0  0  0
   12.9266    0.1135   24.2518 C   0  0  0  0  0  0  0  0  0  0  0  0
   12.1478   -1.2587   22.4222 C   0  0  0  0  0  0  0  0  0  0  0  0
    4.6610    1.7170   18.4380 C   0  0  0  0  0  0  0  0  0  0  0  0
    9.5890   -2.4950   23.2210 C   0  0  0  0  0  0  0  0  0  0  0  0
    8.2550   -1.0010   24.5520 C   0  0  0  0  0  0  0  0  0  0  0  0
    9.1890   -3.5540   24.0140 C   0  0  0  0  0  0  0  0  0  0  0  0
    7.8700   -2.0610   25.3550 C   0  0  0  0  0  0  0  0  0  0  0  0
    6.1460    0.6070   19.9750 C   0  0  0  0  0  0  0  0  0  0  0  0
   11.9616   -0.1817   23.2889 C   0  0  0  0  0  0  0  0  0  0  0  0
    5.7970    0.9500   18.6730 C   0  0  0  0  0  0  0  0  0  0  0  0
    9.1280   -1.2090   23.4870 C   0  0  0  0  0  0  0  0  0  0  0  0
    8.3450   -3.3440   25.0980 C   0  0  0  0  0  0  0  0  0  0  0  0
    7.2710   -0.1460   19.8310 C   0  0  0  0  0  0  0  0  0  0  0  0
    9.0430    0.2380   21.4940 C   0  0  0  0  0  0  0  0  0  0  0  0
    8.5126   -5.6654   25.5739 C   0  0  0  0  0  0  0  0  0  0  0  0
   10.7220    0.6590   23.1850 C   0  0  0  0  0  0  0  0  0  0  0  0
    8.0950   -0.7700   20.8440 C   0  0  0  0  0  0  0  0  0  0  0  0
    6.7100    0.3850   17.8100 N   0  0  0  0  0  0  0  0  0  0  0  0
    7.5840   -0.2700   18.5160 N   0  0  0  0  0  0  0  0  0  0  0  0
    9.5820   -0.1080   22.7000 N   0  0  0  0  0  0  0  0  0  0  0  0
    9.2950    1.3000   20.9480 O   0  0  0  0  0  0  0  0  0  0  0  0
    7.9864   -4.3799   25.8996 O   0  0  0  0  0  0  0  0  0  0  0  0
   15.1613   -2.3527   23.5555 H   0  0  0  0  0  0  0  0  0  0  0  0
    3.6316    2.0634   21.6529 H   0  0  0  0  0  0  0  0  0  0  0  0
   14.8297   -0.4373   25.0971 H   0  0  0  0  0  0  0  0  0  0  0  0
   13.4443   -2.8780   21.8427 H   0  0  0  0  0  0  0  0  0  0  0  0
    2.9935    2.6871   19.3570 H   0  0  0  0  0  0  0  0  0  0  0  0
    5.6758    0.7297   22.1281 H   0  0  0  0  0  0  0  0  0  0  0  0
   12.7899    0.9506   24.9315 H   0  0  0  0  0  0  0  0  0  0  0  0
   11.4013   -1.4963   21.6690 H   0  0  0  0  0  0  0  0  0  0  0  0
    4.3688    2.0204   17.3972 H   0  0  0  0  0  0  0  0  0  0  0  0
   10.2678   -2.6746   22.3862 H   0  0  0  0  0  0  0  0  0  0  0  0
    7.8691   -0.0023   24.7606 H   0  0  0  0  0  0  0  0  0  0  0  0
    9.5404   -4.5633   23.7846 H   0  0  0  0  0  0  0  0  0  0  0  0
    7.1920   -1.8875   26.1914 H   0  0  0  0  0  0  0  0  0  0  0  0
    8.1472   -6.4025   26.2932 H   0  0  0  0  0  0  0  0  0  0  0  0
    9.6047   -5.6294   25.5960 H   0  0  0  0  0  0  0  0  0  0  0  0
    8.1794   -5.9422   24.5709 H   0  0  0  0  0  0  0  0  0  0  0  0
   10.4561    1.0772   24.1620 H   0  0  0  0  0  0  0  0  0  0  0  0
   10.8743    1.5008   22.5014 H   0  0  0  0  0  0  0  0  0  0  0  0
    7.4774   -1.2066   21.6419 H   0  0  0  0  0  0  0  0  0  0  0  0
    8.7084   -1.5788   20.4215 H   0  0  0  0  0  0  0  0  0  0  0  0
    8.3291   -0.7564   18.0959 H   0  0  0  0  0  0  0  0  0  0  0  0
  1  3  1  0  0  0  0
  1  4  2  0  0  0  0
  2  5  1  0  0  0  0
  2  6  2  0  0  0  0
  3  7  2  0  0  0  0
  4  8  1  0  0  0  0
  5  9  2  0  0  0  0
  6 14  1  0  0  0  0
  7 15  1  0  0  0  0
  8 15  2  0  0  0  0
  9 16  1  0  0  0  0
 10 12  2  0  0  0  0
 10 17  1  0  0  0  0
 11 13  1  0  0  0  0
 11 17  2  0  0  0  0
 12 18  1  0  0  0  0
 13 18  2  0  0  0  0
 14 16  1  0  0  0  0
 14 19  2  0  0  0  0
 15 22  1  0  0  0  0
 16 24  2  0  0  0  0
 17 26  1  0  0  0  0
 18 28  1  0  0  0  0
 19 23  1  0  0  0  0
 19 25  1  0  0  0  0
 20 23  1  0  0  0  0
 20 26  1  0  0  0  0
 20 27  2  0  0  0  0
 21 28  1  0  0  0  0
 22 26  1  0  0  0  0
 24 25  1  0  0  0  0
  1 29  1  0  0  0  0
  2 30  1  0  0  0  0
  3 31  1  0  0  0  0
  4 32  1  0  0  0  0
  5 33  1  0  0  0  0
  6 34  1  0  0  0  0
  7 35  1  0  0  0  0
  8 36  1  0  0  0  0
  9 37  1  0  0  0  0
 10 38  1  0  0  0  0
 11 39  1  0  0  0  0
 12 40  1  0  0  0  0
 13 41  1  0  0  0  0
 21 42  1  0  0  0  0
 21 43  1  0  0  0  0
 21 44  1  0  0  0  0
 22 45  1  0  0  0  0
 22 46  1  0  0  0  0
 23 47  1  0  0  0  0
 23 48  1  0  0  0  0
 25 49  1  0  0  0  0
M  END
> <clash_score>
0

> <docking_score>
-9.71718692779541

> <overlap_score>
0.9154614210128784

$$$$
BENZO_406_1
  -OEChem-08222022473D

 48 51  0     0  0  0  0  0  0999 V2000
    4.2460    1.7520   20.8250 C   0  0  0  0  0  0  0  0  0  0  0  0
    3.8860    2.1050   19.5250 C   0  0  0  0  0  0  0  0  0  0  0  0
   13.7501   -1.1157   24.6176 C   0  0  0  0  0  0  0  0  0  0  0  0
    5.3890    1.0010   21.0690 C   0  0  0  0  0  0  0  0  0  0  0  0
   12.5991   -0.3339   24.5202 C   0  0  0  0  0  0  0  0  0  0  0  0
    9.1890   -3.5540   24.0140 C   0  0  0  0  0  0  0  0  0  0  0  0
    7.8700   -2.0610   25.3550 C   0  0  0  0  0  0  0  0  0  0  0  0
    4.6610    1.7170   18.4380 C   0  0  0  0  0  0  0  0  0  0  0  0
    9.5890   -2.4950   23.2210 C   0  0  0  0  0  0  0  0  0  0  0  0
    8.2550   -1.0010   24.5520 C   0  0  0  0  0  0  0  0  0  0  0  0
   14.2636   -1.7454   23.4838 C   0  0  0  0  0  0  0  0  0  0  0  0
   12.4750   -0.8115   22.1551 C   0  0  0  0  0  0  0  0  0  0  0  0
    6.1460    0.6070   19.9750 C   0  0  0  0  0  0  0  0  0  0  0  0
    8.3450   -3.3440   25.0980 C   0  0  0  0  0  0  0  0  0  0  0  0
   11.9616   -0.1817   23.2889 C   0  0  0  0  0  0  0  0  0  0  0  0
    5.7970    0.9500   18.6730 C   0  0  0  0  0  0  0  0  0  0  0  0
    9.1280   -1.2090   23.4870 C   0  0  0  0  0  0  0  0  0  0  0  0
   13.6261   -1.5933   22.2526 C   0  0  0  0  0  0  0  0  0  0  0  0
    7.2710   -0.1460   19.8310 C   0  0  0  0  0  0  0  0  0  0  0  0
    9.0430    0.2380   21.4940 C   0  0  0  0  0  0  0  0  0  0  0  0
    7.9522   -4.4794   25.9764 C   0  0  0  0  0  0  0  0  0  0  0  0
   10.7220    0.6590   23.1850 C   0  0  0  0  0  0  0  0  0  0  0  0
    8.0950   -0.7700   20.8440 C   0  0  0  0  0  0  0  0  0  0  0  0
    6.7100    0.3850   17.8100 N   0  0  0  0  0  0  0  0  0  0  0  0
    7.5840   -0.2700   18.5160 N   0  0  0  0  0  0  0  0  0  0  0  0
    9.5820   -0.1080   22.7000 N   0  0  0  0  0  0  0  0  0  0  0  0
    9.2950    1.3000   20.9480 O   0  0  0  0  0  0  0  0  0  0  0  0
   14.2594   -2.3714   20.8543 Cl  0  0  0  0  0  0  0  0  0  0  0  0
    3.6316    2.0634   21.6529 H   0  0  0  0  0  0  0  0  0  0  0  0
    2.9935    2.6871   19.3570 H   0  0  0  0  0  0  0  0  0  0  0  0
   14.2462   -1.2340   25.5766 H   0  0  0  0  0  0  0  0  0  0  0  0
    5.6758    0.7297   22.1281 H   0  0  0  0  0  0  0  0  0  0  0  0
   12.2060    0.1530   25.4088 H   0  0  0  0  0  0  0  0  0  0  0  0
    9.5403   -4.5627   23.7809 H   0  0  0  0  0  0  0  0  0  0  0  0
    7.1911   -1.8848   26.1904 H   0  0  0  0  0  0  0  0  0  0  0  0
    4.3688    2.0204   17.3972 H   0  0  0  0  0  0  0  0  0  0  0  0
   10.2682   -2.6746   22.3865 H   0  0  0  0  0  0  0  0  0  0  0  0
    7.8684   -0.0022   24.7594 H   0  0  0  0  0  0  0  0  0  0  0  0
   15.1613   -2.3520   23.5747 H   0  0  0  0  0  0  0  0  0  0  0  0
   11.9745   -0.6893   21.1973 H   0  0  0  0  0  0  0  0  0  0  0  0
    8.6668   -4.5891   26.8013 H   0  0  0  0  0  0  0  0  0  0  0  0
    6.9513   -4.3276   26.4010 H   0  0  0  0  0  0  0  0  0  0  0  0
    7.9196   -5.4231   25.4163 H   0  0  0  0  0  0  0  0  0  0  0  0
   10.4561    1.0772   24.1620 H   0  0  0  0  0  0  0  0  0  0  0  0
   10.8743    1.5008   22.5014 H   0  0  0  0  0  0  0  0  0  0  0  0
    7.4774   -1.2066   21.6419 H   0  0  0  0  0  0  0  0  0  0  0  0
    8.7084   -1.5788   20.4215 H   0  0  0  0  0  0  0  0  0  0  0  0
    8.3291   -0.7564   18.0959 H   0  0  0  0  0  0  0  0  0  0  0  0
  1  2  1  0  0  0  0
  1  4  2  0  0  0  0
  2  8  2  0  0  0  0
  3  5  2  0  0  0  0
  3 11  1  0  0  0  0
  4 13  1  0  0  0  0
  5 15  1  0  0  0  0
  6  9  2  0  0  0  0
  6 14  1  0  0  0  0
  7 10  1  0  0  0  0
  7 14  2  0  0  0  0
  8 16  1  0  0  0  0
  9 17  1  0  0  0  0
 10 17  2  0  0  0  0
 11 18  2  0  0  0  0
 12 15  2  0  0  0  0
 12 18  1  0  0  0  0
 13 16  1  0  0  0  0
 13 19  2  0  0  0  0
 14 21  1  0  0  0  0
 15 22  1  0  0  0  0
 16 24  2  0  0  0  0
 17 26  1  0  0  0  0
 18 28  1  0  0  0  0
 19 23  1  0  0  0  0
 19 25  1  0  0  0  0
 20 23  1  0  0  0  0
 20 26  1  0  0  0  0
 20 27  2  0  0  0  0
 22 26  1  0  0  0  0
 24 25  1  0  0  0  0
  1 29  1  0  0  0  0
  2 30  1  0  0  0  0
  3 31  1  0  0  0  0
  4 32  1  0  0  0  0
  5 33  1  0  0  0  0
  6 34  1  0  0  0  0
  7 35  1  0  0  0  0
  8 36  1  0  0  0  0
  9 37  1  0  0  0  0
 10 38  1  0  0  0  0
 11 39  1  0  0  0  0
 12 40  1  0  0  0  0
 21 41  1  0  0  0  0
 21 42  1  0  0  0  0
 21 43  1  0  0  0  0
 22 44  1  0  0  0  0
 22 45  1  0  0  0  0
 23 46  1  0  0  0  0
 23 47  1  0  0  0  0
 25 48  1  0  0  0  0
M  END
> <clash_score>
0

> <docking_score>
-8.550735473632812

> <overlap_score>
0.9100707173347473

$$$$
BENZO_408_1
  -OEChem-08222022473D

 46 49  0     0  0  0  0  0  0999 V2000
    4.2460    1.7520   20.8250 C   0  0  0  0  0  0  0  0  0  0  0  0
    3.8860    2.1050   19.5250 C   0  0  0  0  0  0  0  0  0  0  0  0
    5.3890    1.0010   21.0690 C   0  0  0  0  0  0  0  0  0  0  0  0
    4.6610    1.7170   18.4380 C   0  0  0  0  0  0  0  0  0  0  0  0
    9.5890   -2.4950   23.2210 C   0  0  0  0  0  0  0  0  0  0  0  0
    8.2550   -1.0010   24.5520 C   0  0  0  0  0  0  0  0  0  0  0  0
    9.1890   -3.5540   24.0140 C   0  0  0  0  0  0  0  0  0  0  0  0
    7.8700   -2.0610   25.3550 C   0  0  0  0  0  0  0  0  0  0  0  0
   12.5566   -0.8597   22.1860 C   0  0  0  0  0  0  0  0  0  0  0  0
   13.6839   -1.5596   22.5559 C   0  0  0  0  0  0  0  0  0  0  0  0
   12.6568   -0.3896   24.4600 C   0  0  0  0  0  0  0  0  0  0  0  0
    6.1460    0.6070   19.9750 C   0  0  0  0  0  0  0  0  0  0  0  0
   11.9616   -0.1817   23.2889 C   0  0  0  0  0  0  0  0  0  0  0  0
    5.7970    0.9500   18.6730 C   0  0  0  0  0  0  0  0  0  0  0  0
    9.1280   -1.2090   23.4870 C   0  0  0  0  0  0  0  0  0  0  0  0
    8.3450   -3.3440   25.0980 C   0  0  0  0  0  0  0  0  0  0  0  0
    7.2710   -0.1460   19.8310 C   0  0  0  0  0  0  0  0  0  0  0  0
    9.0430    0.2380   21.4940 C   0  0  0  0  0  0  0  0  0  0  0  0
    8.5126   -5.6654   25.5739 C   0  0  0  0  0  0  0  0  0  0  0  0
   10.7220    0.6590   23.1850 C   0  0  0  0  0  0  0  0  0  0  0  0
    8.0950   -0.7700   20.8440 C   0  0  0  0  0  0  0  0  0  0  0  0
    6.7100    0.3850   17.8100 N   0  0  0  0  0  0  0  0  0  0  0  0
    7.5840   -0.2700   18.5160 N   0  0  0  0  0  0  0  0  0  0  0  0
    9.5820   -0.1080   22.7000 N   0  0  0  0  0  0  0  0  0  0  0  0
    9.2950    1.3000   20.9480 O   0  0  0  0  0  0  0  0  0  0  0  0
    7.9864   -4.3799   25.8996 O   0  0  0  0  0  0  0  0  0  0  0  0
   14.0209   -1.3981   24.2270 S   0  0  0  0  0  0  0  0  0  0  0  0
    3.6316    2.0634   21.6529 H   0  0  0  0  0  0  0  0  0  0  0  0
    2.9935    2.6871   19.3570 H   0  0  0  0  0  0  0  0  0  0  0  0
    5.6758    0.7297   22.1281 H   0  0  0  0  0  0  0  0  0  0  0  0
    4.3688    2.0204   17.3972 H   0  0  0  0  0  0  0  0  0  0  0  0
   10.2678   -2.6746   22.3862 H   0  0  0  0  0  0  0  0  0  0  0  0
    7.8691   -0.0023   24.7606 H   0  0  0  0  0  0  0  0  0  0  0  0
    9.5404   -4.5633   23.7846 H   0  0  0  0  0  0  0  0  0  0  0  0
    7.1920   -1.8875   26.1914 H   0  0  0  0  0  0  0  0  0  0  0  0
   12.1799   -0.8381   21.1711 H   0  0  0  0  0  0  0  0  0  0  0  0
   14.3253   -2.1586   21.9250 H   0  0  0  0  0  0  0  0  0  0  0  0
   12.4317   -0.0004   25.4433 H   0  0  0  0  0  0  0  0  0  0  0  0
    8.1472   -6.4025   26.2932 H   0  0  0  0  0  0  0  0  0  0  0  0
    9.6047   -5.6294   25.5960 H   0  0  0  0  0  0  0  0  0  0  0  0
    8.1794   -5.9422   24.5709 H   0  0  0  0  0  0  0  0  0  0  0  0
   10.4561    1.0772   24.1620 H   0  0  0  0  0  0  0  0  0  0  0  0
   10.8743    1.5008   22.5014 H   0  0  0  0  0  0  0  0  0  0  0  0
    7.4774   -1.2066   21.6419 H   0  0  0  0  0  0  0  0  0  0  0  0
    8.7084   -1.5788   20.4215 H   0  0  0  0  0  0  0  0  0  0  0  0
    8.3291   -0.7564   18.0959 H   0  0  0  0  0  0  0  0  0  0  0  0
  1  2  1  0  0  0  0
  1  3  2  0  0  0  0
  2  4  2  0  0  0  0
  3 12  1  0  0  0  0
  4 14  1  0  0  0  0
  5  7  2  0  0  0  0
  5 15  1  0  0  0  0
  6  8  1  0  0  0  0
  6 15  2  0  0  0  0
  7 16  1  0  0  0  0
  8 16  2  0  0  0  0
  9 10  2  0  0  0  0
  9 13  1  0  0  0  0
 10 27  1  0  0  0  0
 11 13  2  0  0  0  0
 11 27  1  0  0  0  0
 12 14  1  0  0  0  0
 12 17  2  0  0  0  0
 13 20  1  0  0  0  0
 14 22  2  0  0  0  0
 15 24  1  0  0  0  0
 16 26  1  0  0  0  0
 17 21  1  0  0  0  0
 17 23  1  0  0  0  0
 18 21  1  0  0  0  0
 18 24  1  0  0  0  0
 18 25  2  0  0  0  0
 19 26  1  0  0  0  0
 20 24  1  0  0  0  0
 22 23  1  0  0  0  0
  1 28  1  0  0  0  0
  2 29  1  0  0  0  0
  3 30  1  0  0  0  0
  4 31  1  0  0  0  0
  5 32  1  0  0  0  0
  6 33  1  0  0  0  0
  7 34  1  0  0  0  0
  8 35  1  0  0  0  0
  9 36  1  0  0  0  0
 10 37  1  0  0  0  0
 11 38  1  0  0  0  0
 19 39  1  0  0  0  0
 19 40  1  0  0  0  0
 19 41  1  0  0  0  0
 20 42  1  0  0  0  0
 20 43  1  0  0  0  0
 21 44  1  0  0  0  0
 21 45  1  0  0  0  0
 23 46  1  0  0  0  0
M  END
> <clash_score>
0

> <docking_score>
-9.105892181396484

> <overlap_score>
0.9034108519554138

$$$$
BENZO_411_1
  -OEChem-08222022473D

 49 52  0     0  0  0  0  0  0999 V2000
    4.2460    1.7520   20.8250 C   0  0  0  0  0  0  0  0  0  0  0  0
    3.8860    2.1050   19.5250 C   0  0  0  0  0  0  0  0  0  0  0  0
    5.3890    1.0010   21.0690 C   0  0  0  0  0  0  0  0  0  0  0  0
    4.6610    1.7170   18.4380 C   0  0  0  0  0  0  0  0  0  0  0  0
    9.5890   -2.4950   23.2210 C   0  0  0  0  0  0  0  0  0  0  0  0
    8.2550   -1.0010   24.5520 C   0  0  0  0  0  0  0  0  0  0  0  0
    9.1890   -3.5540   24.0140 C   0  0  0  0  0  0  0  0  0  0  0  0
    7.8700   -2.0610   25.3550 C   0  0  0  0  0  0  0  0  0  0  0  0
   12.7320   -0.4464   24.4370 C   0  0  0  0  0  0  0  0  0  0  0  0
   12.5970   -0.8682   22.2832 C   0  0  0  0  0  0  0  0  0  0  0  0
    6.1460    0.6070   19.9750 C   0  0  0  0  0  0  0  0  0  0  0  0
   11.9616   -0.1817   23.2889 C   0  0  0  0  0  0  0  0  0  0  0  0
    5.7970    0.9500   18.6730 C   0  0  0  0  0  0  0  0  0  0  0  0
    9.1280   -1.2090   23.4870 C   0  0  0  0  0  0  0  0  0  0  0  0
    8.3450   -3.3440   25.0980 C   0  0  0  0  0  0  0  0  0  0  0  0
    7.2710   -0.1460   19.8310 C   0  0  0  0  0  0  0  0  0  0  0  0
    9.0430    0.2380   21.4940 C   0  0  0  0  0  0  0  0  0  0  0  0
   14.6393   -2.3180   22.2082 C   0  0  0  0  0  0  0  0  0  0  0  0
    8.5126   -5.6654   25.5739 C   0  0  0  0  0  0  0  0  0  0  0  0
   10.7220    0.6590   23.1850 C   0  0  0  0  0  0  0  0  0  0  0  0
    8.0950   -0.7700   20.8440 C   0  0  0  0  0  0  0  0  0  0  0  0
   13.7770   -1.2393   24.1852 N   0  0  0  0  0  0  0  0  0  0  0  0
    6.7100    0.3850   17.8100 N   0  0  0  0  0  0  0  0  0  0  0  0
    7.5840   -0.2700   18.5160 N   0  0  0  0  0  0  0  0  0  0  0  0
   13.6676   -1.4788   22.8673 N   0  0  0  0  0  0  0  0  0  0  0  0
    9.5820   -0.1080   22.7000 N   0  0  0  0  0  0  0  0  0  0  0  0
    9.2950    1.3000   20.9480 O   0  0  0  0  0  0  0  0  0  0  0  0
    7.9864   -4.3799   25.8996 O   0  0  0  0  0  0  0  0  0  0  0  0
    3.6316    2.0634   21.6529 H   0  0  0  0  0  0  0  0  0  0  0  0
    2.9935    2.6871   19.3570 H   0  0  0  0  0  0  0  0  0  0  0  0
    5.6758    0.7297   22.1281 H   0  0  0  0  0  0  0  0  0  0  0  0
    4.3688    2.0204   17.3972 H   0  0  0  0  0  0  0  0  0  0  0  0
   10.2678   -2.6746   22.3862 H   0  0  0  0  0  0  0  0  0  0  0  0
    7.8691   -0.0023   24.7606 H   0  0  0  0  0  0  0  0  0  0  0  0
    9.5404   -4.5633   23.7846 H   0  0  0  0  0  0  0  0  0  0  0  0
    7.1920   -1.8875   26.1914 H   0  0  0  0  0  0  0  0  0  0  0  0
   12.5771   -0.0965   25.4478 H   0  0  0  0  0  0  0  0  0  0  0  0
   12.3832   -0.9726   21.2281 H   0  0  0  0  0  0  0  0  0  0  0  0
   15.4522   -1.6787   21.8540 H   0  0  0  0  0  0  0  0  0  0  0  0
   15.0179   -3.0612   22.9154 H   0  0  0  0  0  0  0  0  0  0  0  0
   14.1626   -2.8324   21.3691 H   0  0  0  0  0  0  0  0  0  0  0  0
    8.1472   -6.4025   26.2932 H   0  0  0  0  0  0  0  0  0  0  0  0
    9.6047   -5.6294   25.5960 H   0  0  0  0  0  0  0  0  0  0  0  0
    8.1794   -5.9422   24.5709 H   0  0  0  0  0  0  0  0  0  0  0  0
   10.4561    1.0772   24.1620 H   0  0  0  0  0  0  0  0  0  0  0  0
   10.8743    1.5008   22.5014 H   0  0  0  0  0  0  0  0  0  0  0  0
    7.4774   -1.2066   21.6419 H   0  0  0  0  0  0  0  0  0  0  0  0
    8.7084   -1.5788   20.4215 H   0  0  0  0  0  0  0  0  0  0  0  0
    8.3291   -0.7564   18.0959 H   0  0  0  0  0  0  0  0  0  0  0  0
  1  2  1  0  0  0  0
  1  3  2  0  0  0  0
  2  4  2  0  0  0  0
  3 11  1  0  0  0  0
  4 13  1  0  0  0  0
  5  7  2  0  0  0  0
  5 14  1  0  0  0  0
  6  8  1  0  0  0  0
  6 14  2  0  0  0  0
  7 15  1  0  0  0  0
  8 15  2  0  0  0  0
  9 12  1  0  0  0  0
  9 22  2  0  0  0  0
 10 12  2  0  0  0  0
 10 25  1  0  0  0  0
 11 13  1  0  0  0  0
 11 16  2  0  0  0  0
 12 20  1  0  0  0  0
 13 23  2  0  0  0  0
 14 26  1  0  0  0  0
 15 28  1  0  0  0  0
 16 21  1  0  0  0  0
 16 24  1  0  0  0  0
 17 21  1  0  0  0  0
 17 26  1  0  0  0  0
 17 27  2  0  0  0  0
 18 25  1  0  0  0  0
 19 28  1  0  0  0  0
 20 26  1  0  0  0  0
 22 25  1  0  0  0  0
 23 24  1  0  0  0  0
  1 29  1  0  0  0  0
  2 30  1  0  0  0  0
  3 31  1  0  0  0  0
  4 32  1  0  0  0  0
  5 33  1  0  0  0  0
  6 34  1  0  0  0  0
  7 35  1  0  0  0  0
  8 36  1  0  0  0  0
  9 37  1  0  0  0  0
 10 38  1  0  0  0  0
 18 39  1  0  0  0  0
 18 40  1  0  0  0  0
 18 41  1  0  0  0  0
 19 42  1  0  0  0  0
 19 43  1  0  0  0  0
 19 44  1  0  0  0  0
 20 45  1  0  0  0  0
 20 46  1  0  0  0  0
 21 47  1  0  0  0  0
 21 48  1  0  0  0  0
 24 49  1  0  0  0  0
M  END
> <clash_score>
0

> <docking_score>
-7.907085418701172

> <overlap_score>
0.9186829328536987

$$$$
BENZO_410_1
  -OEChem-08222022473D

 49 52  0     0  0  0  0  0  0999 V2000
    4.2460    1.7520   20.8250 C   0  0  0  0  0  0  0  0  0  0  0  0
    3.8860    2.1050   19.5250 C   0  0  0  0  0  0  0  0  0  0  0  0
   13.7501   -1.1157   24.6176 C   0  0  0  0  0  0  0  0  0  0  0  0
    5.3890    1.0010   21.0690 C   0  0  0  0  0  0  0  0  0  0  0  0
   12.5991   -0.3339   24.5202 C   0  0  0  0  0  0  0  0  0  0  0  0
    4.6610    1.7170   18.4380 C   0  0  0  0  0  0  0  0  0  0  0  0
    9.5890   -2.4950   23.2210 C   0  0  0  0  0  0  0  0  0  0  0  0
    8.2550   -1.0010   24.5520 C   0  0  0  0  0  0  0  0  0  0  0  0
    9.1890   -3.5540   24.0140 C   0  0  0  0  0  0  0  0  0  0  0  0
    7.8700   -2.0610   25.3550 C   0  0  0  0  0  0  0  0  0  0  0  0
   14.2636   -1.7454   23.4838 C   0  0  0  0  0  0  0  0  0  0  0  0
   12.4750   -0.8115   22.1551 C   0  0  0  0  0  0  0  0  0  0  0  0
    6.1460    0.6070   19.9750 C   0  0  0  0  0  0  0  0  0  0  0  0
   11.9616   -0.1817   23.2889 C   0  0  0  0  0  0  0  0  0  0  0  0
    5.7970    0.9500   18.6730 C   0  0  0  0  0  0  0  0  0  0  0  0
    9.1280   -1.2090   23.4870 C   0  0  0  0  0  0  0  0  0  0  0  0
    8.3450   -3.3440   25.0980 C   0  0  0  0  0  0  0  0  0  0  0  0
   13.6261   -1.5933   22.2526 C   0  0  0  0  0  0  0  0  0  0  0  0
    7.2710   -0.1460   19.8310 C   0  0  0  0  0  0  0  0  0  0  0  0
    9.0430    0.2380   21.4940 C   0  0  0  0  0  0  0  0  0  0  0  0
    8.5126   -5.6654   25.5739 C   0  0  0  0  0  0  0  0  0  0  0  0
   10.7220    0.6590   23.1850 C   0  0  0  0  0  0  0  0  0  0  0  0
    8.0950   -0.7700   20.8440 C   0  0  0  0  0  0  0  0  0  0  0  0
    6.7100    0.3850   17.8100 N   0  0  0  0  0  0  0  0  0  0  0  0
    7.5840   -0.2700   18.5160 N   0  0  0  0  0  0  0  0  0  0  0  0
    9.5820   -0.1080   22.7000 N   0  0  0  0  0  0  0  0  0  0  0  0
    9.2950    1.3000   20.9480 O   0  0  0  0  0  0  0  0  0  0  0  0
    7.9864   -4.3799   25.8996 O   0  0  0  0  0  0  0  0  0  0  0  0
   14.2594   -2.3714   20.8543 Cl  0  0  0  0  0  0  0  0  0  0  0  0
    3.6316    2.0634   21.6529 H   0  0  0  0  0  0  0  0  0  0  0  0
    2.9935    2.6871   19.3570 H   0  0  0  0  0  0  0  0  0  0  0  0
   14.2462   -1.2340   25.5766 H   0  0  0  0  0  0  0  0  0  0  0  0
    5.6758    0.7297   22.1281 H   0  0  0  0  0  0  0  0  0  0  0  0
   12.2060    0.1530   25.4088 H   0  0  0  0  0  0  0  0  0  0  0  0
    4.3688    2.0204   17.3972 H   0  0  0  0  0  0  0  0  0  0  0  0
   10.2678   -2.6746   22.3862 H   0  0  0  0  0  0  0  0  0  0  0  0
    7.8691   -0.0023   24.7606 H   0  0  0  0  0  0  0  0  0  0  0  0
    9.5404   -4.5633   23.7846 H   0  0  0  0  0  0  0  0  0  0  0  0
    7.1920   -1.8875   26.1914 H   0  0  0  0  0  0  0  0  0  0  0  0
   15.1613   -2.3520   23.5747 H   0  0  0  0  0  0  0  0  0  0  0  0
   11.9745   -0.6893   21.1973 H   0  0  0  0  0  0  0  0  0  0  0  0
    8.1472   -6.4025   26.2932 H   0  0  0  0  0  0  0  0  0  0  0  0
    9.6047   -5.6294   25.5960 H   0  0  0  0  0  0  0  0  0  0  0  0
    8.1794   -5.9422   24.5709 H   0  0  0  0  0  0  0  0  0  0  0  0
   10.4561    1.0772   24.1620 H   0  0  0  0  0  0  0  0  0  0  0  0
   10.8743    1.5008   22.5014 H   0  0  0  0  0  0  0  0  0  0  0  0
    7.4774   -1.2066   21.6419 H   0  0  0  0  0  0  0  0  0  0  0  0
    8.7084   -1.5788   20.4215 H   0  0  0  0  0  0  0  0  0  0  0  0
    8.3291   -0.7564   18.0959 H   0  0  0  0  0  0  0  0  0  0  0  0
  1  2  1  0  0  0  0
  1  4  2  0  0  0  0
  2  6  2  0  0  0  0
  3  5  2  0  0  0  0
  3 11  1  0  0  0  0
  4 13  1  0  0  0  0
  5 14  1  0  0  0  0
  6 15  1  0  0  0  0
  7  9  2  0  0  0  0
  7 16  1  0  0  0  0
  8 10  1  0  0  0  0
  8 16  2  0  0  0  0
  9 17  1  0  0  0  0
 10 17  2  0  0  0  0
 11 18  2  0  0  0  0
 12 14  2  0  0  0  0
 12 18  1  0  0  0  0
 13 15  1  0  0  0  0
 13 19  2  0  0  0  0
 14 22  1  0  0  0  0
 15 24  2  0  0  0  0
 16 26  1  0  0  0  0
 17 28  1  0  0  0  0
 18 29  1  0  0  0  0
 19 23  1  0  0  0  0
 19 25  1  0  0  0  0
 20 23  1  0  0  0  0
 20 26  1  0  0  0  0
 20 27  2  0  0  0  0
 21 28  1  0  0  0  0
 22 26  1  0  0  0  0
 24 25  1  0  0  0  0
  1 30  1  0  0  0  0
  2 31  1  0  0  0  0
  3 32  1  0  0  0  0
  4 33  1  0  0  0  0
  5 34  1  0  0  0  0
  6 35  1  0  0  0  0
  7 36  1  0  0  0  0
  8 37  1  0  0  0  0
  9 38  1  0  0  0  0
 10 39  1  0  0  0  0
 11 40  1  0  0  0  0
 12 41  1  0  0  0  0
 21 42  1  0  0  0  0
 21 43  1  0  0  0  0
 21 44  1  0  0  0  0
 22 45  1  0  0  0  0
 22 46  1  0  0  0  0
 23 47  1  0  0  0  0
 23 48  1  0  0  0  0
 25 49  1  0  0  0  0
M  END
> <clash_score>
0

> <docking_score>
-8.671056747436523

> <overlap_score>
0.9233049750328064

$$$$
BENZO_413_1
  -OEChem-08222022473D

 59 63  0     0  0  0  0  0  0999 V2000
   14.2641   -1.7450   23.4813 C   0  0  0  0  0  0  0  0  0  0  0  0
    4.2460    1.7520   20.8250 C   0  0  0  0  0  0  0  0  0  0  0  0
   14.0779   -0.6681   24.3480 C   0  0  0  0  0  0  0  0  0  0  0  0
   13.2991   -2.0403   22.5184 C   0  0  0  0  0  0  0  0  0  0  0  0
    3.8860    2.1050   19.5250 C   0  0  0  0  0  0  0  0  0  0  0  0
    5.3890    1.0010   21.0690 C   0  0  0  0  0  0  0  0  0  0  0  0
   12.9266    0.1135   24.2518 C   0  0  0  0  0  0  0  0  0  0  0  0
   12.1478   -1.2587   22.4222 C   0  0  0  0  0  0  0  0  0  0  0  0
    4.6610    1.7170   18.4380 C   0  0  0  0  0  0  0  0  0  0  0  0
    9.1890   -3.5540   24.0140 C   0  0  0  0  0  0  0  0  0  0  0  0
    7.8700   -2.0610   25.3550 C   0  0  0  0  0  0  0  0  0  0  0  0
    9.5890   -2.4950   23.2210 C   0  0  0  0  0  0  0  0  0  0  0  0
    8.2550   -1.0010   24.5520 C   0  0  0  0  0  0  0  0  0  0  0  0
    6.1460    0.6070   19.9750 C   0  0  0  0  0  0  0  0  0  0  0  0
   11.9616   -0.1817   23.2889 C   0  0  0  0  0  0  0  0  0  0  0  0
    5.7970    0.9500   18.6730 C   0  0  0  0  0  0  0  0  0  0  0  0
    8.3450   -3.3440   25.0980 C   0  0  0  0  0  0  0  0  0  0  0  0
    9.1280   -1.2090   23.4870 C   0  0  0  0  0  0  0  0  0  0  0  0
    7.2710   -0.1460   19.8310 C   0  0  0  0  0  0  0  0  0  0  0  0
    7.8687   -5.7518   25.4384 C   0  0  0  0  0  0  0  0  0  0  0  0
    9.0430    0.2380   21.4940 C   0  0  0  0  0  0  0  0  0  0  0  0
    7.7614   -6.8724   26.4584 C   0  0  0  0  0  0  0  0  0  0  0  0
    7.0004   -6.5095   27.7148 C   0  0  0  0  0  0  0  0  0  0  0  0
    7.6035   -5.2531   28.3027 C   0  0  0  0  0  0  0  0  0  0  0  0
    7.4713   -4.1195   27.2996 C   0  0  0  0  0  0  0  0  0  0  0  0
   10.7220    0.6590   23.1850 C   0  0  0  0  0  0  0  0  0  0  0  0
    8.0950   -0.7700   20.8440 C   0  0  0  0  0  0  0  0  0  0  0  0
    6.7100    0.3850   17.8100 N   0  0  0  0  0  0  0  0  0  0  0  0
    7.5840   -0.2700   18.5160 N   0  0  0  0  0  0  0  0  0  0  0  0
    7.9635   -4.4452   25.9501 N   0  0  0  0  0  0  0  0  0  0  0  0
    9.5820   -0.1080   22.7000 N   0  0  0  0  0  0  0  0  0  0  0  0
    7.9246   -6.0590   24.2445 O   0  0  0  0  0  0  0  0  0  0  0  0
    9.2950    1.3000   20.9480 O   0  0  0  0  0  0  0  0  0  0  0  0
   15.1613   -2.3527   23.5555 H   0  0  0  0  0  0  0  0  0  0  0  0
    3.6316    2.0634   21.6529 H   0  0  0  0  0  0  0  0  0  0  0  0
   14.8297   -0.4373   25.0971 H   0  0  0  0  0  0  0  0  0  0  0  0
   13.4443   -2.8780   21.8427 H   0  0  0  0  0  0  0  0  0  0  0  0
    2.9935    2.6871   19.3570 H   0  0  0  0  0  0  0  0  0  0  0  0
    5.6758    0.7297   22.1281 H   0  0  0  0  0  0  0  0  0  0  0  0
   12.7899    0.9506   24.9315 H   0  0  0  0  0  0  0  0  0  0  0  0
   11.4013   -1.4963   21.6690 H   0  0  0  0  0  0  0  0  0  0  0  0
    4.3688    2.0204   17.3972 H   0  0  0  0  0  0  0  0  0  0  0  0
    9.5436   -4.5614   23.7799 H   0  0  0  0  0  0  0  0  0  0  0  0
    7.1918   -1.8823   26.1906 H   0  0  0  0  0  0  0  0  0  0  0  0
   10.2676   -2.6754   22.3861 H   0  0  0  0  0  0  0  0  0  0  0  0
    7.8686   -0.0026   24.7598 H   0  0  0  0  0  0  0  0  0  0  0  0
    7.2713   -7.7257   25.9758 H   0  0  0  0  0  0  0  0  0  0  0  0
    8.7837   -7.1790   26.7111 H   0  0  0  0  0  0  0  0  0  0  0  0
    5.9406   -6.3476   27.4837 H   0  0  0  0  0  0  0  0  0  0  0  0
    7.0566   -7.3314   28.4368 H   0  0  0  0  0  0  0  0  0  0  0  0
    7.0858   -4.9863   29.2307 H   0  0  0  0  0  0  0  0  0  0  0  0
    8.6585   -5.4140   28.5554 H   0  0  0  0  0  0  0  0  0  0  0  0
    6.4149   -3.8417   27.1934 H   0  0  0  0  0  0  0  0  0  0  0  0
    8.0152   -3.2408   27.6666 H   0  0  0  0  0  0  0  0  0  0  0  0
   10.4561    1.0772   24.1620 H   0  0  0  0  0  0  0  0  0  0  0  0
   10.8743    1.5008   22.5014 H   0  0  0  0  0  0  0  0  0  0  0  0
    7.4659   -1.2025   21.6292 H   0  0  0  0  0  0  0  0  0  0  0  0
    8.6969   -1.5747   20.4087 H   0  0  0  0  0  0  0  0  0  0  0  0
    8.3291   -0.7564   18.0959 H   0  0  0  0  0  0  0  0  0  0  0  0
  1  3  1  0  0  0  0
  1  4  2  0  0  0  0
  2  5  1  0  0  0  0
  2  6  2  0  0  0  0
  3  7  2  0  0  0  0
  4  8  1  0  0  0  0
  5  9  2  0  0  0  0
  6 14  1  0  0  0  0
  7 15  1  0  0  0  0
  8 15  2  0  0  0  0
  9 16  1  0  0  0  0
 10 12  2  0  0  0  0
 10 17  1  0  0  0  0
 11 13  1  0  0  0  0
 11 17  2  0  0  0  0
 12 18  1  0  0  0  0
 13 18  2  0  0  0  0
 14 16  1  0  0  0  0
 14 19  2  0  0  0  0
 15 26  1  0  0  0  0
 16 28  2  0  0  0  0
 17 30  1  0  0  0  0
 18 31  1  0  0  0  0
 19 27  1  0  0  0  0
 19 29  1  0  0  0  0
 20 22  1  0  0  0  0
 20 30  1  0  0  0  0
 20 32  2  0  0  0  0
 21 27  1  0  0  0  0
 21 31  1  0  0  0  0
 21 33  2  0  0  0  0
 22 23  1  0  0  0  0
 23 24  1  0  0  0  0
 24 25  1  0  0  0  0
 25 30  1  0  0  0  0
 26 31  1  0  0  0  0
 28 29  1  0  0  0  0
  1 34  1  0  0  0  0
  2 35  1  0  0  0  0
  3 36  1  0  0  0  0
  4 37  1  0  0  0  0
  5 38  1  0  0  0  0
  6 39  1  0  0  0  0
  7 40  1  0  0  0  0
  8 41  1  0  0  0  0
  9 42  1  0  0  0  0
 10 43  1  0  0  0  0
 11 44  1  0  0  0  0
 12 45  1  0  0  0  0
 13 46  1  0  0  0  0
 22 47  1  0  0  0  0
 22 48  1  0  0  0  0
 23 49  1  0  0  0  0
 23 50  1  0  0  0  0
 24 51  1  0  0  0  0
 24 52  1  0  0  0  0
 25 53  1  0  0  0  0
 25 54  1  0  0  0  0
 26 55  1  0  0  0  0
 26 56  1  0  0  0  0
 27 57  1  0  0  0  0
 27 58  1  0  0  0  0
 29 59  1  0  0  0  0
M  END
> <clash_score>
0

> <docking_score>
-8.553494453430176

> <overlap_score>
0.9891777038574219

$$$$
BENZO_412_1
  -OEChem-08222022473D

 56 60  0     0  0  0  0  0  0999 V2000
    4.2460    1.7520   20.8250 C   0  0  0  0  0  0  0  0  0  0  0  0
    3.8860    2.1050   19.5250 C   0  0  0  0  0  0  0  0  0  0  0  0
    5.3890    1.0010   21.0690 C   0  0  0  0  0  0  0  0  0  0  0  0
    4.6610    1.7170   18.4380 C   0  0  0  0  0  0  0  0  0  0  0  0
    9.1890   -3.5540   24.0140 C   0  0  0  0  0  0  0  0  0  0  0  0
    7.8700   -2.0610   25.3550 C   0  0  0  0  0  0  0  0  0  0  0  0
    9.5890   -2.4950   23.2210 C   0  0  0  0  0  0  0  0  0  0  0  0
    8.2550   -1.0010   24.5520 C   0  0  0  0  0  0  0  0  0  0  0  0
   12.6785   -0.3937   24.5018 C   0  0  0  0  0  0  0  0  0  0  0  0
   13.7775   -1.2037   24.3186 C   0  0  0  0  0  0  0  0  0  0  0  0
   12.5401   -0.8378   22.2246 C   0  0  0  0  0  0  0  0  0  0  0  0
    6.1460    0.6070   19.9750 C   0  0  0  0  0  0  0  0  0  0  0  0
   11.9616   -0.1817   23.2889 C   0  0  0  0  0  0  0  0  0  0  0  0
    5.7970    0.9500   18.6730 C   0  0  0  0  0  0  0  0  0  0  0  0
    8.3450   -3.3440   25.0980 C   0  0  0  0  0  0  0  0  0  0  0  0
    9.1280   -1.2090   23.4870 C   0  0  0  0  0  0  0  0  0  0  0  0
    7.2710   -0.1460   19.8310 C   0  0  0  0  0  0  0  0  0  0  0  0
    7.2752   -5.5548   25.4273 C   0  0  0  0  0  0  0  0  0  0  0  0
    9.0430    0.2380   21.4940 C   0  0  0  0  0  0  0  0  0  0  0  0
    7.1880   -6.7800   26.3209 C   0  0  0  0  0  0  0  0  0  0  0  0
    7.0916   -6.4753   27.7999 C   0  0  0  0  0  0  0  0  0  0  0  0
    8.2362   -5.5641   28.1841 C   0  0  0  0  0  0  0  0  0  0  0  0
    8.1241   -4.2655   27.4032 C   0  0  0  0  0  0  0  0  0  0  0  0
   10.7220    0.6590   23.1850 C   0  0  0  0  0  0  0  0  0  0  0  0
    8.0950   -0.7700   20.8440 C   0  0  0  0  0  0  0  0  0  0  0  0
    6.7100    0.3850   17.8100 N   0  0  0  0  0  0  0  0  0  0  0  0
    7.5840   -0.2700   18.5160 N   0  0  0  0  0  0  0  0  0  0  0  0
    7.9635   -4.4452   25.9501 N   0  0  0  0  0  0  0  0  0  0  0  0
    9.5820   -0.1080   22.7000 N   0  0  0  0  0  0  0  0  0  0  0  0
    6.7947   -5.6299   24.2931 O   0  0  0  0  0  0  0  0  0  0  0  0
    9.2950    1.3000   20.9480 O   0  0  0  0  0  0  0  0  0  0  0  0
   13.9416   -1.7051   22.6894 S   0  0  0  0  0  0  0  0  0  0  0  0
    3.6316    2.0634   21.6529 H   0  0  0  0  0  0  0  0  0  0  0  0
    2.9935    2.6871   19.3570 H   0  0  0  0  0  0  0  0  0  0  0  0
    5.6758    0.7297   22.1281 H   0  0  0  0  0  0  0  0  0  0  0  0
    4.3688    2.0204   17.3972 H   0  0  0  0  0  0  0  0  0  0  0  0
    9.5436   -4.5614   23.7799 H   0  0  0  0  0  0  0  0  0  0  0  0
    7.1918   -1.8823   26.1906 H   0  0  0  0  0  0  0  0  0  0  0  0
   10.2676   -2.6754   22.3861 H   0  0  0  0  0  0  0  0  0  0  0  0
    7.8686   -0.0026   24.7598 H   0  0  0  0  0  0  0  0  0  0  0  0
   12.4058    0.0253   25.4623 H   0  0  0  0  0  0  0  0  0  0  0  0
   14.4923   -1.5246   25.0631 H   0  0  0  0  0  0  0  0  0  0  0  0
   12.2108   -0.8511   21.1948 H   0  0  0  0  0  0  0  0  0  0  0  0
    6.3101   -7.3613   26.0164 H   0  0  0  0  0  0  0  0  0  0  0  0
    8.0752   -7.3922   26.1183 H   0  0  0  0  0  0  0  0  0  0  0  0
    6.1328   -5.9938   28.0269 H   0  0  0  0  0  0  0  0  0  0  0  0
    7.1363   -7.4051   28.3772 H   0  0  0  0  0  0  0  0  0  0  0  0
    8.2035   -5.3520   29.2586 H   0  0  0  0  0  0  0  0  0  0  0  0
    9.1990   -6.0474   27.9788 H   0  0  0  0  0  0  0  0  0  0  0  0
    7.2505   -3.6996   27.7511 H   0  0  0  0  0  0  0  0  0  0  0  0
    9.0155   -3.6525   27.5824 H   0  0  0  0  0  0  0  0  0  0  0  0
   10.4561    1.0772   24.1620 H   0  0  0  0  0  0  0  0  0  0  0  0
   10.8743    1.5008   22.5014 H   0  0  0  0  0  0  0  0  0  0  0  0
    7.4659   -1.2025   21.6292 H   0  0  0  0  0  0  0  0  0  0  0  0
    8.6969   -1.5747   20.4087 H   0  0  0  0  0  0  0  0  0  0  0  0
    8.3291   -0.7564   18.0959 H   0  0  0  0  0  0  0  0  0  0  0  0
  1  2  1  0  0  0  0
  1  3  2  0  0  0  0
  2  4  2  0  0  0  0
  3 12  1  0  0  0  0
  4 14  1  0  0  0  0
  5  7  2  0  0  0  0
  5 15  1  0  0  0  0
  6  8  1  0  0  0  0
  6 15  2  0  0  0  0
  7 16  1  0  0  0  0
  8 16  2  0  0  0  0
  9 10  2  0  0  0  0
  9 13  1  0  0  0  0
 10 32  1  0  0  0  0
 11 13  2  0  0  0  0
 11 32  1  0  0  0  0
 12 14  1  0  0  0  0
 12 17  2  0  0  0  0
 13 24  1  0  0  0  0
 14 26  2  0  0  0  0
 15 28  1  0  0  0  0
 16 29  1  0  0  0  0
 17 25  1  0  0  0  0
 17 27  1  0  0  0  0
 18 20  1  0  0  0  0
 18 28  1  0  0  0  0
 18 30  2  0  0  0  0
 19 25  1  0  0  0  0
 19 29  1  0  0  0  0
 19 31  2  0  0  0  0
 20 21  1  0  0  0  0
 21 22  1  0  0  0  0
 22 23  1  0  0  0  0
 23 28  1  0  0  0  0
 24 29  1  0  0  0  0
 26 27  1  0  0  0  0
  1 33  1  0  0  0  0
  2 34  1  0  0  0  0
  3 35  1  0  0  0  0
  4 36  1  0  0  0  0
  5 37  1  0  0  0  0
  6 38  1  0  0  0  0
  7 39  1  0  0  0  0
  8 40  1  0  0  0  0
  9 41  1  0  0  0  0
 10 42  1  0  0  0  0
 11 43  1  0  0  0  0
 20 44  1  0  0  0  0
 20 45  1  0  0  0  0
 21 46  1  0  0  0  0
 21 47  1  0  0  0  0
 22 48  1  0  0  0  0
 22 49  1  0  0  0  0
 23 50  1  0  0  0  0
 23 51  1  0  0  0  0
 24 52  1  0  0  0  0
 24 53  1  0  0  0  0
 25 54  1  0  0  0  0
 25 55  1  0  0  0  0
 27 56  1  0  0  0  0
M  END
> <clash_score>
0

> <docking_score>
-8.950616836547852

> <overlap_score>
0.9828841090202332

$$$$
BENZO_415_1
  -OEChem-08222022473D

 59 63  0     0  0  0  0  0  0999 V2000
    4.2460    1.7520   20.8250 C   0  0  0  0  0  0  0  0  0  0  0  0
    3.8860    2.1050   19.5250 C   0  0  0  0  0  0  0  0  0  0  0  0
    5.3890    1.0010   21.0690 C   0  0  0  0  0  0  0  0  0  0  0  0
    4.6610    1.7170   18.4380 C   0  0  0  0  0  0  0  0  0  0  0  0
    9.1890   -3.5540   24.0140 C   0  0  0  0  0  0  0  0  0  0  0  0
    7.8700   -2.0610   25.3550 C   0  0  0  0  0  0  0  0  0  0  0  0
    9.5890   -2.4950   23.2210 C   0  0  0  0  0  0  0  0  0  0  0  0
    8.2550   -1.0010   24.5520 C   0  0  0  0  0  0  0  0  0  0  0  0
   12.7320   -0.4464   24.4370 C   0  0  0  0  0  0  0  0  0  0  0  0
   12.5970   -0.8682   22.2832 C   0  0  0  0  0  0  0  0  0  0  0  0
    6.1460    0.6070   19.9750 C   0  0  0  0  0  0  0  0  0  0  0  0
   11.9616   -0.1817   23.2889 C   0  0  0  0  0  0  0  0  0  0  0  0
    5.7970    0.9500   18.6730 C   0  0  0  0  0  0  0  0  0  0  0  0
    8.3450   -3.3440   25.0980 C   0  0  0  0  0  0  0  0  0  0  0  0
    9.1280   -1.2090   23.4870 C   0  0  0  0  0  0  0  0  0  0  0  0
    7.2710   -0.1460   19.8310 C   0  0  0  0  0  0  0  0  0  0  0  0
    7.2752   -5.5548   25.4273 C   0  0  0  0  0  0  0  0  0  0  0  0
    9.0430    0.2380   21.4940 C   0  0  0  0  0  0  0  0  0  0  0  0
    7.1880   -6.7800   26.3209 C   0  0  0  0  0  0  0  0  0  0  0  0
    7.0916   -6.4753   27.7999 C   0  0  0  0  0  0  0  0  0  0  0  0
    8.2362   -5.5641   28.1841 C   0  0  0  0  0  0  0  0  0  0  0  0
    8.1241   -4.2655   27.4032 C   0  0  0  0  0  0  0  0  0  0  0  0
   14.6393   -2.3180   22.2082 C   0  0  0  0  0  0  0  0  0  0  0  0
   10.7220    0.6590   23.1850 C   0  0  0  0  0  0  0  0  0  0  0  0
    8.0950   -0.7700   20.8440 C   0  0  0  0  0  0  0  0  0  0  0  0
   13.7770   -1.2393   24.1852 N   0  0  0  0  0  0  0  0  0  0  0  0
    6.7100    0.3850   17.8100 N   0  0  0  0  0  0  0  0  0  0  0  0
    7.5840   -0.2700   18.5160 N   0  0  0  0  0  0  0  0  0  0  0  0
   13.6676   -1.4788   22.8673 N   0  0  0  0  0  0  0  0  0  0  0  0
    7.9635   -4.4452   25.9501 N   0  0  0  0  0  0  0  0  0  0  0  0
    9.5820   -0.1080   22.7000 N   0  0  0  0  0  0  0  0  0  0  0  0
    6.7947   -5.6299   24.2931 O   0  0  0  0  0  0  0  0  0  0  0  0
    9.2950    1.3000   20.9480 O   0  0  0  0  0  0  0  0  0  0  0  0
    3.6316    2.0634   21.6529 H   0  0  0  0  0  0  0  0  0  0  0  0
    2.9935    2.6871   19.3570 H   0  0  0  0  0  0  0  0  0  0  0  0
    5.6758    0.7297   22.1281 H   0  0  0  0  0  0  0  0  0  0  0  0
    4.3688    2.0204   17.3972 H   0  0  0  0  0  0  0  0  0  0  0  0
    9.5436   -4.5614   23.7799 H   0  0  0  0  0  0  0  0  0  0  0  0
    7.1918   -1.8823   26.1906 H   0  0  0  0  0  0  0  0  0  0  0  0
   10.2676   -2.6754   22.3861 H   0  0  0  0  0  0  0  0  0  0  0  0
    7.8686   -0.0026   24.7598 H   0  0  0  0  0  0  0  0  0  0  0  0
   12.5771   -0.0965   25.4478 H   0  0  0  0  0  0  0  0  0  0  0  0
   12.3832   -0.9726   21.2281 H   0  0  0  0  0  0  0  0  0  0  0  0
    6.3101   -7.3613   26.0164 H   0  0  0  0  0  0  0  0  0  0  0  0
    8.0752   -7.3922   26.1183 H   0  0  0  0  0  0  0  0  0  0  0  0
    6.1328   -5.9938   28.0269 H   0  0  0  0  0  0  0  0  0  0  0  0
    7.1363   -7.4051   28.3772 H   0  0  0  0  0  0  0  0  0  0  0  0
    8.2035   -5.3520   29.2586 H   0  0  0  0  0  0  0  0  0  0  0  0
    9.1990   -6.0474   27.9788 H   0  0  0  0  0  0  0  0  0  0  0  0
    7.2505   -3.6996   27.7511 H   0  0  0  0  0  0  0  0  0  0  0  0
    9.0155   -3.6525   27.5824 H   0  0  0  0  0  0  0  0  0  0  0  0
   15.4522   -1.6787   21.8540 H   0  0  0  0  0  0  0  0  0  0  0  0
   15.0179   -3.0613   22.9154 H   0  0  0  0  0  0  0  0  0  0  0  0
   14.1626   -2.8324   21.3691 H   0  0  0  0  0  0  0  0  0  0  0  0
   10.4561    1.0772   24.1620 H   0  0  0  0  0  0  0  0  0  0  0  0
   10.8743    1.5008   22.5014 H   0  0  0  0  0  0  0  0  0  0  0  0
    7.4659   -1.2025   21.6292 H   0  0  0  0  0  0  0  0  0  0  0  0
    8.6969   -1.5747   20.4087 H   0  0  0  0  0  0  0  0  0  0  0  0
    8.3291   -0.7564   18.0959 H   0  0  0  0  0  0  0  0  0  0  0  0
  1  2  1  0  0  0  0
  1  3  2  0  0  0  0
  2  4  2  0  0  0  0
  3 11  1  0  0  0  0
  4 13  1  0  0  0  0
  5  7  2  0  0  0  0
  5 14  1  0  0  0  0
  6  8  1  0  0  0  0
  6 14  2  0  0  0  0
  7 15  1  0  0  0  0
  8 15  2  0  0  0  0
  9 12  1  0  0  0  0
  9 26  2  0  0  0  0
 10 12  2  0  0  0  0
 10 29  1  0  0  0  0
 11 13  1  0  0  0  0
 11 16  2  0  0  0  0
 12 24  1  0  0  0  0
 13 27  2  0  0  0  0
 14 30  1  0  0  0  0
 15 31  1  0  0  0  0
 16 25  1  0  0  0  0
 16 28  1  0  0  0  0
 17 19  1  0  0  0  0
 17 30  1  0  0  0  0
 17 32  2  0  0  0  0
 18 25  1  0  0  0  0
 18 31  1  0  0  0  0
 18 33  2  0  0  0  0
 19 20  1  0  0  0  0
 20 21  1  0  0  0  0
 21 22  1  0  0  0  0
 22 30  1  0  0  0  0
 23 29  1  0  0  0  0
 24 31  1  0  0  0  0
 26 29  1  0  0  0  0
 27 28  1  0  0  0  0
  1 34  1  0  0  0  0
  2 35  1  0  0  0  0
  3 36  1  0  0  0  0
  4 37  1  0  0  0  0
  5 38  1  0  0  0  0
  6 39  1  0  0  0  0
  7 40  1  0  0  0  0
  8 41  1  0  0  0  0
  9 42  1  0  0  0  0
 10 43  1  0  0  0  0
 19 44  1  0  0  0  0
 19 45  1  0  0  0  0
 20 46  1  0  0  0  0
 20 47  1  0  0  0  0
 21 48  1  0  0  0  0
 21 49  1  0  0  0  0
 22 50  1  0  0  0  0
 22 51  1  0  0  0  0
 23 52  1  0  0  0  0
 23 53  1  0  0  0  0
 23 54  1  0  0  0  0
 24 55  1  0  0  0  0
 24 56  1  0  0  0  0
 25 57  1  0  0  0  0
 25 58  1  0  0  0  0
 28 59  1  0  0  0  0
M  END
> <clash_score>
0

> <docking_score>
-7.699838638305664

> <overlap_score>
0.999474287033081

$$$$
BENZO_417_1
  -OEChem-08222022473D

 58 62  0     0  0  0  0  0  0999 V2000
   14.2641   -1.7450   23.4813 C   0  0  0  0  0  0  0  0  0  0  0  0
    4.2460    1.7520   20.8250 C   0  0  0  0  0  0  0  0  0  0  0  0
   14.0779   -0.6681   24.3480 C   0  0  0  0  0  0  0  0  0  0  0  0
   13.2991   -2.0403   22.5184 C   0  0  0  0  0  0  0  0  0  0  0  0
    3.8860    2.1050   19.5250 C   0  0  0  0  0  0  0  0  0  0  0  0
    5.3890    1.0010   21.0690 C   0  0  0  0  0  0  0  0  0  0  0  0
   12.9266    0.1135   24.2518 C   0  0  0  0  0  0  0  0  0  0  0  0
   12.1478   -1.2587   22.4222 C   0  0  0  0  0  0  0  0  0  0  0  0
    4.6610    1.7170   18.4380 C   0  0  0  0  0  0  0  0  0  0  0  0
    9.1890   -3.5540   24.0140 C   0  0  0  0  0  0  0  0  0  0  0  0
    7.8700   -2.0610   25.3550 C   0  0  0  0  0  0  0  0  0  0  0  0
    9.5890   -2.4950   23.2210 C   0  0  0  0  0  0  0  0  0  0  0  0
    8.2550   -1.0010   24.5520 C   0  0  0  0  0  0  0  0  0  0  0  0
    6.1460    0.6070   19.9750 C   0  0  0  0  0  0  0  0  0  0  0  0
   11.9616   -0.1817   23.2889 C   0  0  0  0  0  0  0  0  0  0  0  0
    5.7970    0.9500   18.6730 C   0  0  0  0  0  0  0  0  0  0  0  0
    8.3450   -3.3440   25.0980 C   0  0  0  0  0  0  0  0  0  0  0  0
    9.1280   -1.2090   23.4870 C   0  0  0  0  0  0  0  0  0  0  0  0
    7.2710   -0.1460   19.8310 C   0  0  0  0  0  0  0  0  0  0  0  0
    9.0430    0.2380   21.4940 C   0  0  0  0  0  0  0  0  0  0  0  0
    7.2567   -5.5373   25.3128 C   0  0  0  0  0  0  0  0  0  0  0  0
    7.6783   -4.1701   27.3375 C   0  0  0  0  0  0  0  0  0  0  0  0
    7.3927   -6.7710   26.1978 C   0  0  0  0  0  0  0  0  0  0  0  0
    7.7912   -5.4770   28.1147 C   0  0  0  0  0  0  0  0  0  0  0  0
   10.7220    0.6590   23.1850 C   0  0  0  0  0  0  0  0  0  0  0  0
    8.0950   -0.7700   20.8440 C   0  0  0  0  0  0  0  0  0  0  0  0
    6.7100    0.3850   17.8100 N   0  0  0  0  0  0  0  0  0  0  0  0
    7.5840   -0.2700   18.5160 N   0  0  0  0  0  0  0  0  0  0  0  0
    7.9750   -4.4088   25.9208 N   0  0  0  0  0  0  0  0  0  0  0  0
    9.5820   -0.1080   22.7000 N   0  0  0  0  0  0  0  0  0  0  0  0
    9.2950    1.3000   20.9480 O   0  0  0  0  0  0  0  0  0  0  0  0
    6.9636   -6.4808   27.5280 O   0  0  0  0  0  0  0  0  0  0  0  0
   15.1613   -2.3527   23.5555 H   0  0  0  0  0  0  0  0  0  0  0  0
    3.6316    2.0634   21.6529 H   0  0  0  0  0  0  0  0  0  0  0  0
   14.8297   -0.4373   25.0971 H   0  0  0  0  0  0  0  0  0  0  0  0
   13.4443   -2.8780   21.8427 H   0  0  0  0  0  0  0  0  0  0  0  0
    2.9935    2.6871   19.3570 H   0  0  0  0  0  0  0  0  0  0  0  0
    5.6758    0.7297   22.1281 H   0  0  0  0  0  0  0  0  0  0  0  0
   12.7899    0.9506   24.9315 H   0  0  0  0  0  0  0  0  0  0  0  0
   11.4013   -1.4963   21.6690 H   0  0  0  0  0  0  0  0  0  0  0  0
    4.3688    2.0204   17.3972 H   0  0  0  0  0  0  0  0  0  0  0  0
    9.5426   -4.5618   23.7797 H   0  0  0  0  0  0  0  0  0  0  0  0
    7.1914   -1.8824   26.1903 H   0  0  0  0  0  0  0  0  0  0  0  0
   10.2669   -2.6745   22.3854 H   0  0  0  0  0  0  0  0  0  0  0  0
    7.8690   -0.0020   24.7587 H   0  0  0  0  0  0  0  0  0  0  0  0
    7.6535   -5.7575   24.3148 H   0  0  0  0  0  0  0  0  0  0  0  0
    6.1962   -5.2737   25.2113 H   0  0  0  0  0  0  0  0  0  0  0  0
    6.6579   -3.7759   27.4290 H   0  0  0  0  0  0  0  0  0  0  0  0
    8.3696   -3.4320   27.7610 H   0  0  0  0  0  0  0  0  0  0  0  0
    6.7582   -7.5752   25.8116 H   0  0  0  0  0  0  0  0  0  0  0  0
    8.4238   -7.1441   26.2130 H   0  0  0  0  0  0  0  0  0  0  0  0
    8.8287   -5.8300   28.1600 H   0  0  0  0  0  0  0  0  0  0  0  0
    7.4508   -5.3251   29.1440 H   0  0  0  0  0  0  0  0  0  0  0  0
   10.4561    1.0772   24.1620 H   0  0  0  0  0  0  0  0  0  0  0  0
   10.8743    1.5008   22.5014 H   0  0  0  0  0  0  0  0  0  0  0  0
    7.4659   -1.2025   21.6292 H   0  0  0  0  0  0  0  0  0  0  0  0
    8.6969   -1.5747   20.4087 H   0  0  0  0  0  0  0  0  0  0  0  0
    8.3291   -0.7564   18.0959 H   0  0  0  0  0  0  0  0  0  0  0  0
  1  3  1  0  0  0  0
  1  4  2  0  0  0  0
  2  5  1  0  0  0  0
  2  6  2  0  0  0  0
  3  7  2  0  0  0  0
  4  8  1  0  0  0  0
  5  9  2  0  0  0  0
  6 14  1  0  0  0  0
  7 15  1  0  0  0  0
  8 15  2  0  0  0  0
  9 16  1  0  0  0  0
 10 12  2  0  0  0  0
 10 17  1  0  0  0  0
 11 13  1  0  0  0  0
 11 17  2  0  0  0  0
 12 18  1  0  0  0  0
 13 18  2  0  0  0  0
 14 16  1  0  0  0  0
 14 19  2  0  0  0  0
 15 25  1  0  0  0  0
 16 27  2  0  0  0  0
 17 29  1  0  0  0  0
 18 30  1  0  0  0  0
 19 26  1  0  0  0  0
 19 28  1  0  0  0  0
 20 26  1  0  0  0  0
 20 30  1  0  0  0  0
 20 31  2  0  0  0  0
 21 23  1  0  0  0  0
 21 29  1  0  0  0  0
 22 24  1  0  0  0  0
 22 29  1  0  0  0  0
 23 32  1  0  0  0  0
 24 32  1  0  0  0  0
 25 30  1  0  0  0  0
 27 28  1  0  0  0  0
  1 33  1  0  0  0  0
  2 34  1  0  0  0  0
  3 35  1  0  0  0  0
  4 36  1  0  0  0  0
  5 37  1  0  0  0  0
  6 38  1  0  0  0  0
  7 39  1  0  0  0  0
  8 40  1  0  0  0  0
  9 41  1  0  0  0  0
 10 42  1  0  0  0  0
 11 43  1  0  0  0  0
 12 44  1  0  0  0  0
 13 45  1  0  0  0  0
 21 46  1  0  0  0  0
 21 47  1  0  0  0  0
 22 48  1  0  0  0  0
 22 49  1  0  0  0  0
 23 50  1  0  0  0  0
 23 51  1  0  0  0  0
 24 52  1  0  0  0  0
 24 53  1  0  0  0  0
 25 54  1  0  0  0  0
 25 55  1  0  0  0  0
 26 56  1  0  0  0  0
 26 57  1  0  0  0  0
 28 58  1  0  0  0  0
M  END
> <clash_score>
0

> <docking_score>
-9.81371021270752

> <overlap_score>
0.9890322685241699

$$$$
BENZO_414_1
  -OEChem-08222022473D

 59 63  0     0  0  0  0  0  0999 V2000
    4.2460    1.7520   20.8250 C   0  0  0  0  0  0  0  0  0  0  0  0
    3.8860    2.1050   19.5250 C   0  0  0  0  0  0  0  0  0  0  0  0
   13.7501   -1.1157   24.6177 C   0  0  0  0  0  0  0  0  0  0  0  0
    5.3890    1.0010   21.0690 C   0  0  0  0  0  0  0  0  0  0  0  0
   12.5991   -0.3339   24.5202 C   0  0  0  0  0  0  0  0  0  0  0  0
    4.6610    1.7170   18.4380 C   0  0  0  0  0  0  0  0  0  0  0  0
    9.1890   -3.5540   24.0140 C   0  0  0  0  0  0  0  0  0  0  0  0
    7.8700   -2.0610   25.3550 C   0  0  0  0  0  0  0  0  0  0  0  0
    9.5890   -2.4950   23.2210 C   0  0  0  0  0  0  0  0  0  0  0  0
    8.2550   -1.0010   24.5520 C   0  0  0  0  0  0  0  0  0  0  0  0
   14.2636   -1.7454   23.4838 C   0  0  0  0  0  0  0  0  0  0  0  0
   12.4750   -0.8115   22.1551 C   0  0  0  0  0  0  0  0  0  0  0  0
    6.1460    0.6070   19.9750 C   0  0  0  0  0  0  0  0  0  0  0  0
   11.9616   -0.1817   23.2889 C   0  0  0  0  0  0  0  0  0  0  0  0
    5.7970    0.9500   18.6730 C   0  0  0  0  0  0  0  0  0  0  0  0
    8.3450   -3.3440   25.0980 C   0  0  0  0  0  0  0  0  0  0  0  0
    9.1280   -1.2090   23.4870 C   0  0  0  0  0  0  0  0  0  0  0  0
   13.6260   -1.5933   22.2526 C   0  0  0  0  0  0  0  0  0  0  0  0
    7.2710   -0.1460   19.8310 C   0  0  0  0  0  0  0  0  0  0  0  0
    7.2757   -5.5631   25.4492 C   0  0  0  0  0  0  0  0  0  0  0  0
    9.0430    0.2380   21.4940 C   0  0  0  0  0  0  0  0  0  0  0  0
    6.9626   -6.6001   26.5133 C   0  0  0  0  0  0  0  0  0  0  0  0
    6.3764   -5.9422   27.7501 C   0  0  0  0  0  0  0  0  0  0  0  0
    7.2660   -4.8258   28.2881 C   0  0  0  0  0  0  0  0  0  0  0  0
    8.4098   -4.4623   27.3426 C   0  0  0  0  0  0  0  0  0  0  0  0
   10.7220    0.6590   23.1850 C   0  0  0  0  0  0  0  0  0  0  0  0
    8.0950   -0.7700   20.8440 C   0  0  0  0  0  0  0  0  0  0  0  0
    6.7100    0.3850   17.8100 N   0  0  0  0  0  0  0  0  0  0  0  0
    7.5840   -0.2700   18.5160 N   0  0  0  0  0  0  0  0  0  0  0  0
    7.9658   -4.4384   25.9449 N   0  0  0  0  0  0  0  0  0  0  0  0
    9.5820   -0.1080   22.7000 N   0  0  0  0  0  0  0  0  0  0  0  0
    6.9858   -5.7908   24.2753 O   0  0  0  0  0  0  0  0  0  0  0  0
    9.2950    1.3000   20.9480 O   0  0  0  0  0  0  0  0  0  0  0  0
   14.2594   -2.3714   20.8543 Cl  0  0  0  0  0  0  0  0  0  0  0  0
    3.6316    2.0634   21.6529 H   0  0  0  0  0  0  0  0  0  0  0  0
    2.9935    2.6871   19.3570 H   0  0  0  0  0  0  0  0  0  0  0  0
   14.2462   -1.2340   25.5766 H   0  0  0  0  0  0  0  0  0  0  0  0
    5.6758    0.7297   22.1281 H   0  0  0  0  0  0  0  0  0  0  0  0
   12.2060    0.1530   25.4088 H   0  0  0  0  0  0  0  0  0  0  0  0
    4.3688    2.0204   17.3972 H   0  0  0  0  0  0  0  0  0  0  0  0
    9.5436   -4.5614   23.7799 H   0  0  0  0  0  0  0  0  0  0  0  0
    7.1918   -1.8823   26.1906 H   0  0  0  0  0  0  0  0  0  0  0  0
   10.2676   -2.6754   22.3861 H   0  0  0  0  0  0  0  0  0  0  0  0
    7.8686   -0.0026   24.7598 H   0  0  0  0  0  0  0  0  0  0  0  0
   15.1613   -2.3520   23.5748 H   0  0  0  0  0  0  0  0  0  0  0  0
   11.9745   -0.6893   21.1973 H   0  0  0  0  0  0  0  0  0  0  0  0
    6.2500   -7.3027   26.1097 H   0  0  0  0  0  0  0  0  0  0  0  0
    7.8838   -7.1078   26.7574 H   0  0  0  0  0  0  0  0  0  0  0  0
    5.3690   -5.5363   27.5214 H   0  0  0  0  0  0  0  0  0  0  0  0
    6.2178   -6.7054   28.5384 H   0  0  0  0  0  0  0  0  0  0  0  0
    6.6498   -3.9225   28.4807 H   0  0  0  0  0  0  0  0  0  0  0  0
    7.6764   -5.1138   29.2803 H   0  0  0  0  0  0  0  0  0  0  0  0
    8.7796   -3.4700   27.5826 H   0  0  0  0  0  0  0  0  0  0  0  0
    9.2112   -5.1853   27.4497 H   0  0  0  0  0  0  0  0  0  0  0  0
   10.4561    1.0772   24.1620 H   0  0  0  0  0  0  0  0  0  0  0  0
   10.8743    1.5008   22.5014 H   0  0  0  0  0  0  0  0  0  0  0  0
    7.4659   -1.2025   21.6292 H   0  0  0  0  0  0  0  0  0  0  0  0
    8.6969   -1.5747   20.4087 H   0  0  0  0  0  0  0  0  0  0  0  0
    8.3291   -0.7564   18.0959 H   0  0  0  0  0  0  0  0  0  0  0  0
  1  2  1  0  0  0  0
  1  4  2  0  0  0  0
  2  6  2  0  0  0  0
  3  5  2  0  0  0  0
  3 11  1  0  0  0  0
  4 13  1  0  0  0  0
  5 14  1  0  0  0  0
  6 15  1  0  0  0  0
  7  9  2  0  0  0  0
  7 16  1  0  0  0  0
  8 10  1  0  0  0  0
  8 16  2  0  0  0  0
  9 17  1  0  0  0  0
 10 17  2  0  0  0  0
 11 18  2  0  0  0  0
 12 14  2  0  0  0  0
 12 18  1  0  0  0  0
 13 15  1  0  0  0  0
 13 19  2  0  0  0  0
 14 26  1  0  0  0  0
 15 28  2  0  0  0  0
 16 30  1  0  0  0  0
 17 31  1  0  0  0  0
 18 34  1  0  0  0  0
 19 27  1  0  0  0  0
 19 29  1  0  0  0  0
 20 22  1  0  0  0  0
 20 30  1  0  0  0  0
 20 32  2  0  0  0  0
 21 27  1  0  0  0  0
 21 31  1  0  0  0  0
 21 33  2  0  0  0  0
 22 23  1  0  0  0  0
 23 24  1  0  0  0  0
 24 25  1  0  0  0  0
 25 30  1  0  0  0  0
 26 31  1  0  0  0  0
 28 29  1  0  0  0  0
  1 35  1  0  0  0  0
  2 36  1  0  0  0  0
  3 37  1  0  0  0  0
  4 38  1  0  0  0  0
  5 39  1  0  0  0  0
  6 40  1  0  0  0  0
  7 41  1  0  0  0  0
  8 42  1  0  0  0  0
  9 43  1  0  0  0  0
 10 44  1  0  0  0  0
 11 45  1  0  0  0  0
 12 46  1  0  0  0  0
 22 47  1  0  0  0  0
 22 48  1  0  0  0  0
 23 49  1  0  0  0  0
 23 50  1  0  0  0  0
 24 51  1  0  0  0  0
 24 52  1  0  0  0  0
 25 53  1  0  0  0  0
 25 54  1  0  0  0  0
 26 55  1  0  0  0  0
 26 56  1  0  0  0  0
 27 57  1  0  0  0  0
 27 58  1  0  0  0  0
 29 59  1  0  0  0  0
M  END
> <clash_score>
0

> <docking_score>
-8.54324722290039

> <overlap_score>
0.9984302520751953

$$$$
BENZO_416_1
  -OEChem-08222022473D

 55 59  0     0  0  0  0  0  0999 V2000
    4.2460    1.7520   20.8250 C   0  0  0  0  0  0  0  0  0  0  0  0
    3.8860    2.1050   19.5250 C   0  0  0  0  0  0  0  0  0  0  0  0
    5.3890    1.0010   21.0690 C   0  0  0  0  0  0  0  0  0  0  0  0
    4.6610    1.7170   18.4380 C   0  0  0  0  0  0  0  0  0  0  0  0
    9.1890   -3.5540   24.0140 C   0  0  0  0  0  0  0  0  0  0  0  0
    7.8700   -2.0610   25.3550 C   0  0  0  0  0  0  0  0  0  0  0  0
    9.5890   -2.4950   23.2210 C   0  0  0  0  0  0  0  0  0  0  0  0
    8.2550   -1.0010   24.5520 C   0  0  0  0  0  0  0  0  0  0  0  0
   12.6785   -0.3936   24.5018 C   0  0  0  0  0  0  0  0  0  0  0  0
   13.7775   -1.2037   24.3186 C   0  0  0  0  0  0  0  0  0  0  0  0
   12.5401   -0.8378   22.2246 C   0  0  0  0  0  0  0  0  0  0  0  0
    6.1460    0.6070   19.9750 C   0  0  0  0  0  0  0  0  0  0  0  0
   11.9616   -0.1817   23.2889 C   0  0  0  0  0  0  0  0  0  0  0  0
    5.7970    0.9500   18.6730 C   0  0  0  0  0  0  0  0  0  0  0  0
    8.3450   -3.3440   25.0980 C   0  0  0  0  0  0  0  0  0  0  0  0
    9.1280   -1.2090   23.4870 C   0  0  0  0  0  0  0  0  0  0  0  0
    7.2710   -0.1460   19.8310 C   0  0  0  0  0  0  0  0  0  0  0  0
    9.0430    0.2380   21.4940 C   0  0  0  0  0  0  0  0  0  0  0  0
    8.9524   -5.2012   26.6600 C   0  0  0  0  0  0  0  0  0  0  0  0
    6.6112   -4.5068   26.4379 C   0  0  0  0  0  0  0  0  0  0  0  0
    8.9037   -4.7845   28.1261 C   0  0  0  0  0  0  0  0  0  0  0  0
    6.6374   -4.1243   27.9184 C   0  0  0  0  0  0  0  0  0  0  0  0
   10.7220    0.6590   23.1850 C   0  0  0  0  0  0  0  0  0  0  0  0
    8.0950   -0.7700   20.8440 C   0  0  0  0  0  0  0  0  0  0  0  0
    6.7100    0.3850   17.8100 N   0  0  0  0  0  0  0  0  0  0  0  0
    7.5840   -0.2700   18.5160 N   0  0  0  0  0  0  0  0  0  0  0  0
    7.9775   -4.4014   25.9151 N   0  0  0  0  0  0  0  0  0  0  0  0
    9.5820   -0.1080   22.7000 N   0  0  0  0  0  0  0  0  0  0  0  0
    9.2950    1.3000   20.9480 O   0  0  0  0  0  0  0  0  0  0  0  0
    7.5729   -4.9391   28.6338 O   0  0  0  0  0  0  0  0  0  0  0  0
   13.9416   -1.7051   22.6894 S   0  0  0  0  0  0  0  0  0  0  0  0
    3.6316    2.0634   21.6529 H   0  0  0  0  0  0  0  0  0  0  0  0
    2.9935    2.6871   19.3570 H   0  0  0  0  0  0  0  0  0  0  0  0
    5.6758    0.7297   22.1281 H   0  0  0  0  0  0  0  0  0  0  0  0
    4.3688    2.0204   17.3972 H   0  0  0  0  0  0  0  0  0  0  0  0
    9.5426   -4.5618   23.7797 H   0  0  0  0  0  0  0  0  0  0  0  0
    7.1914   -1.8824   26.1903 H   0  0  0  0  0  0  0  0  0  0  0  0
   10.2669   -2.6745   22.3854 H   0  0  0  0  0  0  0  0  0  0  0  0
    7.8690   -0.0020   24.7587 H   0  0  0  0  0  0  0  0  0  0  0  0
   12.4058    0.0253   25.4623 H   0  0  0  0  0  0  0  0  0  0  0  0
   14.4923   -1.5246   25.0631 H   0  0  0  0  0  0  0  0  0  0  0  0
   12.2108   -0.8511   21.1948 H   0  0  0  0  0  0  0  0  0  0  0  0
    9.9615   -5.0500   26.2711 H   0  0  0  0  0  0  0  0  0  0  0  0
    8.6935   -6.2597   26.5720 H   0  0  0  0  0  0  0  0  0  0  0  0
    6.2628   -5.5350   26.3330 H   0  0  0  0  0  0  0  0  0  0  0  0
    5.9347   -3.8423   25.9023 H   0  0  0  0  0  0  0  0  0  0  0  0
    9.5597   -5.4275   28.7166 H   0  0  0  0  0  0  0  0  0  0  0  0
    9.2344   -3.7511   28.2636 H   0  0  0  0  0  0  0  0  0  0  0  0
    6.8874   -3.0657   28.0553 H   0  0  0  0  0  0  0  0  0  0  0  0
    5.6495   -4.2893   28.3591 H   0  0  0  0  0  0  0  0  0  0  0  0
   10.4561    1.0772   24.1620 H   0  0  0  0  0  0  0  0  0  0  0  0
   10.8743    1.5008   22.5014 H   0  0  0  0  0  0  0  0  0  0  0  0
    7.4659   -1.2025   21.6292 H   0  0  0  0  0  0  0  0  0  0  0  0
    8.6969   -1.5747   20.4087 H   0  0  0  0  0  0  0  0  0  0  0  0
    8.3291   -0.7564   18.0959 H   0  0  0  0  0  0  0  0  0  0  0  0
  1  2  1  0  0  0  0
  1  3  2  0  0  0  0
  2  4  2  0  0  0  0
  3 12  1  0  0  0  0
  4 14  1  0  0  0  0
  5  7  2  0  0  0  0
  5 15  1  0  0  0  0
  6  8  1  0  0  0  0
  6 15  2  0  0  0  0
  7 16  1  0  0  0  0
  8 16  2  0  0  0  0
  9 10  2  0  0  0  0
  9 13  1  0  0  0  0
 10 31  1  0  0  0  0
 11 13  2  0  0  0  0
 11 31  1  0  0  0  0
 12 14  1  0  0  0  0
 12 17  2  0  0  0  0
 13 23  1  0  0  0  0
 14 25  2  0  0  0  0
 15 27  1  0  0  0  0
 16 28  1  0  0  0  0
 17 24  1  0  0  0  0
 17 26  1  0  0  0  0
 18 24  1  0  0  0  0
 18 28  1  0  0  0  0
 18 29  2  0  0  0  0
 19 21  1  0  0  0  0
 19 27  1  0  0  0  0
 20 22  1  0  0  0  0
 20 27  1  0  0  0  0
 21 30  1  0  0  0  0
 22 30  1  0  0  0  0
 23 28  1  0  0  0  0
 25 26  1  0  0  0  0
  1 32  1  0  0  0  0
  2 33  1  0  0  0  0
  3 34  1  0  0  0  0
  4 35  1  0  0  0  0
  5 36  1  0  0  0  0
  6 37  1  0  0  0  0
  7 38  1  0  0  0  0
  8 39  1  0  0  0  0
  9 40  1  0  0  0  0
 10 41  1  0  0  0  0
 11 42  1  0  0  0  0
 19 43  1  0  0  0  0
 19 44  1  0  0  0  0
 20 45  1  0  0  0  0
 20 46  1  0  0  0  0
 21 47  1  0  0  0  0
 21 48  1  0  0  0  0
 22 49  1  0  0  0  0
 22 50  1  0  0  0  0
 23 51  1  0  0  0  0
 23 52  1  0  0  0  0
 24 53  1  0  0  0  0
 24 54  1  0  0  0  0
 26 55  1  0  0  0  0
M  END
> <clash_score>
0

> <docking_score>
-10.088217735290527

> <overlap_score>
0.9805793762207031

$$$$
BENZO_421_1
  -OEChem-08222022473D

 52 55  0     0  0  0  0  0  0999 V2000
   14.2642   -1.7450   23.4813 C   0  0  0  0  0  0  0  0  0  0  0  0
   14.0779   -0.6681   24.3480 C   0  0  0  0  0  0  0  0  0  0  0  0
   13.2991   -2.0403   22.5184 C   0  0  0  0  0  0  0  0  0  0  0  0
   12.9266    0.1135   24.2518 C   0  0  0  0  0  0  0  0  0  0  0  0
   12.1478   -1.2587   22.4222 C   0  0  0  0  0  0  0  0  0  0  0  0
    9.5890   -2.4950   23.2210 C   0  0  0  0  0  0  0  0  0  0  0  0
    8.2550   -1.0010   24.5520 C   0  0  0  0  0  0  0  0  0  0  0  0
    9.1890   -3.5540   24.0140 C   0  0  0  0  0  0  0  0  0  0  0  0
    7.8700   -2.0610   25.3550 C   0  0  0  0  0  0  0  0  0  0  0  0
   11.9616   -0.1817   23.2889 C   0  0  0  0  0  0  0  0  0  0  0  0
    9.1280   -1.2090   23.4870 C   0  0  0  0  0  0  0  0  0  0  0  0
    8.3450   -3.3440   25.0980 C   0  0  0  0  0  0  0  0  0  0  0  0
    6.1460    0.6070   19.9750 C   0  0  0  0  0  0  0  0  0  0  0  0
    7.2710   -0.1460   19.8310 C   0  0  0  0  0  0  0  0  0  0  0  0
    5.3890    1.0010   21.0690 C   0  0  0  0  0  0  0  0  0  0  0  0
    4.2460    1.7520   20.8250 C   0  0  0  0  0  0  0  0  0  0  0  0
    3.8860    2.1050   19.5250 C   0  0  0  0  0  0  0  0  0  0  0  0
    4.6610    1.7170   18.4380 C   0  0  0  0  0  0  0  0  0  0  0  0
    9.0430    0.2380   21.4940 C   0  0  0  0  0  0  0  0  0  0  0  0
    8.4648   -5.7554   25.6631 C   0  0  0  0  0  0  0  0  0  0  0  0
    7.1039   -4.1978   27.0667 C   0  0  0  0  0  0  0  0  0  0  0  0
   10.7220    0.6590   23.1850 C   0  0  0  0  0  0  0  0  0  0  0  0
    8.0950   -0.7700   20.8440 C   0  0  0  0  0  0  0  0  0  0  0  0
    7.5840   -0.2700   18.5160 N   0  0  0  0  0  0  0  0  0  0  0  0
    6.7100    0.3850   17.8100 N   0  0  0  0  0  0  0  0  0  0  0  0
    5.7970    0.9500   18.6730 N   0  0  0  0  0  0  0  0  0  0  0  0
    9.5820   -0.1080   22.7000 N   0  0  0  0  0  0  0  0  0  0  0  0
    7.9731   -4.4180   25.9279 N   0  0  0  0  0  0  0  0  0  0  0  0
    9.2950    1.3000   20.9480 O   0  0  0  0  0  0  0  0  0  0  0  0
   15.1613   -2.3527   23.5555 H   0  0  0  0  0  0  0  0  0  0  0  0
   14.8297   -0.4373   25.0971 H   0  0  0  0  0  0  0  0  0  0  0  0
   13.4443   -2.8780   21.8427 H   0  0  0  0  0  0  0  0  0  0  0  0
   12.7899    0.9506   24.9315 H   0  0  0  0  0  0  0  0  0  0  0  0
   11.4013   -1.4963   21.6690 H   0  0  0  0  0  0  0  0  0  0  0  0
   10.2682   -2.6746   22.3864 H   0  0  0  0  0  0  0  0  0  0  0  0
    7.8692   -0.0022   24.7600 H   0  0  0  0  0  0  0  0  0  0  0  0
    9.5433   -4.5619   23.7809 H   0  0  0  0  0  0  0  0  0  0  0  0
    7.1923   -1.8829   26.1908 H   0  0  0  0  0  0  0  0  0  0  0  0
    5.6533    0.7494   22.0767 H   0  0  0  0  0  0  0  0  0  0  0  0
    3.6389    2.0586   21.6677 H   0  0  0  0  0  0  0  0  0  0  0  0
    2.9824    2.6968   19.3331 H   0  0  0  0  0  0  0  0  0  0  0  0
    4.4115    1.9887   17.4356 H   0  0  0  0  0  0  0  0  0  0  0  0
    8.0645   -6.4497   26.4166 H   0  0  0  0  0  0  0  0  0  0  0  0
    8.1397   -6.0740   24.6617 H   0  0  0  0  0  0  0  0  0  0  0  0
    9.5638   -5.7578   25.7098 H   0  0  0  0  0  0  0  0  0  0  0  0
    6.9304   -5.1518   27.5862 H   0  0  0  0  0  0  0  0  0  0  0  0
    7.5783   -3.4853   27.7575 H   0  0  0  0  0  0  0  0  0  0  0  0
    6.1431   -3.7889   26.7208 H   0  0  0  0  0  0  0  0  0  0  0  0
   10.4561    1.0772   24.1620 H   0  0  0  0  0  0  0  0  0  0  0  0
   10.8743    1.5008   22.5014 H   0  0  0  0  0  0  0  0  0  0  0  0
    7.4785   -1.2070   21.6432 H   0  0  0  0  0  0  0  0  0  0  0  0
    8.7096   -1.5792   20.4228 H   0  0  0  0  0  0  0  0  0  0  0  0
  1  2  1  0  0  0  0
  1  3  2  0  0  0  0
  2  4  2  0  0  0  0
  3  5  1  0  0  0  0
  4 10  1  0  0  0  0
  5 10  2  0  0  0  0
  6  8  2  0  0  0  0
  6 11  1  0  0  0  0
  7  9  1  0  0  0  0
  7 11  2  0  0  0  0
  8 12  1  0  0  0  0
  9 12  2  0  0  0  0
 10 22  1  0  0  0  0
 11 27  1  0  0  0  0
 12 28  1  0  0  0  0
 13 14  2  0  0  0  0
 13 15  1  0  0  0  0
 13 26  1  0  0  0  0
 14 23  1  0  0  0  0
 14 24  1  0  0  0  0
 15 16  2  0  0  0  0
 16 17  1  0  0  0  0
 17 18  2  0  0  0  0
 18 26  1  0  0  0  0
 19 23  1  0  0  0  0
 19 27  1  0  0  0  0
 19 29  2  0  0  0  0
 20 28  1  0  0  0  0
 21 28  1  0  0  0  0
 22 27  1  0  0  0  0
 24 25  2  0  0  0  0
 25 26  1  0  0  0  0
  1 30  1  0  0  0  0
  2 31  1  0  0  0  0
  3 32  1  0  0  0  0
  4 33  1  0  0  0  0
  5 34  1  0  0  0  0
  6 35  1  0  0  0  0
  7 36  1  0  0  0  0
  8 37  1  0  0  0  0
  9 38  1  0  0  0  0
 15 39  1  0  0  0  0
 16 40  1  0  0  0  0
 17 41  1  0  0  0  0
 18 42  1  0  0  0  0
 20 43  1  0  0  0  0
 20 44  1  0  0  0  0
 20 45  1  0  0  0  0
 21 46  1  0  0  0  0
 21 47  1  0  0  0  0
 21 48  1  0  0  0  0
 22 49  1  0  0  0  0
 22 50  1  0  0  0  0
 23 51  1  0  0  0  0
 23 52  1  0  0  0  0
M  END
> <clash_score>
0

> <docking_score>
-9.944409370422363

> <overlap_score>
0.934490978717804

$$$$
BENZO_420_1
  -OEChem-08222022473D

 49 52  0     0  0  0  0  0  0999 V2000
    9.5890   -2.4950   23.2210 C   0  0  0  0  0  0  0  0  0  0  0  0
    8.2550   -1.0010   24.5520 C   0  0  0  0  0  0  0  0  0  0  0  0
    9.1890   -3.5540   24.0140 C   0  0  0  0  0  0  0  0  0  0  0  0
    7.8700   -2.0610   25.3550 C   0  0  0  0  0  0  0  0  0  0  0  0
   12.6785   -0.3936   24.5018 C   0  0  0  0  0  0  0  0  0  0  0  0
   13.7775   -1.2037   24.3186 C   0  0  0  0  0  0  0  0  0  0  0  0
   12.5401   -0.8378   22.2246 C   0  0  0  0  0  0  0  0  0  0  0  0
   11.9616   -0.1817   23.2889 C   0  0  0  0  0  0  0  0  0  0  0  0
    9.1280   -1.2090   23.4870 C   0  0  0  0  0  0  0  0  0  0  0  0
    8.3450   -3.3440   25.0980 C   0  0  0  0  0  0  0  0  0  0  0  0
    6.1460    0.6070   19.9750 C   0  0  0  0  0  0  0  0  0  0  0  0
    7.2710   -0.1460   19.8310 C   0  0  0  0  0  0  0  0  0  0  0  0
    5.3890    1.0010   21.0690 C   0  0  0  0  0  0  0  0  0  0  0  0
    4.2460    1.7520   20.8250 C   0  0  0  0  0  0  0  0  0  0  0  0
    3.8860    2.1050   19.5250 C   0  0  0  0  0  0  0  0  0  0  0  0
    4.6610    1.7170   18.4380 C   0  0  0  0  0  0  0  0  0  0  0  0
    9.0430    0.2380   21.4940 C   0  0  0  0  0  0  0  0  0  0  0  0
    7.2639   -5.5576   25.3810 C   0  0  0  0  0  0  0  0  0  0  0  0
    8.3067   -4.4045   27.3384 C   0  0  0  0  0  0  0  0  0  0  0  0
   10.7220    0.6590   23.1850 C   0  0  0  0  0  0  0  0  0  0  0  0
    8.0950   -0.7700   20.8440 C   0  0  0  0  0  0  0  0  0  0  0  0
    7.5840   -0.2700   18.5160 N   0  0  0  0  0  0  0  0  0  0  0  0
    6.7100    0.3850   17.8100 N   0  0  0  0  0  0  0  0  0  0  0  0
    5.7970    0.9500   18.6730 N   0  0  0  0  0  0  0  0  0  0  0  0
    9.5820   -0.1080   22.7000 N   0  0  0  0  0  0  0  0  0  0  0  0
    7.9731   -4.4180   25.9279 N   0  0  0  0  0  0  0  0  0  0  0  0
    9.2950    1.3000   20.9480 O   0  0  0  0  0  0  0  0  0  0  0  0
   13.9416   -1.7050   22.6894 S   0  0  0  0  0  0  0  0  0  0  0  0
   10.2682   -2.6746   22.3864 H   0  0  0  0  0  0  0  0  0  0  0  0
    7.8692   -0.0022   24.7600 H   0  0  0  0  0  0  0  0  0  0  0  0
    9.5433   -4.5619   23.7809 H   0  0  0  0  0  0  0  0  0  0  0  0
    7.1923   -1.8829   26.1908 H   0  0  0  0  0  0  0  0  0  0  0  0
   12.4058    0.0253   25.4623 H   0  0  0  0  0  0  0  0  0  0  0  0
   14.4923   -1.5246   25.0631 H   0  0  0  0  0  0  0  0  0  0  0  0
   12.2108   -0.8511   21.1948 H   0  0  0  0  0  0  0  0  0  0  0  0
    5.6533    0.7494   22.0767 H   0  0  0  0  0  0  0  0  0  0  0  0
    3.6389    2.0586   21.6677 H   0  0  0  0  0  0  0  0  0  0  0  0
    2.9824    2.6968   19.3331 H   0  0  0  0  0  0  0  0  0  0  0  0
    4.4115    1.9887   17.4356 H   0  0  0  0  0  0  0  0  0  0  0  0
    7.0644   -6.2848   26.1818 H   0  0  0  0  0  0  0  0  0  0  0  0
    6.3113   -5.2218   24.9452 H   0  0  0  0  0  0  0  0  0  0  0  0
    7.8775   -6.0310   24.6004 H   0  0  0  0  0  0  0  0  0  0  0  0
    7.9333   -5.3240   27.8129 H   0  0  0  0  0  0  0  0  0  0  0  0
    9.3989   -4.3487   27.4561 H   0  0  0  0  0  0  0  0  0  0  0  0
    7.8412   -3.5301   27.8167 H   0  0  0  0  0  0  0  0  0  0  0  0
   10.4561    1.0772   24.1620 H   0  0  0  0  0  0  0  0  0  0  0  0
   10.8743    1.5008   22.5014 H   0  0  0  0  0  0  0  0  0  0  0  0
    7.4785   -1.2070   21.6432 H   0  0  0  0  0  0  0  0  0  0  0  0
    8.7096   -1.5792   20.4228 H   0  0  0  0  0  0  0  0  0  0  0  0
  1  3  2  0  0  0  0
  1  9  1  0  0  0  0
  2  4  1  0  0  0  0
  2  9  2  0  0  0  0
  3 10  1  0  0  0  0
  4 10  2  0  0  0  0
  5  6  2  0  0  0  0
  5  8  1  0  0  0  0
  6 28  1  0  0  0  0
  7  8  2  0  0  0  0
  7 28  1  0  0  0  0
  8 20  1  0  0  0  0
  9 25  1  0  0  0  0
 10 26  1  0  0  0  0
 11 12  2  0  0  0  0
 11 13  1  0  0  0  0
 11 24  1  0  0  0  0
 12 21  1  0  0  0  0
 12 22  1  0  0  0  0
 13 14  2  0  0  0  0
 14 15  1  0  0  0  0
 15 16  2  0  0  0  0
 16 24  1  0  0  0  0
 17 21  1  0  0  0  0
 17 25  1  0  0  0  0
 17 27  2  0  0  0  0
 18 26  1  0  0  0  0
 19 26  1  0  0  0  0
 20 25  1  0  0  0  0
 22 23  2  0  0  0  0
 23 24  1  0  0  0  0
  1 29  1  0  0  0  0
  2 30  1  0  0  0  0
  3 31  1  0  0  0  0
  4 32  1  0  0  0  0
  5 33  1  0  0  0  0
  6 34  1  0  0  0  0
  7 35  1  0  0  0  0
 13 36  1  0  0  0  0
 14 37  1  0  0  0  0
 15 38  1  0  0  0  0
 16 39  1  0  0  0  0
 18 40  1  0  0  0  0
 18 41  1  0  0  0  0
 18 42  1  0  0  0  0
 19 43  1  0  0  0  0
 19 44  1  0  0  0  0
 19 45  1  0  0  0  0
 20 46  1  0  0  0  0
 20 47  1  0  0  0  0
 21 48  1  0  0  0  0
 21 49  1  0  0  0  0
M  END
> <clash_score>
0

> <docking_score>
-9.517464637756348

> <overlap_score>
0.9331533312797546

$$$$
BENZO_418_1
  -OEChem-08222022473D

 58 62  0     0  0  0  0  0  0999 V2000
    4.2460    1.7520   20.8250 C   0  0  0  0  0  0  0  0  0  0  0  0
    3.8860    2.1050   19.5250 C   0  0  0  0  0  0  0  0  0  0  0  0
   13.7501   -1.1157   24.6177 C   0  0  0  0  0  0  0  0  0  0  0  0
    5.3890    1.0010   21.0690 C   0  0  0  0  0  0  0  0  0  0  0  0
   12.5991   -0.3339   24.5202 C   0  0  0  0  0  0  0  0  0  0  0  0
    4.6610    1.7170   18.4380 C   0  0  0  0  0  0  0  0  0  0  0  0
    9.1890   -3.5540   24.0140 C   0  0  0  0  0  0  0  0  0  0  0  0
    7.8700   -2.0610   25.3550 C   0  0  0  0  0  0  0  0  0  0  0  0
    9.5890   -2.4950   23.2210 C   0  0  0  0  0  0  0  0  0  0  0  0
    8.2550   -1.0010   24.5520 C   0  0  0  0  0  0  0  0  0  0  0  0
   14.2636   -1.7454   23.4838 C   0  0  0  0  0  0  0  0  0  0  0  0
   12.4750   -0.8115   22.1551 C   0  0  0  0  0  0  0  0  0  0  0  0
    6.1460    0.6070   19.9750 C   0  0  0  0  0  0  0  0  0  0  0  0
   11.9616   -0.1817   23.2889 C   0  0  0  0  0  0  0  0  0  0  0  0
    5.7970    0.9500   18.6730 C   0  0  0  0  0  0  0  0  0  0  0  0
    8.3450   -3.3440   25.0980 C   0  0  0  0  0  0  0  0  0  0  0  0
    9.1280   -1.2090   23.4870 C   0  0  0  0  0  0  0  0  0  0  0  0
   13.6260   -1.5933   22.2526 C   0  0  0  0  0  0  0  0  0  0  0  0
    7.2710   -0.1460   19.8310 C   0  0  0  0  0  0  0  0  0  0  0  0
    9.0430    0.2380   21.4940 C   0  0  0  0  0  0  0  0  0  0  0  0
    8.9524   -5.2012   26.6600 C   0  0  0  0  0  0  0  0  0  0  0  0
    6.6112   -4.5068   26.4379 C   0  0  0  0  0  0  0  0  0  0  0  0
    8.9037   -4.7845   28.1261 C   0  0  0  0  0  0  0  0  0  0  0  0
    6.6374   -4.1243   27.9184 C   0  0  0  0  0  0  0  0  0  0  0  0
   10.7220    0.6590   23.1850 C   0  0  0  0  0  0  0  0  0  0  0  0
    8.0950   -0.7700   20.8440 C   0  0  0  0  0  0  0  0  0  0  0  0
    6.7100    0.3850   17.8100 N   0  0  0  0  0  0  0  0  0  0  0  0
    7.5840   -0.2700   18.5160 N   0  0  0  0  0  0  0  0  0  0  0  0
    7.9775   -4.4014   25.9151 N   0  0  0  0  0  0  0  0  0  0  0  0
    9.5820   -0.1080   22.7000 N   0  0  0  0  0  0  0  0  0  0  0  0
    9.2950    1.3000   20.9480 O   0  0  0  0  0  0  0  0  0  0  0  0
    7.5729   -4.9391   28.6338 O   0  0  0  0  0  0  0  0  0  0  0  0
   14.2594   -2.3714   20.8543 Cl  0  0  0  0  0  0  0  0  0  0  0  0
    3.6316    2.0634   21.6529 H   0  0  0  0  0  0  0  0  0  0  0  0
    2.9935    2.6871   19.3570 H   0  0  0  0  0  0  0  0  0  0  0  0
   14.2462   -1.2340   25.5767 H   0  0  0  0  0  0  0  0  0  0  0  0
    5.6758    0.7297   22.1281 H   0  0  0  0  0  0  0  0  0  0  0  0
   12.2060    0.1530   25.4088 H   0  0  0  0  0  0  0  0  0  0  0  0
    4.3688    2.0204   17.3972 H   0  0  0  0  0  0  0  0  0  0  0  0
    9.5426   -4.5618   23.7797 H   0  0  0  0  0  0  0  0  0  0  0  0
    7.1914   -1.8824   26.1903 H   0  0  0  0  0  0  0  0  0  0  0  0
   10.2669   -2.6745   22.3854 H   0  0  0  0  0  0  0  0  0  0  0  0
    7.8690   -0.0020   24.7587 H   0  0  0  0  0  0  0  0  0  0  0  0
   15.1613   -2.3520   23.5748 H   0  0  0  0  0  0  0  0  0  0  0  0
   11.9745   -0.6893   21.1973 H   0  0  0  0  0  0  0  0  0  0  0  0
    9.9615   -5.0500   26.2711 H   0  0  0  0  0  0  0  0  0  0  0  0
    8.6935   -6.2597   26.5720 H   0  0  0  0  0  0  0  0  0  0  0  0
    6.2628   -5.5350   26.3330 H   0  0  0  0  0  0  0  0  0  0  0  0
    5.9347   -3.8423   25.9023 H   0  0  0  0  0  0  0  0  0  0  0  0
    9.5597   -5.4275   28.7166 H   0  0  0  0  0  0  0  0  0  0  0  0
    9.2344   -3.7511   28.2636 H   0  0  0  0  0  0  0  0  0  0  0  0
    6.8874   -3.0657   28.0553 H   0  0  0  0  0  0  0  0  0  0  0  0
    5.6495   -4.2893   28.3591 H   0  0  0  0  0  0  0  0  0  0  0  0
   10.4561    1.0772   24.1620 H   0  0  0  0  0  0  0  0  0  0  0  0
   10.8743    1.5008   22.5014 H   0  0  0  0  0  0  0  0  0  0  0  0
    7.4659   -1.2025   21.6292 H   0  0  0  0  0  0  0  0  0  0  0  0
    8.6969   -1.5747   20.4087 H   0  0  0  0  0  0  0  0  0  0  0  0
    8.3291   -0.7564   18.0959 H   0  0  0  0  0  0  0  0  0  0  0  0
  1  2  1  0  0  0  0
  1  4  2  0  0  0  0
  2  6  2  0  0  0  0
  3  5  2  0  0  0  0
  3 11  1  0  0  0  0
  4 13  1  0  0  0  0
  5 14  1  0  0  0  0
  6 15  1  0  0  0  0
  7  9  2  0  0  0  0
  7 16  1  0  0  0  0
  8 10  1  0  0  0  0
  8 16  2  0  0  0  0
  9 17  1  0  0  0  0
 10 17  2  0  0  0  0
 11 18  2  0  0  0  0
 12 14  2  0  0  0  0
 12 18  1  0  0  0  0
 13 15  1  0  0  0  0
 13 19  2  0  0  0  0
 14 25  1  0  0  0  0
 15 27  2  0  0  0  0
 16 29  1  0  0  0  0
 17 30  1  0  0  0  0
 18 33  1  0  0  0  0
 19 26  1  0  0  0  0
 19 28  1  0  0  0  0
 20 26  1  0  0  0  0
 20 30  1  0  0  0  0
 20 31  2  0  0  0  0
 21 23  1  0  0  0  0
 21 29  1  0  0  0  0
 22 24  1  0  0  0  0
 22 29  1  0  0  0  0
 23 32  1  0  0  0  0
 24 32  1  0  0  0  0
 25 30  1  0  0  0  0
 27 28  1  0  0  0  0
  1 34  1  0  0  0  0
  2 35  1  0  0  0  0
  3 36  1  0  0  0  0
  4 37  1  0  0  0  0
  5 38  1  0  0  0  0
  6 39  1  0  0  0  0
  7 40  1  0  0  0  0
  8 41  1  0  0  0  0
  9 42  1  0  0  0  0
 10 43  1  0  0  0  0
 11 44  1  0  0  0  0
 12 45  1  0  0  0  0
 21 46  1  0  0  0  0
 21 47  1  0  0  0  0
 22 48  1  0  0  0  0
 22 49  1  0  0  0  0
 23 50  1  0  0  0  0
 23 51  1  0  0  0  0
 24 52  1  0  0  0  0
 24 53  1  0  0  0  0
 25 54  1  0  0  0  0
 25 55  1  0  0  0  0
 26 56  1  0  0  0  0
 26 57  1  0  0  0  0
 28 58  1  0  0  0  0
M  END
> <clash_score>
0

> <docking_score>
-9.601410865783691

> <overlap_score>
1.001713752746582

$$$$
BENZO_419_1
  -OEChem-08222022473D

 58 62  0     0  0  0  0  0  0999 V2000
    4.2460    1.7520   20.8250 C   0  0  0  0  0  0  0  0  0  0  0  0
    3.8860    2.1050   19.5250 C   0  0  0  0  0  0  0  0  0  0  0  0
    5.3890    1.0010   21.0690 C   0  0  0  0  0  0  0  0  0  0  0  0
    4.6610    1.7170   18.4380 C   0  0  0  0  0  0  0  0  0  0  0  0
    9.1890   -3.5540   24.0140 C   0  0  0  0  0  0  0  0  0  0  0  0
    7.8700   -2.0610   25.3550 C   0  0  0  0  0  0  0  0  0  0  0  0
    9.5890   -2.4950   23.2210 C   0  0  0  0  0  0  0  0  0  0  0  0
    8.2550   -1.0010   24.5520 C   0  0  0  0  0  0  0  0  0  0  0  0
   12.7320   -0.4464   24.4370 C   0  0  0  0  0  0  0  0  0  0  0  0
   12.5970   -0.8682   22.2832 C   0  0  0  0  0  0  0  0  0  0  0  0
    6.1460    0.6070   19.9750 C   0  0  0  0  0  0  0  0  0  0  0  0
   11.9616   -0.1817   23.2889 C   0  0  0  0  0  0  0  0  0  0  0  0
    5.7970    0.9500   18.6730 C   0  0  0  0  0  0  0  0  0  0  0  0
    8.3450   -3.3440   25.0980 C   0  0  0  0  0  0  0  0  0  0  0  0
    9.1280   -1.2090   23.4870 C   0  0  0  0  0  0  0  0  0  0  0  0
    7.2710   -0.1460   19.8310 C   0  0  0  0  0  0  0  0  0  0  0  0
    9.0430    0.2380   21.4940 C   0  0  0  0  0  0  0  0  0  0  0  0
    8.9524   -5.2012   26.6600 C   0  0  0  0  0  0  0  0  0  0  0  0
    6.6112   -4.5068   26.4379 C   0  0  0  0  0  0  0  0  0  0  0  0
    8.9037   -4.7845   28.1261 C   0  0  0  0  0  0  0  0  0  0  0  0
    6.6374   -4.1243   27.9184 C   0  0  0  0  0  0  0  0  0  0  0  0
   14.6393   -2.3180   22.2082 C   0  0  0  0  0  0  0  0  0  0  0  0
   10.7220    0.6590   23.1850 C   0  0  0  0  0  0  0  0  0  0  0  0
    8.0950   -0.7700   20.8440 C   0  0  0  0  0  0  0  0  0  0  0  0
   13.7770   -1.2393   24.1852 N   0  0  0  0  0  0  0  0  0  0  0  0
    6.7100    0.3850   17.8100 N   0  0  0  0  0  0  0  0  0  0  0  0
    7.5840   -0.2700   18.5160 N   0  0  0  0  0  0  0  0  0  0  0  0
   13.6676   -1.4788   22.8673 N   0  0  0  0  0  0  0  0  0  0  0  0
    7.9775   -4.4014   25.9151 N   0  0  0  0  0  0  0  0  0  0  0  0
    9.5820   -0.1080   22.7000 N   0  0  0  0  0  0  0  0  0  0  0  0
    9.2950    1.3000   20.9480 O   0  0  0  0  0  0  0  0  0  0  0  0
    7.5729   -4.9391   28.6338 O   0  0  0  0  0  0  0  0  0  0  0  0
    3.6316    2.0634   21.6529 H   0  0  0  0  0  0  0  0  0  0  0  0
    2.9935    2.6871   19.3570 H   0  0  0  0  0  0  0  0  0  0  0  0
    5.6758    0.7297   22.1281 H   0  0  0  0  0  0  0  0  0  0  0  0
    4.3688    2.0204   17.3972 H   0  0  0  0  0  0  0  0  0  0  0  0
    9.5426   -4.5618   23.7797 H   0  0  0  0  0  0  0  0  0  0  0  0
    7.1914   -1.8824   26.1903 H   0  0  0  0  0  0  0  0  0  0  0  0
   10.2669   -2.6745   22.3854 H   0  0  0  0  0  0  0  0  0  0  0  0
    7.8690   -0.0020   24.7587 H   0  0  0  0  0  0  0  0  0  0  0  0
   12.5771   -0.0965   25.4478 H   0  0  0  0  0  0  0  0  0  0  0  0
   12.3832   -0.9726   21.2281 H   0  0  0  0  0  0  0  0  0  0  0  0
    9.9615   -5.0500   26.2711 H   0  0  0  0  0  0  0  0  0  0  0  0
    8.6935   -6.2597   26.5720 H   0  0  0  0  0  0  0  0  0  0  0  0
    6.2628   -5.5350   26.3330 H   0  0  0  0  0  0  0  0  0  0  0  0
    5.9347   -3.8423   25.9023 H   0  0  0  0  0  0  0  0  0  0  0  0
    9.5597   -5.4275   28.7166 H   0  0  0  0  0  0  0  0  0  0  0  0
    9.2344   -3.7511   28.2636 H   0  0  0  0  0  0  0  0  0  0  0  0
    6.8874   -3.0657   28.0553 H   0  0  0  0  0  0  0  0  0  0  0  0
    5.6495   -4.2893   28.3591 H   0  0  0  0  0  0  0  0  0  0  0  0
   15.4522   -1.6787   21.8540 H   0  0  0  0  0  0  0  0  0  0  0  0
   15.0179   -3.0613   22.9154 H   0  0  0  0  0  0  0  0  0  0  0  0
   14.1626   -2.8325   21.3691 H   0  0  0  0  0  0  0  0  0  0  0  0
   10.4561    1.0772   24.1620 H   0  0  0  0  0  0  0  0  0  0  0  0
   10.8743    1.5008   22.5014 H   0  0  0  0  0  0  0  0  0  0  0  0
    7.4659   -1.2025   21.6292 H   0  0  0  0  0  0  0  0  0  0  0  0
    8.6969   -1.5747   20.4087 H   0  0  0  0  0  0  0  0  0  0  0  0
    8.3291   -0.7564   18.0959 H   0  0  0  0  0  0  0  0  0  0  0  0
  1  2  1  0  0  0  0
  1  3  2  0  0  0  0
  2  4  2  0  0  0  0
  3 11  1  0  0  0  0
  4 13  1  0  0  0  0
  5  7  2  0  0  0  0
  5 14  1  0  0  0  0
  6  8  1  0  0  0  0
  6 14  2  0  0  0  0
  7 15  1  0  0  0  0
  8 15  2  0  0  0  0
  9 12  1  0  0  0  0
  9 25  2  0  0  0  0
 10 12  2  0  0  0  0
 10 28  1  0  0  0  0
 11 13  1  0  0  0  0
 11 16  2  0  0  0  0
 12 23  1  0  0  0  0
 13 26  2  0  0  0  0
 14 29  1  0  0  0  0
 15 30  1  0  0  0  0
 16 24  1  0  0  0  0
 16 27  1  0  0  0  0
 17 24  1  0  0  0  0
 17 30  1  0  0  0  0
 17 31  2  0  0  0  0
 18 20  1  0  0  0  0
 18 29  1  0  0  0  0
 19 21  1  0  0  0  0
 19 29  1  0  0  0  0
 20 32  1  0  0  0  0
 21 32  1  0  0  0  0
 22 28  1  0  0  0  0
 23 30  1  0  0  0  0
 25 28  1  0  0  0  0
 26 27  1  0  0  0  0
  1 33  1  0  0  0  0
  2 34  1  0  0  0  0
  3 35  1  0  0  0  0
  4 36  1  0  0  0  0
  5 37  1  0  0  0  0
  6 38  1  0  0  0  0
  7 39  1  0  0  0  0
  8 40  1  0  0  0  0
  9 41  1  0  0  0  0
 10 42  1  0  0  0  0
 18 43  1  0  0  0  0
 18 44  1  0  0  0  0
 19 45  1  0  0  0  0
 19 46  1  0  0  0  0
 20 47  1  0  0  0  0
 20 48  1  0  0  0  0
 21 49  1  0  0  0  0
 21 50  1  0  0  0  0
 22 51  1  0  0  0  0
 22 52  1  0  0  0  0
 22 53  1  0  0  0  0
 23 54  1  0  0  0  0
 23 55  1  0  0  0  0
 24 56  1  0  0  0  0
 24 57  1  0  0  0  0
 27 58  1  0  0  0  0
M  END
> <clash_score>
0

> <docking_score>
-8.837443351745605

> <overlap_score>
0.9972014427185059

$$$$
BENZO_423_1
  -OEChem-08222022473D

 52 55  0     0  0  0  0  0  0999 V2000
    9.5890   -2.4950   23.2210 C   0  0  0  0  0  0  0  0  0  0  0  0
    8.2550   -1.0010   24.5520 C   0  0  0  0  0  0  0  0  0  0  0  0
    9.1890   -3.5540   24.0140 C   0  0  0  0  0  0  0  0  0  0  0  0
    7.8700   -2.0610   25.3550 C   0  0  0  0  0  0  0  0  0  0  0  0
   12.7320   -0.4464   24.4370 C   0  0  0  0  0  0  0  0  0  0  0  0
   12.5970   -0.8682   22.2832 C   0  0  0  0  0  0  0  0  0  0  0  0
   11.9616   -0.1817   23.2889 C   0  0  0  0  0  0  0  0  0  0  0  0
    9.1280   -1.2090   23.4870 C   0  0  0  0  0  0  0  0  0  0  0  0
    8.3450   -3.3440   25.0980 C   0  0  0  0  0  0  0  0  0  0  0  0
    6.1460    0.6070   19.9750 C   0  0  0  0  0  0  0  0  0  0  0  0
    7.2710   -0.1460   19.8310 C   0  0  0  0  0  0  0  0  0  0  0  0
    5.3890    1.0010   21.0690 C   0  0  0  0  0  0  0  0  0  0  0  0
    4.2460    1.7520   20.8250 C   0  0  0  0  0  0  0  0  0  0  0  0
    3.8860    2.1050   19.5250 C   0  0  0  0  0  0  0  0  0  0  0  0
    4.6610    1.7170   18.4380 C   0  0  0  0  0  0  0  0  0  0  0  0
    9.0430    0.2380   21.4940 C   0  0  0  0  0  0  0  0  0  0  0  0
   14.6393   -2.3180   22.2082 C   0  0  0  0  0  0  0  0  0  0  0  0
    7.2639   -5.5576   25.3810 C   0  0  0  0  0  0  0  0  0  0  0  0
    8.3067   -4.4045   27.3384 C   0  0  0  0  0  0  0  0  0  0  0  0
   10.7220    0.6590   23.1850 C   0  0  0  0  0  0  0  0  0  0  0  0
    8.0950   -0.7700   20.8440 C   0  0  0  0  0  0  0  0  0  0  0  0
   13.7770   -1.2393   24.1852 N   0  0  0  0  0  0  0  0  0  0  0  0
    7.5840   -0.2700   18.5160 N   0  0  0  0  0  0  0  0  0  0  0  0
    6.7100    0.3850   17.8100 N   0  0  0  0  0  0  0  0  0  0  0  0
   13.6676   -1.4788   22.8673 N   0  0  0  0  0  0  0  0  0  0  0  0
    5.7970    0.9500   18.6730 N   0  0  0  0  0  0  0  0  0  0  0  0
    9.5820   -0.1080   22.7000 N   0  0  0  0  0  0  0  0  0  0  0  0
    7.9731   -4.4180   25.9279 N   0  0  0  0  0  0  0  0  0  0  0  0
    9.2950    1.3000   20.9480 O   0  0  0  0  0  0  0  0  0  0  0  0
   10.2682   -2.6746   22.3864 H   0  0  0  0  0  0  0  0  0  0  0  0
    7.8692   -0.0022   24.7600 H   0  0  0  0  0  0  0  0  0  0  0  0
    9.5433   -4.5619   23.7809 H   0  0  0  0  0  0  0  0  0  0  0  0
    7.1923   -1.8829   26.1908 H   0  0  0  0  0  0  0  0  0  0  0  0
   12.5771   -0.0965   25.4478 H   0  0  0  0  0  0  0  0  0  0  0  0
   12.3832   -0.9726   21.2281 H   0  0  0  0  0  0  0  0  0  0  0  0
    5.6533    0.7494   22.0767 H   0  0  0  0  0  0  0  0  0  0  0  0
    3.6389    2.0586   21.6677 H   0  0  0  0  0  0  0  0  0  0  0  0
    2.9824    2.6968   19.3331 H   0  0  0  0  0  0  0  0  0  0  0  0
    4.4115    1.9887   17.4356 H   0  0  0  0  0  0  0  0  0  0  0  0
   15.4522   -1.6787   21.8540 H   0  0  0  0  0  0  0  0  0  0  0  0
   15.0179   -3.0612   22.9154 H   0  0  0  0  0  0  0  0  0  0  0  0
   14.1626   -2.8324   21.3691 H   0  0  0  0  0  0  0  0  0  0  0  0
    7.0644   -6.2848   26.1818 H   0  0  0  0  0  0  0  0  0  0  0  0
    6.3113   -5.2218   24.9452 H   0  0  0  0  0  0  0  0  0  0  0  0
    7.8775   -6.0310   24.6004 H   0  0  0  0  0  0  0  0  0  0  0  0
    7.9333   -5.3240   27.8129 H   0  0  0  0  0  0  0  0  0  0  0  0
    9.3989   -4.3487   27.4561 H   0  0  0  0  0  0  0  0  0  0  0  0
    7.8412   -3.5301   27.8167 H   0  0  0  0  0  0  0  0  0  0  0  0
   10.4561    1.0772   24.1620 H   0  0  0  0  0  0  0  0  0  0  0  0
   10.8743    1.5008   22.5014 H   0  0  0  0  0  0  0  0  0  0  0  0
    7.4785   -1.2070   21.6432 H   0  0  0  0  0  0  0  0  0  0  0  0
    8.7096   -1.5792   20.4228 H   0  0  0  0  0  0  0  0  0  0  0  0
  1  3  2  0  0  0  0
  1  8  1  0  0  0  0
  2  4  1  0  0  0  0
  2  8  2  0  0  0  0
  3  9  1  0  0  0  0
  4  9  2  0  0  0  0
  5  7  1  0  0  0  0
  5 22  2  0  0  0  0
  6  7  2  0  0  0  0
  6 25  1  0  0  0  0
  7 20  1  0  0  0  0
  8 27  1  0  0  0  0
  9 28  1  0  0  0  0
 10 11  2  0  0  0  0
 10 12  1  0  0  0  0
 10 26  1  0  0  0  0
 11 21  1  0  0  0  0
 11 23  1  0  0  0  0
 12 13  2  0  0  0  0
 13 14  1  0  0  0  0
 14 15  2  0  0  0  0
 15 26  1  0  0  0  0
 16 21  1  0  0  0  0
 16 27  1  0  0  0  0
 16 29  2  0  0  0  0
 17 25  1  0  0  0  0
 18 28  1  0  0  0  0
 19 28  1  0  0  0  0
 20 27  1  0  0  0  0
 22 25  1  0  0  0  0
 23 24  2  0  0  0  0
 24 26  1  0  0  0  0
  1 30  1  0  0  0  0
  2 31  1  0  0  0  0
  3 32  1  0  0  0  0
  4 33  1  0  0  0  0
  5 34  1  0  0  0  0
  6 35  1  0  0  0  0
 12 36  1  0  0  0  0
 13 37  1  0  0  0  0
 14 38  1  0  0  0  0
 15 39  1  0  0  0  0
 17 40  1  0  0  0  0
 17 41  1  0  0  0  0
 17 42  1  0  0  0  0
 18 43  1  0  0  0  0
 18 44  1  0  0  0  0
 18 45  1  0  0  0  0
 19 46  1  0  0  0  0
 19 47  1  0  0  0  0
 19 48  1  0  0  0  0
 20 49  1  0  0  0  0
 20 50  1  0  0  0  0
 21 51  1  0  0  0  0
 21 52  1  0  0  0  0
M  END
> <clash_score>
0

> <docking_score>
-8.266681671142578

> <overlap_score>
0.9499831795692444

$$$$
BENZO_422_1
  -OEChem-08222022473D

 52 55  0     0  0  0  0  0  0999 V2000
   13.7501   -1.1157   24.6176 C   0  0  0  0  0  0  0  0  0  0  0  0
   12.5991   -0.3339   24.5202 C   0  0  0  0  0  0  0  0  0  0  0  0
    9.5890   -2.4950   23.2210 C   0  0  0  0  0  0  0  0  0  0  0  0
    8.2550   -1.0010   24.5520 C   0  0  0  0  0  0  0  0  0  0  0  0
    9.1890   -3.5540   24.0140 C   0  0  0  0  0  0  0  0  0  0  0  0
    7.8700   -2.0610   25.3550 C   0  0  0  0  0  0  0  0  0  0  0  0
   14.2636   -1.7454   23.4838 C   0  0  0  0  0  0  0  0  0  0  0  0
   12.4750   -0.8115   22.1551 C   0  0  0  0  0  0  0  0  0  0  0  0
   11.9616   -0.1817   23.2889 C   0  0  0  0  0  0  0  0  0  0  0  0
    9.1280   -1.2090   23.4870 C   0  0  0  0  0  0  0  0  0  0  0  0
    8.3450   -3.3440   25.0980 C   0  0  0  0  0  0  0  0  0  0  0  0
   13.6261   -1.5933   22.2526 C   0  0  0  0  0  0  0  0  0  0  0  0
    6.1460    0.6070   19.9750 C   0  0  0  0  0  0  0  0  0  0  0  0
    7.2710   -0.1460   19.8310 C   0  0  0  0  0  0  0  0  0  0  0  0
    5.3890    1.0010   21.0690 C   0  0  0  0  0  0  0  0  0  0  0  0
    4.2460    1.7520   20.8250 C   0  0  0  0  0  0  0  0  0  0  0  0
    3.8860    2.1050   19.5250 C   0  0  0  0  0  0  0  0  0  0  0  0
    4.6610    1.7170   18.4380 C   0  0  0  0  0  0  0  0  0  0  0  0
    9.0430    0.2380   21.4940 C   0  0  0  0  0  0  0  0  0  0  0  0
    7.2639   -5.5576   25.3810 C   0  0  0  0  0  0  0  0  0  0  0  0
    8.3067   -4.4045   27.3384 C   0  0  0  0  0  0  0  0  0  0  0  0
   10.7220    0.6590   23.1850 C   0  0  0  0  0  0  0  0  0  0  0  0
    8.0950   -0.7700   20.8440 C   0  0  0  0  0  0  0  0  0  0  0  0
    7.5840   -0.2700   18.5160 N   0  0  0  0  0  0  0  0  0  0  0  0
    6.7100    0.3850   17.8100 N   0  0  0  0  0  0  0  0  0  0  0  0
    5.7970    0.9500   18.6730 N   0  0  0  0  0  0  0  0  0  0  0  0
    9.5820   -0.1080   22.7000 N   0  0  0  0  0  0  0  0  0  0  0  0
    7.9731   -4.4180   25.9279 N   0  0  0  0  0  0  0  0  0  0  0  0
    9.2950    1.3000   20.9480 O   0  0  0  0  0  0  0  0  0  0  0  0
   14.2594   -2.3714   20.8543 Cl  0  0  0  0  0  0  0  0  0  0  0  0
   14.2462   -1.2340   25.5766 H   0  0  0  0  0  0  0  0  0  0  0  0
   12.2060    0.1530   25.4088 H   0  0  0  0  0  0  0  0  0  0  0  0
   10.2682   -2.6746   22.3864 H   0  0  0  0  0  0  0  0  0  0  0  0
    7.8692   -0.0022   24.7600 H   0  0  0  0  0  0  0  0  0  0  0  0
    9.5433   -4.5619   23.7809 H   0  0  0  0  0  0  0  0  0  0  0  0
    7.1923   -1.8829   26.1908 H   0  0  0  0  0  0  0  0  0  0  0  0
   15.1613   -2.3520   23.5747 H   0  0  0  0  0  0  0  0  0  0  0  0
   11.9745   -0.6893   21.1973 H   0  0  0  0  0  0  0  0  0  0  0  0
    5.6533    0.7494   22.0767 H   0  0  0  0  0  0  0  0  0  0  0  0
    3.6389    2.0586   21.6677 H   0  0  0  0  0  0  0  0  0  0  0  0
    2.9824    2.6968   19.3331 H   0  0  0  0  0  0  0  0  0  0  0  0
    4.4115    1.9887   17.4356 H   0  0  0  0  0  0  0  0  0  0  0  0
    7.0644   -6.2848   26.1818 H   0  0  0  0  0  0  0  0  0  0  0  0
    6.3113   -5.2218   24.9452 H   0  0  0  0  0  0  0  0  0  0  0  0
    7.8775   -6.0310   24.6004 H   0  0  0  0  0  0  0  0  0  0  0  0
    7.9333   -5.3240   27.8129 H   0  0  0  0  0  0  0  0  0  0  0  0
    9.3989   -4.3487   27.4561 H   0  0  0  0  0  0  0  0  0  0  0  0
    7.8412   -3.5301   27.8167 H   0  0  0  0  0  0  0  0  0  0  0  0
   10.4561    1.0772   24.1620 H   0  0  0  0  0  0  0  0  0  0  0  0
   10.8743    1.5008   22.5014 H   0  0  0  0  0  0  0  0  0  0  0  0
    7.4785   -1.2070   21.6432 H   0  0  0  0  0  0  0  0  0  0  0  0
    8.7096   -1.5792   20.4228 H   0  0  0  0  0  0  0  0  0  0  0  0
  1  2  2  0  0  0  0
  1  7  1  0  0  0  0
  2  9  1  0  0  0  0
  3  5  2  0  0  0  0
  3 10  1  0  0  0  0
  4  6  1  0  0  0  0
  4 10  2  0  0  0  0
  5 11  1  0  0  0  0
  6 11  2  0  0  0  0
  7 12  2  0  0  0  0
  8  9  2  0  0  0  0
  8 12  1  0  0  0  0
  9 22  1  0  0  0  0
 10 27  1  0  0  0  0
 11 28  1  0  0  0  0
 12 30  1  0  0  0  0
 13 14  2  0  0  0  0
 13 15  1  0  0  0  0
 13 26  1  0  0  0  0
 14 23  1  0  0  0  0
 14 24  1  0  0  0  0
 15 16  2  0  0  0  0
 16 17  1  0  0  0  0
 17 18  2  0  0  0  0
 18 26  1  0  0  0  0
 19 23  1  0  0  0  0
 19 27  1  0  0  0  0
 19 29  2  0  0  0  0
 20 28  1  0  0  0  0
 21 28  1  0  0  0  0
 22 27  1  0  0  0  0
 24 25  2  0  0  0  0
 25 26  1  0  0  0  0
  1 31  1  0  0  0  0
  2 32  1  0  0  0  0
  3 33  1  0  0  0  0
  4 34  1  0  0  0  0
  5 35  1  0  0  0  0
  6 36  1  0  0  0  0
  7 37  1  0  0  0  0
  8 38  1  0  0  0  0
 15 39  1  0  0  0  0
 16 40  1  0  0  0  0
 17 41  1  0  0  0  0
 18 42  1  0  0  0  0
 20 43  1  0  0  0  0
 20 44  1  0  0  0  0
 20 45  1  0  0  0  0
 21 46  1  0  0  0  0
 21 47  1  0  0  0  0
 21 48  1  0  0  0  0
 22 49  1  0  0  0  0
 22 50  1  0  0  0  0
 23 51  1  0  0  0  0
 23 52  1  0  0  0  0
M  END
> <clash_score>
0

> <docking_score>
-9.030655860900879

> <overlap_score>
0.9545671343803406

$$$$
BENZO_425_1
  -OEChem-08222022473D

 54 57  0     0  0  0  0  0  0999 V2000
   14.2642   -1.7450   23.4813 C   0  0  0  0  0  0  0  0  0  0  0  0
   14.0779   -0.6681   24.3480 C   0  0  0  0  0  0  0  0  0  0  0  0
   13.2991   -2.0403   22.5184 C   0  0  0  0  0  0  0  0  0  0  0  0
   12.9266    0.1135   24.2518 C   0  0  0  0  0  0  0  0  0  0  0  0
   12.1478   -1.2587   22.4222 C   0  0  0  0  0  0  0  0  0  0  0  0
    9.1890   -3.5540   24.0140 C   0  0  0  0  0  0  0  0  0  0  0  0
    7.8700   -2.0610   25.3550 C   0  0  0  0  0  0  0  0  0  0  0  0
    9.5890   -2.4950   23.2210 C   0  0  0  0  0  0  0  0  0  0  0  0
    8.2550   -1.0010   24.5520 C   0  0  0  0  0  0  0  0  0  0  0  0
   11.9616   -0.1817   23.2889 C   0  0  0  0  0  0  0  0  0  0  0  0
    8.3450   -3.3440   25.0980 C   0  0  0  0  0  0  0  0  0  0  0  0
    9.1280   -1.2090   23.4870 C   0  0  0  0  0  0  0  0  0  0  0  0
    6.1460    0.6070   19.9750 C   0  0  0  0  0  0  0  0  0  0  0  0
    7.2710   -0.1460   19.8310 C   0  0  0  0  0  0  0  0  0  0  0  0
    5.3890    1.0010   21.0690 C   0  0  0  0  0  0  0  0  0  0  0  0
    4.2460    1.7520   20.8250 C   0  0  0  0  0  0  0  0  0  0  0  0
    3.8860    2.1050   19.5250 C   0  0  0  0  0  0  0  0  0  0  0  0
    4.6610    1.7170   18.4380 C   0  0  0  0  0  0  0  0  0  0  0  0
    9.0430    0.2380   21.4940 C   0  0  0  0  0  0  0  0  0  0  0  0
    7.1416   -4.3811   27.0481 C   0  0  0  0  0  0  0  0  0  0  0  0
    8.0777   -6.0682   28.6861 C   0  0  0  0  0  0  0  0  0  0  0  0
   10.7220    0.6590   23.1850 C   0  0  0  0  0  0  0  0  0  0  0  0
    8.0950   -0.7700   20.8440 C   0  0  0  0  0  0  0  0  0  0  0  0
    7.0012   -5.7676   27.6587 C   0  0  0  0  0  0  0  0  0  0  0  0
    7.5840   -0.2700   18.5160 N   0  0  0  0  0  0  0  0  0  0  0  0
    6.7100    0.3850   17.8100 N   0  0  0  0  0  0  0  0  0  0  0  0
    5.7970    0.9500   18.6730 N   0  0  0  0  0  0  0  0  0  0  0  0
    7.9771   -4.4058   25.9196 N   0  0  0  0  0  0  0  0  0  0  0  0
    9.5820   -0.1080   22.7000 N   0  0  0  0  0  0  0  0  0  0  0  0
    9.2950    1.3000   20.9480 O   0  0  0  0  0  0  0  0  0  0  0  0
    6.5750   -3.4015   27.5212 O   0  0  0  0  0  0  0  0  0  0  0  0
   15.1613   -2.3527   23.5555 H   0  0  0  0  0  0  0  0  0  0  0  0
   14.8297   -0.4373   25.0971 H   0  0  0  0  0  0  0  0  0  0  0  0
   13.4443   -2.8780   21.8427 H   0  0  0  0  0  0  0  0  0  0  0  0
   12.7899    0.9506   24.9315 H   0  0  0  0  0  0  0  0  0  0  0  0
   11.4013   -1.4963   21.6690 H   0  0  0  0  0  0  0  0  0  0  0  0
    9.5436   -4.5614   23.7799 H   0  0  0  0  0  0  0  0  0  0  0  0
    7.1918   -1.8823   26.1906 H   0  0  0  0  0  0  0  0  0  0  0  0
   10.2676   -2.6754   22.3861 H   0  0  0  0  0  0  0  0  0  0  0  0
    7.8686   -0.0026   24.7598 H   0  0  0  0  0  0  0  0  0  0  0  0
    5.6533    0.7494   22.0767 H   0  0  0  0  0  0  0  0  0  0  0  0
    3.6389    2.0586   21.6677 H   0  0  0  0  0  0  0  0  0  0  0  0
    2.9824    2.6968   19.3331 H   0  0  0  0  0  0  0  0  0  0  0  0
    4.4115    1.9887   17.4356 H   0  0  0  0  0  0  0  0  0  0  0  0
    9.0759   -6.0018   28.2408 H   0  0  0  0  0  0  0  0  0  0  0  0
    7.9492   -7.0777   29.0885 H   0  0  0  0  0  0  0  0  0  0  0  0
    8.0344   -5.3596   29.5198 H   0  0  0  0  0  0  0  0  0  0  0  0
   10.4561    1.0772   24.1620 H   0  0  0  0  0  0  0  0  0  0  0  0
   10.8743    1.5008   22.5014 H   0  0  0  0  0  0  0  0  0  0  0  0
    7.4785   -1.2070   21.6432 H   0  0  0  0  0  0  0  0  0  0  0  0
    8.7096   -1.5792   20.4228 H   0  0  0  0  0  0  0  0  0  0  0  0
    6.0148   -5.8410   28.1308 H   0  0  0  0  0  0  0  0  0  0  0  0
    7.0480   -6.5088   26.8526 H   0  0  0  0  0  0  0  0  0  0  0  0
    8.3619   -5.3256   25.6749 H   0  0  0  0  0  0  0  0  0  0  0  0
  1  2  1  0  0  0  0
  1  3  2  0  0  0  0
  2  4  2  0  0  0  0
  3  5  1  0  0  0  0
  4 10  1  0  0  0  0
  5 10  2  0  0  0  0
  6  8  2  0  0  0  0
  6 11  1  0  0  0  0
  7  9  1  0  0  0  0
  7 11  2  0  0  0  0
  8 12  1  0  0  0  0
  9 12  2  0  0  0  0
 10 22  1  0  0  0  0
 11 28  1  0  0  0  0
 12 29  1  0  0  0  0
 13 14  2  0  0  0  0
 13 15  1  0  0  0  0
 13 27  1  0  0  0  0
 14 23  1  0  0  0  0
 14 25  1  0  0  0  0
 15 16  2  0  0  0  0
 16 17  1  0  0  0  0
 17 18  2  0  0  0  0
 18 27  1  0  0  0  0
 19 23  1  0  0  0  0
 19 29  1  0  0  0  0
 19 30  2  0  0  0  0
 20 24  1  0  0  0  0
 20 28  1  0  0  0  0
 20 31  2  0  0  0  0
 21 24  1  0  0  0  0
 22 29  1  0  0  0  0
 25 26  2  0  0  0  0
 26 27  1  0  0  0  0
  1 32  1  0  0  0  0
  2 33  1  0  0  0  0
  3 34  1  0  0  0  0
  4 35  1  0  0  0  0
  5 36  1  0  0  0  0
  6 37  1  0  0  0  0
  7 38  1  0  0  0  0
  8 39  1  0  0  0  0
  9 40  1  0  0  0  0
 15 41  1  0  0  0  0
 16 42  1  0  0  0  0
 17 43  1  0  0  0  0
 18 44  1  0  0  0  0
 21 45  1  0  0  0  0
 21 46  1  0  0  0  0
 21 47  1  0  0  0  0
 22 48  1  0  0  0  0
 22 49  1  0  0  0  0
 23 50  1  0  0  0  0
 23 51  1  0  0  0  0
 24 52  1  0  0  0  0
 24 53  1  0  0  0  0
 28 54  1  0  0  0  0
M  END
> <clash_score>
0

> <docking_score>
-9.506197929382324

> <overlap_score>
0.9713184833526611

$$$$
BENZO_424_1
  -OEChem-08222022473D

 51 54  0     0  0  0  0  0  0999 V2000
    9.1890   -3.5540   24.0140 C   0  0  0  0  0  0  0  0  0  0  0  0
    7.8700   -2.0610   25.3550 C   0  0  0  0  0  0  0  0  0  0  0  0
    9.5890   -2.4950   23.2210 C   0  0  0  0  0  0  0  0  0  0  0  0
    8.2550   -1.0010   24.5520 C   0  0  0  0  0  0  0  0  0  0  0  0
   12.6785   -0.3936   24.5018 C   0  0  0  0  0  0  0  0  0  0  0  0
   13.7775   -1.2037   24.3186 C   0  0  0  0  0  0  0  0  0  0  0  0
   12.5401   -0.8378   22.2246 C   0  0  0  0  0  0  0  0  0  0  0  0
   11.9616   -0.1817   23.2889 C   0  0  0  0  0  0  0  0  0  0  0  0
    8.3450   -3.3440   25.0980 C   0  0  0  0  0  0  0  0  0  0  0  0
    9.1280   -1.2090   23.4870 C   0  0  0  0  0  0  0  0  0  0  0  0
    6.1460    0.6070   19.9750 C   0  0  0  0  0  0  0  0  0  0  0  0
    7.2710   -0.1460   19.8310 C   0  0  0  0  0  0  0  0  0  0  0  0
    5.3890    1.0010   21.0690 C   0  0  0  0  0  0  0  0  0  0  0  0
    4.2460    1.7520   20.8250 C   0  0  0  0  0  0  0  0  0  0  0  0
    3.8860    2.1050   19.5250 C   0  0  0  0  0  0  0  0  0  0  0  0
    4.6610    1.7170   18.4380 C   0  0  0  0  0  0  0  0  0  0  0  0
    9.0430    0.2380   21.4940 C   0  0  0  0  0  0  0  0  0  0  0  0
    8.2027   -4.5557   27.2976 C   0  0  0  0  0  0  0  0  0  0  0  0
    7.8896   -6.0861   29.2889 C   0  0  0  0  0  0  0  0  0  0  0  0
   10.7220    0.6590   23.1850 C   0  0  0  0  0  0  0  0  0  0  0  0
    8.0950   -0.7700   20.8440 C   0  0  0  0  0  0  0  0  0  0  0  0
    7.6349   -5.8718   27.8077 C   0  0  0  0  0  0  0  0  0  0  0  0
    7.5840   -0.2700   18.5160 N   0  0  0  0  0  0  0  0  0  0  0  0
    6.7100    0.3850   17.8100 N   0  0  0  0  0  0  0  0  0  0  0  0
    5.7970    0.9500   18.6730 N   0  0  0  0  0  0  0  0  0  0  0  0
    7.9771   -4.4058   25.9196 N   0  0  0  0  0  0  0  0  0  0  0  0
    9.5820   -0.1080   22.7000 N   0  0  0  0  0  0  0  0  0  0  0  0
    9.2950    1.3000   20.9480 O   0  0  0  0  0  0  0  0  0  0  0  0
    8.7747   -3.7632   28.0387 O   0  0  0  0  0  0  0  0  0  0  0  0
   13.9416   -1.7050   22.6894 S   0  0  0  0  0  0  0  0  0  0  0  0
    9.5436   -4.5614   23.7799 H   0  0  0  0  0  0  0  0  0  0  0  0
    7.1918   -1.8823   26.1906 H   0  0  0  0  0  0  0  0  0  0  0  0
   10.2676   -2.6754   22.3861 H   0  0  0  0  0  0  0  0  0  0  0  0
    7.8686   -0.0026   24.7598 H   0  0  0  0  0  0  0  0  0  0  0  0
   12.4058    0.0253   25.4623 H   0  0  0  0  0  0  0  0  0  0  0  0
   14.4923   -1.5246   25.0631 H   0  0  0  0  0  0  0  0  0  0  0  0
   12.2108   -0.8511   21.1948 H   0  0  0  0  0  0  0  0  0  0  0  0
    5.6533    0.7494   22.0767 H   0  0  0  0  0  0  0  0  0  0  0  0
    3.6389    2.0586   21.6677 H   0  0  0  0  0  0  0  0  0  0  0  0
    2.9824    2.6968   19.3331 H   0  0  0  0  0  0  0  0  0  0  0  0
    4.4115    1.9887   17.4356 H   0  0  0  0  0  0  0  0  0  0  0  0
    8.9624   -6.0810   29.5082 H   0  0  0  0  0  0  0  0  0  0  0  0
    7.4794   -7.0482   29.6108 H   0  0  0  0  0  0  0  0  0  0  0  0
    7.4210   -5.2973   29.8865 H   0  0  0  0  0  0  0  0  0  0  0  0
   10.4561    1.0772   24.1620 H   0  0  0  0  0  0  0  0  0  0  0  0
   10.8743    1.5008   22.5014 H   0  0  0  0  0  0  0  0  0  0  0  0
    7.4785   -1.2070   21.6432 H   0  0  0  0  0  0  0  0  0  0  0  0
    8.7096   -1.5792   20.4228 H   0  0  0  0  0  0  0  0  0  0  0  0
    6.5555   -5.8816   27.6174 H   0  0  0  0  0  0  0  0  0  0  0  0
    8.0878   -6.6904   27.2366 H   0  0  0  0  0  0  0  0  0  0  0  0
    7.4775   -5.1801   25.4670 H   0  0  0  0  0  0  0  0  0  0  0  0
  1  3  2  0  0  0  0
  1  9  1  0  0  0  0
  2  4  1  0  0  0  0
  2  9  2  0  0  0  0
  3 10  1  0  0  0  0
  4 10  2  0  0  0  0
  5  6  2  0  0  0  0
  5  8  1  0  0  0  0
  6 30  1  0  0  0  0
  7  8  2  0  0  0  0
  7 30  1  0  0  0  0
  8 20  1  0  0  0  0
  9 26  1  0  0  0  0
 10 27  1  0  0  0  0
 11 12  2  0  0  0  0
 11 13  1  0  0  0  0
 11 25  1  0  0  0  0
 12 21  1  0  0  0  0
 12 23  1  0  0  0  0
 13 14  2  0  0  0  0
 14 15  1  0  0  0  0
 15 16  2  0  0  0  0
 16 25  1  0  0  0  0
 17 21  1  0  0  0  0
 17 27  1  0  0  0  0
 17 28  2  0  0  0  0
 18 22  1  0  0  0  0
 18 26  1  0  0  0  0
 18 29  2  0  0  0  0
 19 22  1  0  0  0  0
 20 27  1  0  0  0  0
 23 24  2  0  0  0  0
 24 25  1  0  0  0  0
  1 31  1  0  0  0  0
  2 32  1  0  0  0  0
  3 33  1  0  0  0  0
  4 34  1  0  0  0  0
  5 35  1  0  0  0  0
  6 36  1  0  0  0  0
  7 37  1  0  0  0  0
 13 38  1  0  0  0  0
 14 39  1  0  0  0  0
 15 40  1  0  0  0  0
 16 41  1  0  0  0  0
 19 42  1  0  0  0  0
 19 43  1  0  0  0  0
 19 44  1  0  0  0  0
 20 45  1  0  0  0  0
 20 46  1  0  0  0  0
 21 47  1  0  0  0  0
 21 48  1  0  0  0  0
 22 49  1  0  0  0  0
 22 50  1  0  0  0  0
 26 51  1  0  0  0  0
M  END
> <clash_score>
0

> <docking_score>
-9.791579246520996

> <overlap_score>
0.9895378351211548

$$$$
BENZO_429_1
  -OEChem-08222022473D

 59 63  0     0  0  0  0  0  0999 V2000
   14.2642   -1.7450   23.4813 C   0  0  0  0  0  0  0  0  0  0  0  0
   14.0779   -0.6681   24.3480 C   0  0  0  0  0  0  0  0  0  0  0  0
   13.2991   -2.0403   22.5184 C   0  0  0  0  0  0  0  0  0  0  0  0
   12.9266    0.1135   24.2518 C   0  0  0  0  0  0  0  0  0  0  0  0
   12.1478   -1.2587   22.4222 C   0  0  0  0  0  0  0  0  0  0  0  0
    9.1890   -3.5540   24.0140 C   0  0  0  0  0  0  0  0  0  0  0  0
    7.8700   -2.0610   25.3550 C   0  0  0  0  0  0  0  0  0  0  0  0
    9.5890   -2.4950   23.2210 C   0  0  0  0  0  0  0  0  0  0  0  0
    8.2550   -1.0010   24.5520 C   0  0  0  0  0  0  0  0  0  0  0  0
   11.9616   -0.1817   23.2889 C   0  0  0  0  0  0  0  0  0  0  0  0
    8.3450   -3.3440   25.0980 C   0  0  0  0  0  0  0  0  0  0  0  0
    9.1280   -1.2090   23.4870 C   0  0  0  0  0  0  0  0  0  0  0  0
    6.1460    0.6070   19.9750 C   0  0  0  0  0  0  0  0  0  0  0  0
    7.2710   -0.1460   19.8310 C   0  0  0  0  0  0  0  0  0  0  0  0
    5.3890    1.0010   21.0690 C   0  0  0  0  0  0  0  0  0  0  0  0
    4.2460    1.7520   20.8250 C   0  0  0  0  0  0  0  0  0  0  0  0
    3.8860    2.1050   19.5250 C   0  0  0  0  0  0  0  0  0  0  0  0
    4.6610    1.7170   18.4380 C   0  0  0  0  0  0  0  0  0  0  0  0
    9.0430    0.2380   21.4940 C   0  0  0  0  0  0  0  0  0  0  0  0
    7.3495   -6.6199   27.6701 C   0  0  0  0  0  0  0  0  0  0  0  0
    6.9542   -6.6348   26.1986 C   0  0  0  0  0  0  0  0  0  0  0  0
    7.3959   -5.1872   28.1871 C   0  0  0  0  0  0  0  0  0  0  0  0
    7.8834   -5.7613   25.3569 C   0  0  0  0  0  0  0  0  0  0  0  0
    8.3297   -4.3204   27.3453 C   0  0  0  0  0  0  0  0  0  0  0  0
   10.7220    0.6590   23.1850 C   0  0  0  0  0  0  0  0  0  0  0  0
    8.0950   -0.7700   20.8440 C   0  0  0  0  0  0  0  0  0  0  0  0
    7.5840   -0.2700   18.5160 N   0  0  0  0  0  0  0  0  0  0  0  0
    6.7100    0.3850   17.8100 N   0  0  0  0  0  0  0  0  0  0  0  0
    5.7970    0.9500   18.6730 N   0  0  0  0  0  0  0  0  0  0  0  0
    7.9745   -4.4101   25.9218 N   0  0  0  0  0  0  0  0  0  0  0  0
    9.5820   -0.1080   22.7000 N   0  0  0  0  0  0  0  0  0  0  0  0
    9.2950    1.3000   20.9480 O   0  0  0  0  0  0  0  0  0  0  0  0
   15.1613   -2.3527   23.5555 H   0  0  0  0  0  0  0  0  0  0  0  0
   14.8297   -0.4373   25.0971 H   0  0  0  0  0  0  0  0  0  0  0  0
   13.4443   -2.8780   21.8427 H   0  0  0  0  0  0  0  0  0  0  0  0
   12.7899    0.9506   24.9315 H   0  0  0  0  0  0  0  0  0  0  0  0
   11.4013   -1.4963   21.6690 H   0  0  0  0  0  0  0  0  0  0  0  0
    9.5426   -4.5618   23.7797 H   0  0  0  0  0  0  0  0  0  0  0  0
    7.1914   -1.8824   26.1903 H   0  0  0  0  0  0  0  0  0  0  0  0
   10.2669   -2.6745   22.3854 H   0  0  0  0  0  0  0  0  0  0  0  0
    7.8690   -0.0020   24.7587 H   0  0  0  0  0  0  0  0  0  0  0  0
    5.6533    0.7494   22.0767 H   0  0  0  0  0  0  0  0  0  0  0  0
    3.6389    2.0586   21.6677 H   0  0  0  0  0  0  0  0  0  0  0  0
    2.9824    2.6968   19.3331 H   0  0  0  0  0  0  0  0  0  0  0  0
    4.4115    1.9887   17.4356 H   0  0  0  0  0  0  0  0  0  0  0  0
    6.6275   -7.2030   28.2544 H   0  0  0  0  0  0  0  0  0  0  0  0
    8.3286   -7.0944   27.7981 H   0  0  0  0  0  0  0  0  0  0  0  0
    6.9785   -7.6646   25.8205 H   0  0  0  0  0  0  0  0  0  0  0  0
    5.9224   -6.2815   26.0912 H   0  0  0  0  0  0  0  0  0  0  0  0
    6.3874   -4.7586   28.1744 H   0  0  0  0  0  0  0  0  0  0  0  0
    7.7314   -5.1812   29.2316 H   0  0  0  0  0  0  0  0  0  0  0  0
    8.8752   -6.2297   25.3260 H   0  0  0  0  0  0  0  0  0  0  0  0
    7.5092   -5.7078   24.3260 H   0  0  0  0  0  0  0  0  0  0  0  0
    8.2703   -3.2761   27.6782 H   0  0  0  0  0  0  0  0  0  0  0  0
    9.3614   -4.6600   27.5015 H   0  0  0  0  0  0  0  0  0  0  0  0
   10.4561    1.0772   24.1620 H   0  0  0  0  0  0  0  0  0  0  0  0
   10.8743    1.5008   22.5014 H   0  0  0  0  0  0  0  0  0  0  0  0
    7.4659   -1.2025   21.6292 H   0  0  0  0  0  0  0  0  0  0  0  0
    8.6969   -1.5747   20.4087 H   0  0  0  0  0  0  0  0  0  0  0  0
  1  2  1  0  0  0  0
  1  3  2  0  0  0  0
  2  4  2  0  0  0  0
  3  5  1  0  0  0  0
  4 10  1  0  0  0  0
  5 10  2  0  0  0  0
  6  8  2  0  0  0  0
  6 11  1  0  0  0  0
  7  9  1  0  0  0  0
  7 11  2  0  0  0  0
  8 12  1  0  0  0  0
  9 12  2  0  0  0  0
 10 25  1  0  0  0  0
 11 30  1  0  0  0  0
 12 31  1  0  0  0  0
 13 14  2  0  0  0  0
 13 15  1  0  0  0  0
 13 29  1  0  0  0  0
 14 26  1  0  0  0  0
 14 27  1  0  0  0  0
 15 16  2  0  0  0  0
 16 17  1  0  0  0  0
 17 18  2  0  0  0  0
 18 29  1  0  0  0  0
 19 26  1  0  0  0  0
 19 31  1  0  0  0  0
 19 32  2  0  0  0  0
 20 21  1  0  0  0  0
 20 22  1  0  0  0  0
 21 23  1  0  0  0  0
 22 24  1  0  0  0  0
 23 30  1  0  0  0  0
 24 30  1  0  0  0  0
 25 31  1  0  0  0  0
 27 28  2  0  0  0  0
 28 29  1  0  0  0  0
  1 33  1  0  0  0  0
  2 34  1  0  0  0  0
  3 35  1  0  0  0  0
  4 36  1  0  0  0  0
  5 37  1  0  0  0  0
  6 38  1  0  0  0  0
  7 39  1  0  0  0  0
  8 40  1  0  0  0  0
  9 41  1  0  0  0  0
 15 42  1  0  0  0  0
 16 43  1  0  0  0  0
 17 44  1  0  0  0  0
 18 45  1  0  0  0  0
 20 46  1  0  0  0  0
 20 47  1  0  0  0  0
 21 48  1  0  0  0  0
 21 49  1  0  0  0  0
 22 50  1  0  0  0  0
 22 51  1  0  0  0  0
 23 52  1  0  0  0  0
 23 53  1  0  0  0  0
 24 54  1  0  0  0  0
 24 55  1  0  0  0  0
 25 56  1  0  0  0  0
 25 57  1  0  0  0  0
 26 58  1  0  0  0  0
 26 59  1  0  0  0  0
M  END
> <clash_score>
0

> <docking_score>
-9.590601921081543

> <overlap_score>
0.9952272772789001

$$$$
BENZO_428_1
  -OEChem-08222022473D

 56 60  0     0  0  0  0  0  0999 V2000
    9.1890   -3.5540   24.0140 C   0  0  0  0  0  0  0  0  0  0  0  0
    7.8700   -2.0610   25.3550 C   0  0  0  0  0  0  0  0  0  0  0  0
    9.5890   -2.4950   23.2210 C   0  0  0  0  0  0  0  0  0  0  0  0
    8.2550   -1.0010   24.5520 C   0  0  0  0  0  0  0  0  0  0  0  0
   12.6785   -0.3936   24.5018 C   0  0  0  0  0  0  0  0  0  0  0  0
   13.7775   -1.2037   24.3186 C   0  0  0  0  0  0  0  0  0  0  0  0
   12.5401   -0.8378   22.2246 C   0  0  0  0  0  0  0  0  0  0  0  0
   11.9616   -0.1817   23.2889 C   0  0  0  0  0  0  0  0  0  0  0  0
    8.3450   -3.3440   25.0980 C   0  0  0  0  0  0  0  0  0  0  0  0
    9.1280   -1.2090   23.4870 C   0  0  0  0  0  0  0  0  0  0  0  0
    6.1460    0.6070   19.9750 C   0  0  0  0  0  0  0  0  0  0  0  0
    7.2710   -0.1460   19.8310 C   0  0  0  0  0  0  0  0  0  0  0  0
    5.3890    1.0010   21.0690 C   0  0  0  0  0  0  0  0  0  0  0  0
    4.2460    1.7520   20.8250 C   0  0  0  0  0  0  0  0  0  0  0  0
    3.8860    2.1050   19.5250 C   0  0  0  0  0  0  0  0  0  0  0  0
    4.6610    1.7170   18.4380 C   0  0  0  0  0  0  0  0  0  0  0  0
    9.0430    0.2380   21.4940 C   0  0  0  0  0  0  0  0  0  0  0  0
    7.5748   -4.8280   28.7278 C   0  0  0  0  0  0  0  0  0  0  0  0
    8.9776   -4.7555   28.1204 C   0  0  0  0  0  0  0  0  0  0  0  0
    6.5554   -4.0713   27.8732 C   0  0  0  0  0  0  0  0  0  0  0  0
    8.9620   -5.1961   26.6568 C   0  0  0  0  0  0  0  0  0  0  0  0
    6.6009   -4.5253   26.4110 C   0  0  0  0  0  0  0  0  0  0  0  0
   10.7220    0.6590   23.1850 C   0  0  0  0  0  0  0  0  0  0  0  0
    8.0950   -0.7700   20.8440 C   0  0  0  0  0  0  0  0  0  0  0  0
    7.5840   -0.2700   18.5160 N   0  0  0  0  0  0  0  0  0  0  0  0
    6.7100    0.3850   17.8100 N   0  0  0  0  0  0  0  0  0  0  0  0
    5.7970    0.9500   18.6730 N   0  0  0  0  0  0  0  0  0  0  0  0
    7.9770   -4.4029   25.9162 N   0  0  0  0  0  0  0  0  0  0  0  0
    9.5820   -0.1080   22.7000 N   0  0  0  0  0  0  0  0  0  0  0  0
    9.2950    1.3000   20.9480 O   0  0  0  0  0  0  0  0  0  0  0  0
   13.9416   -1.7050   22.6894 S   0  0  0  0  0  0  0  0  0  0  0  0
    9.5426   -4.5618   23.7797 H   0  0  0  0  0  0  0  0  0  0  0  0
    7.1914   -1.8824   26.1903 H   0  0  0  0  0  0  0  0  0  0  0  0
   10.2669   -2.6745   22.3854 H   0  0  0  0  0  0  0  0  0  0  0  0
    7.8690   -0.0020   24.7587 H   0  0  0  0  0  0  0  0  0  0  0  0
   12.4058    0.0253   25.4623 H   0  0  0  0  0  0  0  0  0  0  0  0
   14.4923   -1.5245   25.0631 H   0  0  0  0  0  0  0  0  0  0  0  0
   12.2108   -0.8511   21.1948 H   0  0  0  0  0  0  0  0  0  0  0  0
    5.6533    0.7494   22.0767 H   0  0  0  0  0  0  0  0  0  0  0  0
    3.6389    2.0586   21.6677 H   0  0  0  0  0  0  0  0  0  0  0  0
    2.9824    2.6968   19.3331 H   0  0  0  0  0  0  0  0  0  0  0  0
    4.4115    1.9887   17.4356 H   0  0  0  0  0  0  0  0  0  0  0  0
    7.2681   -5.8807   28.8239 H   0  0  0  0  0  0  0  0  0  0  0  0
    7.5891   -4.4101   29.7448 H   0  0  0  0  0  0  0  0  0  0  0  0
    9.3554   -3.7320   28.1920 H   0  0  0  0  0  0  0  0  0  0  0  0
    9.6558   -5.3943   28.6900 H   0  0  0  0  0  0  0  0  0  0  0  0
    5.5496   -4.2322   28.2751 H   0  0  0  0  0  0  0  0  0  0  0  0
    6.7545   -2.9948   27.9293 H   0  0  0  0  0  0  0  0  0  0  0  0
    9.9612   -5.0560   26.2363 H   0  0  0  0  0  0  0  0  0  0  0  0
    8.7097   -6.2583   26.5922 H   0  0  0  0  0  0  0  0  0  0  0  0
    6.2649   -5.5600   26.3335 H   0  0  0  0  0  0  0  0  0  0  0  0
    5.9271   -3.8964   25.8283 H   0  0  0  0  0  0  0  0  0  0  0  0
   10.4561    1.0772   24.1620 H   0  0  0  0  0  0  0  0  0  0  0  0
   10.8743    1.5008   22.5014 H   0  0  0  0  0  0  0  0  0  0  0  0
    7.4659   -1.2025   21.6292 H   0  0  0  0  0  0  0  0  0  0  0  0
    8.6969   -1.5747   20.4087 H   0  0  0  0  0  0  0  0  0  0  0  0
  1  3  2  0  0  0  0
  1  9  1  0  0  0  0
  2  4  1  0  0  0  0
  2  9  2  0  0  0  0
  3 10  1  0  0  0  0
  4 10  2  0  0  0  0
  5  6  2  0  0  0  0
  5  8  1  0  0  0  0
  6 31  1  0  0  0  0
  7  8  2  0  0  0  0
  7 31  1  0  0  0  0
  8 23  1  0  0  0  0
  9 28  1  0  0  0  0
 10 29  1  0  0  0  0
 11 12  2  0  0  0  0
 11 13  1  0  0  0  0
 11 27  1  0  0  0  0
 12 24  1  0  0  0  0
 12 25  1  0  0  0  0
 13 14  2  0  0  0  0
 14 15  1  0  0  0  0
 15 16  2  0  0  0  0
 16 27  1  0  0  0  0
 17 24  1  0  0  0  0
 17 29  1  0  0  0  0
 17 30  2  0  0  0  0
 18 19  1  0  0  0  0
 18 20  1  0  0  0  0
 19 21  1  0  0  0  0
 20 22  1  0  0  0  0
 21 28  1  0  0  0  0
 22 28  1  0  0  0  0
 23 29  1  0  0  0  0
 25 26  2  0  0  0  0
 26 27  1  0  0  0  0
  1 32  1  0  0  0  0
  2 33  1  0  0  0  0
  3 34  1  0  0  0  0
  4 35  1  0  0  0  0
  5 36  1  0  0  0  0
  6 37  1  0  0  0  0
  7 38  1  0  0  0  0
 13 39  1  0  0  0  0
 14 40  1  0  0  0  0
 15 41  1  0  0  0  0
 16 42  1  0  0  0  0
 18 43  1  0  0  0  0
 18 44  1  0  0  0  0
 19 45  1  0  0  0  0
 19 46  1  0  0  0  0
 20 47  1  0  0  0  0
 20 48  1  0  0  0  0
 21 49  1  0  0  0  0
 21 50  1  0  0  0  0
 22 51  1  0  0  0  0
 22 52  1  0  0  0  0
 23 53  1  0  0  0  0
 23 54  1  0  0  0  0
 24 55  1  0  0  0  0
 24 56  1  0  0  0  0
M  END
> <clash_score>
0

> <docking_score>
-10.15637493133545

> <overlap_score>
0.9766672849655151

$$$$
BENZO_426_1
  -OEChem-08222022473D

 54 57  0     0  0  0  0  0  0999 V2000
   13.7501   -1.1157   24.6176 C   0  0  0  0  0  0  0  0  0  0  0  0
   12.5991   -0.3339   24.5202 C   0  0  0  0  0  0  0  0  0  0  0  0
    9.1890   -3.5540   24.0140 C   0  0  0  0  0  0  0  0  0  0  0  0
    7.8700   -2.0610   25.3550 C   0  0  0  0  0  0  0  0  0  0  0  0
    9.5890   -2.4950   23.2210 C   0  0  0  0  0  0  0  0  0  0  0  0
    8.2550   -1.0010   24.5520 C   0  0  0  0  0  0  0  0  0  0  0  0
   14.2636   -1.7454   23.4838 C   0  0  0  0  0  0  0  0  0  0  0  0
   12.4750   -0.8115   22.1551 C   0  0  0  0  0  0  0  0  0  0  0  0
   11.9616   -0.1817   23.2889 C   0  0  0  0  0  0  0  0  0  0  0  0
    8.3450   -3.3440   25.0980 C   0  0  0  0  0  0  0  0  0  0  0  0
    9.1280   -1.2090   23.4870 C   0  0  0  0  0  0  0  0  0  0  0  0
   13.6261   -1.5933   22.2526 C   0  0  0  0  0  0  0  0  0  0  0  0
    6.1460    0.6070   19.9750 C   0  0  0  0  0  0  0  0  0  0  0  0
    7.2710   -0.1460   19.8310 C   0  0  0  0  0  0  0  0  0  0  0  0
    5.3890    1.0010   21.0690 C   0  0  0  0  0  0  0  0  0  0  0  0
    4.2460    1.7520   20.8250 C   0  0  0  0  0  0  0  0  0  0  0  0
    3.8860    2.1050   19.5250 C   0  0  0  0  0  0  0  0  0  0  0  0
    4.6610    1.7170   18.4380 C   0  0  0  0  0  0  0  0  0  0  0  0
    9.0430    0.2380   21.4940 C   0  0  0  0  0  0  0  0  0  0  0  0
    8.2027   -4.5557   27.2976 C   0  0  0  0  0  0  0  0  0  0  0  0
    7.8896   -6.0861   29.2889 C   0  0  0  0  0  0  0  0  0  0  0  0
   10.7220    0.6590   23.1850 C   0  0  0  0  0  0  0  0  0  0  0  0
    8.0950   -0.7700   20.8440 C   0  0  0  0  0  0  0  0  0  0  0  0
    7.6349   -5.8718   27.8077 C   0  0  0  0  0  0  0  0  0  0  0  0
    7.5840   -0.2700   18.5160 N   0  0  0  0  0  0  0  0  0  0  0  0
    6.7100    0.3850   17.8100 N   0  0  0  0  0  0  0  0  0  0  0  0
    5.7970    0.9500   18.6730 N   0  0  0  0  0  0  0  0  0  0  0  0
    7.9771   -4.4058   25.9196 N   0  0  0  0  0  0  0  0  0  0  0  0
    9.5820   -0.1080   22.7000 N   0  0  0  0  0  0  0  0  0  0  0  0
    9.2950    1.3000   20.9480 O   0  0  0  0  0  0  0  0  0  0  0  0
    8.7747   -3.7632   28.0387 O   0  0  0  0  0  0  0  0  0  0  0  0
   14.2594   -2.3714   20.8543 Cl  0  0  0  0  0  0  0  0  0  0  0  0
   14.2462   -1.2340   25.5766 H   0  0  0  0  0  0  0  0  0  0  0  0
   12.2060    0.1530   25.4088 H   0  0  0  0  0  0  0  0  0  0  0  0
    9.5436   -4.5614   23.7799 H   0  0  0  0  0  0  0  0  0  0  0  0
    7.1918   -1.8823   26.1906 H   0  0  0  0  0  0  0  0  0  0  0  0
   10.2676   -2.6754   22.3861 H   0  0  0  0  0  0  0  0  0  0  0  0
    7.8686   -0.0026   24.7598 H   0  0  0  0  0  0  0  0  0  0  0  0
   15.1613   -2.3520   23.5747 H   0  0  0  0  0  0  0  0  0  0  0  0
   11.9745   -0.6893   21.1973 H   0  0  0  0  0  0  0  0  0  0  0  0
    5.6533    0.7494   22.0767 H   0  0  0  0  0  0  0  0  0  0  0  0
    3.6389    2.0586   21.6677 H   0  0  0  0  0  0  0  0  0  0  0  0
    2.9824    2.6968   19.3331 H   0  0  0  0  0  0  0  0  0  0  0  0
    4.4115    1.9887   17.4356 H   0  0  0  0  0  0  0  0  0  0  0  0
    8.9624   -6.0810   29.5082 H   0  0  0  0  0  0  0  0  0  0  0  0
    7.4794   -7.0482   29.6108 H   0  0  0  0  0  0  0  0  0  0  0  0
    7.4210   -5.2973   29.8865 H   0  0  0  0  0  0  0  0  0  0  0  0
   10.4561    1.0772   24.1620 H   0  0  0  0  0  0  0  0  0  0  0  0
   10.8743    1.5008   22.5014 H   0  0  0  0  0  0  0  0  0  0  0  0
    7.4785   -1.2070   21.6432 H   0  0  0  0  0  0  0  0  0  0  0  0
    8.7096   -1.5792   20.4228 H   0  0  0  0  0  0  0  0  0  0  0  0
    6.5555   -5.8816   27.6174 H   0  0  0  0  0  0  0  0  0  0  0  0
    8.0878   -6.6904   27.2366 H   0  0  0  0  0  0  0  0  0  0  0  0
    7.4775   -5.1801   25.4670 H   0  0  0  0  0  0  0  0  0  0  0  0
  1  2  2  0  0  0  0
  1  7  1  0  0  0  0
  2  9  1  0  0  0  0
  3  5  2  0  0  0  0
  3 10  1  0  0  0  0
  4  6  1  0  0  0  0
  4 10  2  0  0  0  0
  5 11  1  0  0  0  0
  6 11  2  0  0  0  0
  7 12  2  0  0  0  0
  8  9  2  0  0  0  0
  8 12  1  0  0  0  0
  9 22  1  0  0  0  0
 10 28  1  0  0  0  0
 11 29  1  0  0  0  0
 12 32  1  0  0  0  0
 13 14  2  0  0  0  0
 13 15  1  0  0  0  0
 13 27  1  0  0  0  0
 14 23  1  0  0  0  0
 14 25  1  0  0  0  0
 15 16  2  0  0  0  0
 16 17  1  0  0  0  0
 17 18  2  0  0  0  0
 18 27  1  0  0  0  0
 19 23  1  0  0  0  0
 19 29  1  0  0  0  0
 19 30  2  0  0  0  0
 20 24  1  0  0  0  0
 20 28  1  0  0  0  0
 20 31  2  0  0  0  0
 21 24  1  0  0  0  0
 22 29  1  0  0  0  0
 25 26  2  0  0  0  0
 26 27  1  0  0  0  0
  1 33  1  0  0  0  0
  2 34  1  0  0  0  0
  3 35  1  0  0  0  0
  4 36  1  0  0  0  0
  5 37  1  0  0  0  0
  6 38  1  0  0  0  0
  7 39  1  0  0  0  0
  8 40  1  0  0  0  0
 15 41  1  0  0  0  0
 16 42  1  0  0  0  0
 17 43  1  0  0  0  0
 18 44  1  0  0  0  0
 21 45  1  0  0  0  0
 21 46  1  0  0  0  0
 21 47  1  0  0  0  0
 22 48  1  0  0  0  0
 22 49  1  0  0  0  0
 23 50  1  0  0  0  0
 23 51  1  0  0  0  0
 24 52  1  0  0  0  0
 24 53  1  0  0  0  0
 28 54  1  0  0  0  0
M  END
> <clash_score>
0

> <docking_score>
-9.304771423339844

> <overlap_score>
1.0106886625289917

$$$$
BENZO_427_1
  -OEChem-08222022473D

 54 57  0     0  0  0  0  0  0999 V2000
    9.1890   -3.5540   24.0140 C   0  0  0  0  0  0  0  0  0  0  0  0
    7.8700   -2.0610   25.3550 C   0  0  0  0  0  0  0  0  0  0  0  0
    9.5890   -2.4950   23.2210 C   0  0  0  0  0  0  0  0  0  0  0  0
    8.2550   -1.0010   24.5520 C   0  0  0  0  0  0  0  0  0  0  0  0
   12.7320   -0.4464   24.4370 C   0  0  0  0  0  0  0  0  0  0  0  0
   12.5970   -0.8682   22.2832 C   0  0  0  0  0  0  0  0  0  0  0  0
   11.9616   -0.1817   23.2889 C   0  0  0  0  0  0  0  0  0  0  0  0
    8.3450   -3.3440   25.0980 C   0  0  0  0  0  0  0  0  0  0  0  0
    9.1280   -1.2090   23.4870 C   0  0  0  0  0  0  0  0  0  0  0  0
    6.1460    0.6070   19.9750 C   0  0  0  0  0  0  0  0  0  0  0  0
    7.2710   -0.1460   19.8310 C   0  0  0  0  0  0  0  0  0  0  0  0
    5.3890    1.0010   21.0690 C   0  0  0  0  0  0  0  0  0  0  0  0
    4.2460    1.7520   20.8250 C   0  0  0  0  0  0  0  0  0  0  0  0
    3.8860    2.1050   19.5250 C   0  0  0  0  0  0  0  0  0  0  0  0
    4.6610    1.7170   18.4380 C   0  0  0  0  0  0  0  0  0  0  0  0
    9.0430    0.2380   21.4940 C   0  0  0  0  0  0  0  0  0  0  0  0
    8.2027   -4.5557   27.2976 C   0  0  0  0  0  0  0  0  0  0  0  0
    7.8896   -6.0861   29.2889 C   0  0  0  0  0  0  0  0  0  0  0  0
   14.6393   -2.3180   22.2082 C   0  0  0  0  0  0  0  0  0  0  0  0
   10.7220    0.6590   23.1850 C   0  0  0  0  0  0  0  0  0  0  0  0
    8.0950   -0.7700   20.8440 C   0  0  0  0  0  0  0  0  0  0  0  0
    7.6349   -5.8718   27.8077 C   0  0  0  0  0  0  0  0  0  0  0  0
   13.7770   -1.2393   24.1852 N   0  0  0  0  0  0  0  0  0  0  0  0
    7.5840   -0.2700   18.5160 N   0  0  0  0  0  0  0  0  0  0  0  0
    6.7100    0.3850   17.8100 N   0  0  0  0  0  0  0  0  0  0  0  0
   13.6676   -1.4788   22.8673 N   0  0  0  0  0  0  0  0  0  0  0  0
    5.7970    0.9500   18.6730 N   0  0  0  0  0  0  0  0  0  0  0  0
    7.9771   -4.4058   25.9196 N   0  0  0  0  0  0  0  0  0  0  0  0
    9.5820   -0.1080   22.7000 N   0  0  0  0  0  0  0  0  0  0  0  0
    9.2950    1.3000   20.9480 O   0  0  0  0  0  0  0  0  0  0  0  0
    8.7747   -3.7632   28.0387 O   0  0  0  0  0  0  0  0  0  0  0  0
    9.5436   -4.5614   23.7799 H   0  0  0  0  0  0  0  0  0  0  0  0
    7.1918   -1.8823   26.1906 H   0  0  0  0  0  0  0  0  0  0  0  0
   10.2676   -2.6754   22.3861 H   0  0  0  0  0  0  0  0  0  0  0  0
    7.8686   -0.0026   24.7598 H   0  0  0  0  0  0  0  0  0  0  0  0
   12.5771   -0.0965   25.4478 H   0  0  0  0  0  0  0  0  0  0  0  0
   12.3832   -0.9726   21.2281 H   0  0  0  0  0  0  0  0  0  0  0  0
    5.6533    0.7494   22.0767 H   0  0  0  0  0  0  0  0  0  0  0  0
    3.6389    2.0586   21.6677 H   0  0  0  0  0  0  0  0  0  0  0  0
    2.9824    2.6968   19.3331 H   0  0  0  0  0  0  0  0  0  0  0  0
    4.4115    1.9887   17.4356 H   0  0  0  0  0  0  0  0  0  0  0  0
    8.9624   -6.0810   29.5082 H   0  0  0  0  0  0  0  0  0  0  0  0
    7.4794   -7.0482   29.6108 H   0  0  0  0  0  0  0  0  0  0  0  0
    7.4210   -5.2973   29.8865 H   0  0  0  0  0  0  0  0  0  0  0  0
   15.4522   -1.6787   21.8540 H   0  0  0  0  0  0  0  0  0  0  0  0
   15.0179   -3.0612   22.9154 H   0  0  0  0  0  0  0  0  0  0  0  0
   14.1626   -2.8324   21.3691 H   0  0  0  0  0  0  0  0  0  0  0  0
   10.4561    1.0772   24.1620 H   0  0  0  0  0  0  0  0  0  0  0  0
   10.8743    1.5008   22.5014 H   0  0  0  0  0  0  0  0  0  0  0  0
    7.4785   -1.2070   21.6432 H   0  0  0  0  0  0  0  0  0  0  0  0
    8.7096   -1.5792   20.4228 H   0  0  0  0  0  0  0  0  0  0  0  0
    6.5555   -5.8816   27.6174 H   0  0  0  0  0  0  0  0  0  0  0  0
    8.0878   -6.6904   27.2366 H   0  0  0  0  0  0  0  0  0  0  0  0
    7.4775   -5.1801   25.4670 H   0  0  0  0  0  0  0  0  0  0  0  0
  1  3  2  0  0  0  0
  1  8  1  0  0  0  0
  2  4  1  0  0  0  0
  2  8  2  0  0  0  0
  3  9  1  0  0  0  0
  4  9  2  0  0  0  0
  5  7  1  0  0  0  0
  5 23  2  0  0  0  0
  6  7  2  0  0  0  0
  6 26  1  0  0  0  0
  7 20  1  0  0  0  0
  8 28  1  0  0  0  0
  9 29  1  0  0  0  0
 10 11  2  0  0  0  0
 10 12  1  0  0  0  0
 10 27  1  0  0  0  0
 11 21  1  0  0  0  0
 11 24  1  0  0  0  0
 12 13  2  0  0  0  0
 13 14  1  0  0  0  0
 14 15  2  0  0  0  0
 15 27  1  0  0  0  0
 16 21  1  0  0  0  0
 16 29  1  0  0  0  0
 16 30  2  0  0  0  0
 17 22  1  0  0  0  0
 17 28  1  0  0  0  0
 17 31  2  0  0  0  0
 18 22  1  0  0  0  0
 19 26  1  0  0  0  0
 20 29  1  0  0  0  0
 23 26  1  0  0  0  0
 24 25  2  0  0  0  0
 25 27  1  0  0  0  0
  1 32  1  0  0  0  0
  2 33  1  0  0  0  0
  3 34  1  0  0  0  0
  4 35  1  0  0  0  0
  5 36  1  0  0  0  0
  6 37  1  0  0  0  0
 12 38  1  0  0  0  0
 13 39  1  0  0  0  0
 14 40  1  0  0  0  0
 15 41  1  0  0  0  0
 18 42  1  0  0  0  0
 18 43  1  0  0  0  0
 18 44  1  0  0  0  0
 19 45  1  0  0  0  0
 19 46  1  0  0  0  0
 19 47  1  0  0  0  0
 20 48  1  0  0  0  0
 20 49  1  0  0  0  0
 21 50  1  0  0  0  0
 21 51  1  0  0  0  0
 22 52  1  0  0  0  0
 22 53  1  0  0  0  0
 28 54  1  0  0  0  0
M  END
> <clash_score>
0

> <docking_score>
-8.540796279907227

> <overlap_score>
1.00617516040802

$$$$
BENZO_433_1
  -OEChem-08222022473D

 47 50  0     0  0  0  0  0  0999 V2000
   14.2642   -1.7450   23.4813 C   0  0  0  0  0  0  0  0  0  0  0  0
   14.0779   -0.6681   24.3480 C   0  0  0  0  0  0  0  0  0  0  0  0
   13.2991   -2.0403   22.5184 C   0  0  0  0  0  0  0  0  0  0  0  0
   12.9266    0.1135   24.2518 C   0  0  0  0  0  0  0  0  0  0  0  0
   12.1478   -1.2587   22.4222 C   0  0  0  0  0  0  0  0  0  0  0  0
    9.1890   -3.5540   24.0140 C   0  0  0  0  0  0  0  0  0  0  0  0
    7.8700   -2.0610   25.3550 C   0  0  0  0  0  0  0  0  0  0  0  0
    9.5890   -2.4950   23.2210 C   0  0  0  0  0  0  0  0  0  0  0  0
    8.2550   -1.0010   24.5520 C   0  0  0  0  0  0  0  0  0  0  0  0
    8.3450   -3.3440   25.0980 C   0  0  0  0  0  0  0  0  0  0  0  0
   11.9616   -0.1817   23.2889 C   0  0  0  0  0  0  0  0  0  0  0  0
    9.1280   -1.2090   23.4870 C   0  0  0  0  0  0  0  0  0  0  0  0
    6.1460    0.6070   19.9750 C   0  0  0  0  0  0  0  0  0  0  0  0
    7.2710   -0.1460   19.8310 C   0  0  0  0  0  0  0  0  0  0  0  0
    5.3890    1.0010   21.0690 C   0  0  0  0  0  0  0  0  0  0  0  0
    4.2460    1.7520   20.8250 C   0  0  0  0  0  0  0  0  0  0  0  0
    3.8860    2.1050   19.5250 C   0  0  0  0  0  0  0  0  0  0  0  0
    4.6610    1.7170   18.4380 C   0  0  0  0  0  0  0  0  0  0  0  0
    9.0430    0.2380   21.4940 C   0  0  0  0  0  0  0  0  0  0  0  0
    7.9522   -4.4794   25.9764 C   0  0  0  0  0  0  0  0  0  0  0  0
   10.7220    0.6590   23.1850 C   0  0  0  0  0  0  0  0  0  0  0  0
    8.0950   -0.7700   20.8440 C   0  0  0  0  0  0  0  0  0  0  0  0
    7.5840   -0.2700   18.5160 N   0  0  0  0  0  0  0  0  0  0  0  0
    6.7100    0.3850   17.8100 N   0  0  0  0  0  0  0  0  0  0  0  0
    5.7970    0.9500   18.6730 N   0  0  0  0  0  0  0  0  0  0  0  0
    9.5820   -0.1080   22.7000 N   0  0  0  0  0  0  0  0  0  0  0  0
    9.2950    1.3000   20.9480 O   0  0  0  0  0  0  0  0  0  0  0  0
   15.1613   -2.3527   23.5555 H   0  0  0  0  0  0  0  0  0  0  0  0
   14.8297   -0.4373   25.0971 H   0  0  0  0  0  0  0  0  0  0  0  0
   13.4443   -2.8780   21.8427 H   0  0  0  0  0  0  0  0  0  0  0  0
   12.7899    0.9506   24.9315 H   0  0  0  0  0  0  0  0  0  0  0  0
   11.4013   -1.4963   21.6690 H   0  0  0  0  0  0  0  0  0  0  0  0
    9.5403   -4.5627   23.7809 H   0  0  0  0  0  0  0  0  0  0  0  0
    7.1911   -1.8848   26.1904 H   0  0  0  0  0  0  0  0  0  0  0  0
   10.2682   -2.6746   22.3865 H   0  0  0  0  0  0  0  0  0  0  0  0
    7.8684   -0.0022   24.7594 H   0  0  0  0  0  0  0  0  0  0  0  0
    5.6533    0.7494   22.0767 H   0  0  0  0  0  0  0  0  0  0  0  0
    3.6389    2.0586   21.6677 H   0  0  0  0  0  0  0  0  0  0  0  0
    2.9824    2.6968   19.3331 H   0  0  0  0  0  0  0  0  0  0  0  0
    4.4115    1.9887   17.4356 H   0  0  0  0  0  0  0  0  0  0  0  0
    8.6668   -4.5891   26.8013 H   0  0  0  0  0  0  0  0  0  0  0  0
    6.9513   -4.3276   26.4010 H   0  0  0  0  0  0  0  0  0  0  0  0
    7.9196   -5.4231   25.4163 H   0  0  0  0  0  0  0  0  0  0  0  0
   10.4561    1.0772   24.1620 H   0  0  0  0  0  0  0  0  0  0  0  0
   10.8743    1.5008   22.5014 H   0  0  0  0  0  0  0  0  0  0  0  0
    7.4785   -1.2070   21.6432 H   0  0  0  0  0  0  0  0  0  0  0  0
    8.7096   -1.5792   20.4228 H   0  0  0  0  0  0  0  0  0  0  0  0
  1  2  1  0  0  0  0
  1  3  2  0  0  0  0
  2  4  2  0  0  0  0
  3  5  1  0  0  0  0
  4 11  1  0  0  0  0
  5 11  2  0  0  0  0
  6  8  2  0  0  0  0
  6 10  1  0  0  0  0
  7  9  1  0  0  0  0
  7 10  2  0  0  0  0
  8 12  1  0  0  0  0
  9 12  2  0  0  0  0
 10 20  1  0  0  0  0
 11 21  1  0  0  0  0
 12 26  1  0  0  0  0
 13 14  2  0  0  0  0
 13 15  1  0  0  0  0
 13 25  1  0  0  0  0
 14 22  1  0  0  0  0
 14 23  1  0  0  0  0
 15 16  2  0  0  0  0
 16 17  1  0  0  0  0
 17 18  2  0  0  0  0
 18 25  1  0  0  0  0
 19 22  1  0  0  0  0
 19 26  1  0  0  0  0
 19 27  2  0  0  0  0
 21 26  1  0  0  0  0
 23 24  2  0  0  0  0
 24 25  1  0  0  0  0
  1 28  1  0  0  0  0
  2 29  1  0  0  0  0
  3 30  1  0  0  0  0
  4 31  1  0  0  0  0
  5 32  1  0  0  0  0
  6 33  1  0  0  0  0
  7 34  1  0  0  0  0
  8 35  1  0  0  0  0
  9 36  1  0  0  0  0
 15 37  1  0  0  0  0
 16 38  1  0  0  0  0
 17 39  1  0  0  0  0
 18 40  1  0  0  0  0
 20 41  1  0  0  0  0
 20 42  1  0  0  0  0
 20 43  1  0  0  0  0
 21 44  1  0  0  0  0
 21 45  1  0  0  0  0
 22 46  1  0  0  0  0
 22 47  1  0  0  0  0
M  END
> <clash_score>
0

> <docking_score>
-9.814582824707031

> <overlap_score>
0.9021971225738525

$$$$
BENZO_432_1
  -OEChem-08222022473D

 44 47  0     0  0  0  0  0  0999 V2000
    9.1890   -3.5540   24.0140 C   0  0  0  0  0  0  0  0  0  0  0  0
    7.8700   -2.0610   25.3550 C   0  0  0  0  0  0  0  0  0  0  0  0
    9.5890   -2.4950   23.2210 C   0  0  0  0  0  0  0  0  0  0  0  0
    8.2550   -1.0010   24.5520 C   0  0  0  0  0  0  0  0  0  0  0  0
   12.6785   -0.3936   24.5018 C   0  0  0  0  0  0  0  0  0  0  0  0
   13.7775   -1.2037   24.3186 C   0  0  0  0  0  0  0  0  0  0  0  0
   12.5401   -0.8378   22.2246 C   0  0  0  0  0  0  0  0  0  0  0  0
    8.3450   -3.3440   25.0980 C   0  0  0  0  0  0  0  0  0  0  0  0
   11.9616   -0.1817   23.2889 C   0  0  0  0  0  0  0  0  0  0  0  0
    9.1280   -1.2090   23.4870 C   0  0  0  0  0  0  0  0  0  0  0  0
    6.1460    0.6070   19.9750 C   0  0  0  0  0  0  0  0  0  0  0  0
    7.2710   -0.1460   19.8310 C   0  0  0  0  0  0  0  0  0  0  0  0
    5.3890    1.0010   21.0690 C   0  0  0  0  0  0  0  0  0  0  0  0
    4.2460    1.7520   20.8250 C   0  0  0  0  0  0  0  0  0  0  0  0
    3.8860    2.1050   19.5250 C   0  0  0  0  0  0  0  0  0  0  0  0
    4.6610    1.7170   18.4380 C   0  0  0  0  0  0  0  0  0  0  0  0
    9.0430    0.2380   21.4940 C   0  0  0  0  0  0  0  0  0  0  0  0
    7.9522   -4.4794   25.9764 C   0  0  0  0  0  0  0  0  0  0  0  0
   10.7220    0.6590   23.1850 C   0  0  0  0  0  0  0  0  0  0  0  0
    8.0950   -0.7700   20.8440 C   0  0  0  0  0  0  0  0  0  0  0  0
    7.5840   -0.2700   18.5160 N   0  0  0  0  0  0  0  0  0  0  0  0
    6.7100    0.3850   17.8100 N   0  0  0  0  0  0  0  0  0  0  0  0
    5.7970    0.9500   18.6730 N   0  0  0  0  0  0  0  0  0  0  0  0
    9.5820   -0.1080   22.7000 N   0  0  0  0  0  0  0  0  0  0  0  0
    9.2950    1.3000   20.9480 O   0  0  0  0  0  0  0  0  0  0  0  0
   13.9416   -1.7050   22.6894 S   0  0  0  0  0  0  0  0  0  0  0  0
    9.5403   -4.5627   23.7809 H   0  0  0  0  0  0  0  0  0  0  0  0
    7.1911   -1.8848   26.1904 H   0  0  0  0  0  0  0  0  0  0  0  0
   10.2682   -2.6746   22.3865 H   0  0  0  0  0  0  0  0  0  0  0  0
    7.8684   -0.0022   24.7594 H   0  0  0  0  0  0  0  0  0  0  0  0
   12.4058    0.0253   25.4623 H   0  0  0  0  0  0  0  0  0  0  0  0
   14.4923   -1.5246   25.0631 H   0  0  0  0  0  0  0  0  0  0  0  0
   12.2108   -0.8511   21.1948 H   0  0  0  0  0  0  0  0  0  0  0  0
    5.6533    0.7494   22.0767 H   0  0  0  0  0  0  0  0  0  0  0  0
    3.6389    2.0586   21.6677 H   0  0  0  0  0  0  0  0  0  0  0  0
    2.9824    2.6968   19.3331 H   0  0  0  0  0  0  0  0  0  0  0  0
    4.4115    1.9887   17.4356 H   0  0  0  0  0  0  0  0  0  0  0  0
    8.6668   -4.5891   26.8013 H   0  0  0  0  0  0  0  0  0  0  0  0
    6.9513   -4.3276   26.4010 H   0  0  0  0  0  0  0  0  0  0  0  0
    7.9196   -5.4231   25.4163 H   0  0  0  0  0  0  0  0  0  0  0  0
   10.4561    1.0772   24.1620 H   0  0  0  0  0  0  0  0  0  0  0  0
   10.8743    1.5008   22.5014 H   0  0  0  0  0  0  0  0  0  0  0  0
    7.4785   -1.2070   21.6432 H   0  0  0  0  0  0  0  0  0  0  0  0
    8.7096   -1.5792   20.4228 H   0  0  0  0  0  0  0  0  0  0  0  0
  1  3  2  0  0  0  0
  1  8  1  0  0  0  0
  2  4  1  0  0  0  0
  2  8  2  0  0  0  0
  3 10  1  0  0  0  0
  4 10  2  0  0  0  0
  5  6  2  0  0  0  0
  5  9  1  0  0  0  0
  6 26  1  0  0  0  0
  7  9  2  0  0  0  0
  7 26  1  0  0  0  0
  8 18  1  0  0  0  0
  9 19  1  0  0  0  0
 10 24  1  0  0  0  0
 11 12  2  0  0  0  0
 11 13  1  0  0  0  0
 11 23  1  0  0  0  0
 12 20  1  0  0  0  0
 12 21  1  0  0  0  0
 13 14  2  0  0  0  0
 14 15  1  0  0  0  0
 15 16  2  0  0  0  0
 16 23  1  0  0  0  0
 17 20  1  0  0  0  0
 17 24  1  0  0  0  0
 17 25  2  0  0  0  0
 19 24  1  0  0  0  0
 21 22  2  0  0  0  0
 22 23  1  0  0  0  0
  1 27  1  0  0  0  0
  2 28  1  0  0  0  0
  3 29  1  0  0  0  0
  4 30  1  0  0  0  0
  5 31  1  0  0  0  0
  6 32  1  0  0  0  0
  7 33  1  0  0  0  0
 13 34  1  0  0  0  0
 14 35  1  0  0  0  0
 15 36  1  0  0  0  0
 16 37  1  0  0  0  0
 18 38  1  0  0  0  0
 18 39  1  0  0  0  0
 18 40  1  0  0  0  0
 19 41  1  0  0  0  0
 19 42  1  0  0  0  0
 20 43  1  0  0  0  0
 20 44  1  0  0  0  0
M  END
> <clash_score>
0

> <docking_score>
-9.255267143249512

> <overlap_score>
0.8884325623512268

$$$$
BENZO_430_1
  -OEChem-08222022473D

 59 63  0     0  0  0  0  0  0999 V2000
   13.7501   -1.1157   24.6177 C   0  0  0  0  0  0  0  0  0  0  0  0
   12.5991   -0.3338   24.5202 C   0  0  0  0  0  0  0  0  0  0  0  0
    9.1890   -3.5540   24.0140 C   0  0  0  0  0  0  0  0  0  0  0  0
    7.8700   -2.0610   25.3550 C   0  0  0  0  0  0  0  0  0  0  0  0
    9.5890   -2.4950   23.2210 C   0  0  0  0  0  0  0  0  0  0  0  0
    8.2550   -1.0010   24.5520 C   0  0  0  0  0  0  0  0  0  0  0  0
   14.2636   -1.7454   23.4838 C   0  0  0  0  0  0  0  0  0  0  0  0
   12.4750   -0.8115   22.1551 C   0  0  0  0  0  0  0  0  0  0  0  0
   11.9616   -0.1817   23.2889 C   0  0  0  0  0  0  0  0  0  0  0  0
    8.3450   -3.3440   25.0980 C   0  0  0  0  0  0  0  0  0  0  0  0
    9.1280   -1.2090   23.4870 C   0  0  0  0  0  0  0  0  0  0  0  0
   13.6261   -1.5933   22.2526 C   0  0  0  0  0  0  0  0  0  0  0  0
    6.1460    0.6070   19.9750 C   0  0  0  0  0  0  0  0  0  0  0  0
    7.2710   -0.1460   19.8310 C   0  0  0  0  0  0  0  0  0  0  0  0
    5.3890    1.0010   21.0690 C   0  0  0  0  0  0  0  0  0  0  0  0
    4.2460    1.7520   20.8250 C   0  0  0  0  0  0  0  0  0  0  0  0
    3.8860    2.1050   19.5250 C   0  0  0  0  0  0  0  0  0  0  0  0
    4.6610    1.7170   18.4380 C   0  0  0  0  0  0  0  0  0  0  0  0
    9.0430    0.2380   21.4940 C   0  0  0  0  0  0  0  0  0  0  0  0
    7.5748   -4.8280   28.7278 C   0  0  0  0  0  0  0  0  0  0  0  0
    8.9776   -4.7555   28.1204 C   0  0  0  0  0  0  0  0  0  0  0  0
    6.5554   -4.0713   27.8732 C   0  0  0  0  0  0  0  0  0  0  0  0
    8.9620   -5.1961   26.6568 C   0  0  0  0  0  0  0  0  0  0  0  0
    6.6009   -4.5253   26.4110 C   0  0  0  0  0  0  0  0  0  0  0  0
   10.7220    0.6590   23.1850 C   0  0  0  0  0  0  0  0  0  0  0  0
    8.0950   -0.7700   20.8440 C   0  0  0  0  0  0  0  0  0  0  0  0
    7.5840   -0.2700   18.5160 N   0  0  0  0  0  0  0  0  0  0  0  0
    6.7100    0.3850   17.8100 N   0  0  0  0  0  0  0  0  0  0  0  0
    5.7970    0.9500   18.6730 N   0  0  0  0  0  0  0  0  0  0  0  0
    7.9770   -4.4029   25.9162 N   0  0  0  0  0  0  0  0  0  0  0  0
    9.5820   -0.1080   22.7000 N   0  0  0  0  0  0  0  0  0  0  0  0
    9.2950    1.3000   20.9480 O   0  0  0  0  0  0  0  0  0  0  0  0
   14.2594   -2.3714   20.8543 Cl  0  0  0  0  0  0  0  0  0  0  0  0
   14.2462   -1.2340   25.5766 H   0  0  0  0  0  0  0  0  0  0  0  0
   12.2060    0.1530   25.4088 H   0  0  0  0  0  0  0  0  0  0  0  0
    9.5426   -4.5618   23.7797 H   0  0  0  0  0  0  0  0  0  0  0  0
    7.1914   -1.8824   26.1903 H   0  0  0  0  0  0  0  0  0  0  0  0
   10.2669   -2.6745   22.3854 H   0  0  0  0  0  0  0  0  0  0  0  0
    7.8690   -0.0020   24.7587 H   0  0  0  0  0  0  0  0  0  0  0  0
   15.1613   -2.3520   23.5747 H   0  0  0  0  0  0  0  0  0  0  0  0
   11.9745   -0.6893   21.1973 H   0  0  0  0  0  0  0  0  0  0  0  0
    5.6533    0.7494   22.0767 H   0  0  0  0  0  0  0  0  0  0  0  0
    3.6389    2.0586   21.6677 H   0  0  0  0  0  0  0  0  0  0  0  0
    2.9824    2.6968   19.3331 H   0  0  0  0  0  0  0  0  0  0  0  0
    4.4115    1.9887   17.4356 H   0  0  0  0  0  0  0  0  0  0  0  0
    7.2681   -5.8807   28.8239 H   0  0  0  0  0  0  0  0  0  0  0  0
    7.5891   -4.4101   29.7448 H   0  0  0  0  0  0  0  0  0  0  0  0
    9.3554   -3.7320   28.1920 H   0  0  0  0  0  0  0  0  0  0  0  0
    9.6558   -5.3943   28.6900 H   0  0  0  0  0  0  0  0  0  0  0  0
    5.5496   -4.2322   28.2751 H   0  0  0  0  0  0  0  0  0  0  0  0
    6.7545   -2.9948   27.9293 H   0  0  0  0  0  0  0  0  0  0  0  0
    9.9612   -5.0560   26.2363 H   0  0  0  0  0  0  0  0  0  0  0  0
    8.7097   -6.2583   26.5922 H   0  0  0  0  0  0  0  0  0  0  0  0
    6.2649   -5.5600   26.3335 H   0  0  0  0  0  0  0  0  0  0  0  0
    5.9271   -3.8964   25.8283 H   0  0  0  0  0  0  0  0  0  0  0  0
   10.4561    1.0772   24.1620 H   0  0  0  0  0  0  0  0  0  0  0  0
   10.8743    1.5008   22.5014 H   0  0  0  0  0  0  0  0  0  0  0  0
    7.4659   -1.2025   21.6292 H   0  0  0  0  0  0  0  0  0  0  0  0
    8.6969   -1.5747   20.4087 H   0  0  0  0  0  0  0  0  0  0  0  0
  1  2  2  0  0  0  0
  1  7  1  0  0  0  0
  2  9  1  0  0  0  0
  3  5  2  0  0  0  0
  3 10  1  0  0  0  0
  4  6  1  0  0  0  0
  4 10  2  0  0  0  0
  5 11  1  0  0  0  0
  6 11  2  0  0  0  0
  7 12  2  0  0  0  0
  8  9  2  0  0  0  0
  8 12  1  0  0  0  0
  9 25  1  0  0  0  0
 10 30  1  0  0  0  0
 11 31  1  0  0  0  0
 12 33  1  0  0  0  0
 13 14  2  0  0  0  0
 13 15  1  0  0  0  0
 13 29  1  0  0  0  0
 14 26  1  0  0  0  0
 14 27  1  0  0  0  0
 15 16  2  0  0  0  0
 16 17  1  0  0  0  0
 17 18  2  0  0  0  0
 18 29  1  0  0  0  0
 19 26  1  0  0  0  0
 19 31  1  0  0  0  0
 19 32  2  0  0  0  0
 20 21  1  0  0  0  0
 20 22  1  0  0  0  0
 21 23  1  0  0  0  0
 22 24  1  0  0  0  0
 23 30  1  0  0  0  0
 24 30  1  0  0  0  0
 25 31  1  0  0  0  0
 27 28  2  0  0  0  0
 28 29  1  0  0  0  0
  1 34  1  0  0  0  0
  2 35  1  0  0  0  0
  3 36  1  0  0  0  0
  4 37  1  0  0  0  0
  5 38  1  0  0  0  0
  6 39  1  0  0  0  0
  7 40  1  0  0  0  0
  8 41  1  0  0  0  0
 15 42  1  0  0  0  0
 16 43  1  0  0  0  0
 17 44  1  0  0  0  0
 18 45  1  0  0  0  0
 20 46  1  0  0  0  0
 20 47  1  0  0  0  0
 21 48  1  0  0  0  0
 21 49  1  0  0  0  0
 22 50  1  0  0  0  0
 22 51  1  0  0  0  0
 23 52  1  0  0  0  0
 23 53  1  0  0  0  0
 24 54  1  0  0  0  0
 24 55  1  0  0  0  0
 25 56  1  0  0  0  0
 25 57  1  0  0  0  0
 26 58  1  0  0  0  0
 26 59  1  0  0  0  0
M  END
> <clash_score>
0

> <docking_score>
-9.669571876525879

> <overlap_score>
0.9978207945823669

$$$$
BENZO_431_1
  -OEChem-08222022473D

 59 63  0     0  0  0  0  0  0999 V2000
    9.1890   -3.5540   24.0140 C   0  0  0  0  0  0  0  0  0  0  0  0
    7.8700   -2.0610   25.3550 C   0  0  0  0  0  0  0  0  0  0  0  0
    9.5890   -2.4950   23.2210 C   0  0  0  0  0  0  0  0  0  0  0  0
    8.2550   -1.0010   24.5520 C   0  0  0  0  0  0  0  0  0  0  0  0
   13.3010    0.2819   23.3762 C   0  0  0  0  0  0  0  0  0  0  0  0
   12.2469   -1.0164   21.9485 C   0  0  0  0  0  0  0  0  0  0  0  0
   12.0277    0.0001   22.8458 C   0  0  0  0  0  0  0  0  0  0  0  0
    8.3450   -3.3440   25.0980 C   0  0  0  0  0  0  0  0  0  0  0  0
    9.1280   -1.2090   23.4870 C   0  0  0  0  0  0  0  0  0  0  0  0
    6.1460    0.6070   19.9750 C   0  0  0  0  0  0  0  0  0  0  0  0
    7.2710   -0.1460   19.8310 C   0  0  0  0  0  0  0  0  0  0  0  0
    5.3890    1.0010   21.0690 C   0  0  0  0  0  0  0  0  0  0  0  0
    4.2460    1.7520   20.8250 C   0  0  0  0  0  0  0  0  0  0  0  0
    3.8860    2.1050   19.5250 C   0  0  0  0  0  0  0  0  0  0  0  0
    4.6610    1.7170   18.4380 C   0  0  0  0  0  0  0  0  0  0  0  0
    9.0430    0.2380   21.4940 C   0  0  0  0  0  0  0  0  0  0  0  0
    7.5748   -4.8280   28.7278 C   0  0  0  0  0  0  0  0  0  0  0  0
    8.9776   -4.7555   28.1204 C   0  0  0  0  0  0  0  0  0  0  0  0
    6.5554   -4.0713   27.8732 C   0  0  0  0  0  0  0  0  0  0  0  0
    8.9620   -5.1961   26.6568 C   0  0  0  0  0  0  0  0  0  0  0  0
    6.6009   -4.5253   26.4110 C   0  0  0  0  0  0  0  0  0  0  0  0
   14.2950   -2.2646   21.2232 C   0  0  0  0  0  0  0  0  0  0  0  0
   10.7220    0.6590   23.1850 C   0  0  0  0  0  0  0  0  0  0  0  0
    8.0950   -0.7700   20.8440 C   0  0  0  0  0  0  0  0  0  0  0  0
   14.2580   -0.4932   22.8591 N   0  0  0  0  0  0  0  0  0  0  0  0
    7.5840   -0.2700   18.5160 N   0  0  0  0  0  0  0  0  0  0  0  0
    6.7100    0.3850   17.8100 N   0  0  0  0  0  0  0  0  0  0  0  0
   13.5858   -1.2720   21.9945 N   0  0  0  0  0  0  0  0  0  0  0  0
    5.7970    0.9500   18.6730 N   0  0  0  0  0  0  0  0  0  0  0  0
    7.9770   -4.4029   25.9162 N   0  0  0  0  0  0  0  0  0  0  0  0
    9.5820   -0.1080   22.7000 N   0  0  0  0  0  0  0  0  0  0  0  0
    9.2950    1.3000   20.9480 O   0  0  0  0  0  0  0  0  0  0  0  0
    9.5426   -4.5618   23.7797 H   0  0  0  0  0  0  0  0  0  0  0  0
    7.1914   -1.8824   26.1903 H   0  0  0  0  0  0  0  0  0  0  0  0
   10.2669   -2.6745   22.3854 H   0  0  0  0  0  0  0  0  0  0  0  0
    7.8690   -0.0020   24.7587 H   0  0  0  0  0  0  0  0  0  0  0  0
   13.5736    1.0185   24.1187 H   0  0  0  0  0  0  0  0  0  0  0  0
   11.5805   -1.5669   21.2983 H   0  0  0  0  0  0  0  0  0  0  0  0
    5.6533    0.7494   22.0767 H   0  0  0  0  0  0  0  0  0  0  0  0
    3.6389    2.0586   21.6677 H   0  0  0  0  0  0  0  0  0  0  0  0
    2.9824    2.6968   19.3331 H   0  0  0  0  0  0  0  0  0  0  0  0
    4.4115    1.9887   17.4356 H   0  0  0  0  0  0  0  0  0  0  0  0
    7.2681   -5.8807   28.8239 H   0  0  0  0  0  0  0  0  0  0  0  0
    7.5891   -4.4101   29.7448 H   0  0  0  0  0  0  0  0  0  0  0  0
    9.3554   -3.7320   28.1920 H   0  0  0  0  0  0  0  0  0  0  0  0
    9.6558   -5.3943   28.6900 H   0  0  0  0  0  0  0  0  0  0  0  0
    5.5496   -4.2322   28.2751 H   0  0  0  0  0  0  0  0  0  0  0  0
    6.7545   -2.9948   27.9293 H   0  0  0  0  0  0  0  0  0  0  0  0
    9.9612   -5.0560   26.2363 H   0  0  0  0  0  0  0  0  0  0  0  0
    8.7097   -6.2583   26.5922 H   0  0  0  0  0  0  0  0  0  0  0  0
    6.2649   -5.5600   26.3335 H   0  0  0  0  0  0  0  0  0  0  0  0
    5.9271   -3.8964   25.8283 H   0  0  0  0  0  0  0  0  0  0  0  0
   14.6200   -1.7975   20.2898 H   0  0  0  0  0  0  0  0  0  0  0  0
   15.1576   -2.6206   21.7932 H   0  0  0  0  0  0  0  0  0  0  0  0
   13.6285   -3.1071   21.0185 H   0  0  0  0  0  0  0  0  0  0  0  0
   10.6163    0.7710   24.2696 H   0  0  0  0  0  0  0  0  0  0  0  0
   10.6620    1.6610   22.7472 H   0  0  0  0  0  0  0  0  0  0  0  0
    7.4659   -1.2025   21.6292 H   0  0  0  0  0  0  0  0  0  0  0  0
    8.6969   -1.5747   20.4087 H   0  0  0  0  0  0  0  0  0  0  0  0
  1  3  2  0  0  0  0
  1  8  1  0  0  0  0
  2  4  1  0  0  0  0
  2  8  2  0  0  0  0
  3  9  1  0  0  0  0
  4  9  2  0  0  0  0
  5  7  1  0  0  0  0
  5 25  2  0  0  0  0
  6  7  2  0  0  0  0
  6 28  1  0  0  0  0
  7 23  1  0  0  0  0
  8 30  1  0  0  0  0
  9 31  1  0  0  0  0
 10 11  2  0  0  0  0
 10 12  1  0  0  0  0
 10 29  1  0  0  0  0
 11 24  1  0  0  0  0
 11 26  1  0  0  0  0
 12 13  2  0  0  0  0
 13 14  1  0  0  0  0
 14 15  2  0  0  0  0
 15 29  1  0  0  0  0
 16 24  1  0  0  0  0
 16 31  1  0  0  0  0
 16 32  2  0  0  0  0
 17 18  1  0  0  0  0
 17 19  1  0  0  0  0
 18 20  1  0  0  0  0
 19 21  1  0  0  0  0
 20 30  1  0  0  0  0
 21 30  1  0  0  0  0
 22 28  1  0  0  0  0
 23 31  1  0  0  0  0
 25 28  1  0  0  0  0
 26 27  2  0  0  0  0
 27 29  1  0  0  0  0
  1 33  1  0  0  0  0
  2 34  1  0  0  0  0
  3 35  1  0  0  0  0
  4 36  1  0  0  0  0
  5 37  1  0  0  0  0
  6 38  1  0  0  0  0
 12 39  1  0  0  0  0
 13 40  1  0  0  0  0
 14 41  1  0  0  0  0
 15 42  1  0  0  0  0
 17 43  1  0  0  0  0
 17 44  1  0  0  0  0
 18 45  1  0  0  0  0
 18 46  1  0  0  0  0
 19 47  1  0  0  0  0
 19 48  1  0  0  0  0
 20 49  1  0  0  0  0
 20 50  1  0  0  0  0
 21 51  1  0  0  0  0
 21 52  1  0  0  0  0
 22 53  1  0  0  0  0
 22 54  1  0  0  0  0
 22 55  1  0  0  0  0
 23 56  1  0  0  0  0
 23 57  1  0  0  0  0
 24 58  1  0  0  0  0
 24 59  1  0  0  0  0
M  END
> <clash_score>
0

> <docking_score>
-10.159650802612305

> <overlap_score>
0.9690293669700623

$$$$
BENZO_435_1
  -OEChem-08222022473D

 47 50  0     0  0  0  0  0  0999 V2000
    9.1890   -3.5540   24.0140 C   0  0  0  0  0  0  0  0  0  0  0  0
    7.8700   -2.0610   25.3550 C   0  0  0  0  0  0  0  0  0  0  0  0
    9.5890   -2.4950   23.2210 C   0  0  0  0  0  0  0  0  0  0  0  0
    8.2550   -1.0010   24.5520 C   0  0  0  0  0  0  0  0  0  0  0  0
   12.7320   -0.4464   24.4370 C   0  0  0  0  0  0  0  0  0  0  0  0
   12.5970   -0.8682   22.2832 C   0  0  0  0  0  0  0  0  0  0  0  0
    8.3450   -3.3440   25.0980 C   0  0  0  0  0  0  0  0  0  0  0  0
   11.9616   -0.1817   23.2889 C   0  0  0  0  0  0  0  0  0  0  0  0
    9.1280   -1.2090   23.4870 C   0  0  0  0  0  0  0  0  0  0  0  0
    6.1460    0.6070   19.9750 C   0  0  0  0  0  0  0  0  0  0  0  0
    7.2710   -0.1460   19.8310 C   0  0  0  0  0  0  0  0  0  0  0  0
    5.3890    1.0010   21.0690 C   0  0  0  0  0  0  0  0  0  0  0  0
    4.2460    1.7520   20.8250 C   0  0  0  0  0  0  0  0  0  0  0  0
    3.8860    2.1050   19.5250 C   0  0  0  0  0  0  0  0  0  0  0  0
    4.6610    1.7170   18.4380 C   0  0  0  0  0  0  0  0  0  0  0  0
    9.0430    0.2380   21.4940 C   0  0  0  0  0  0  0  0  0  0  0  0
    7.9522   -4.4794   25.9764 C   0  0  0  0  0  0  0  0  0  0  0  0
   14.6393   -2.3180   22.2082 C   0  0  0  0  0  0  0  0  0  0  0  0
   10.7220    0.6590   23.1850 C   0  0  0  0  0  0  0  0  0  0  0  0
    8.0950   -0.7700   20.8440 C   0  0  0  0  0  0  0  0  0  0  0  0
   13.7770   -1.2393   24.1852 N   0  0  0  0  0  0  0  0  0  0  0  0
    7.5840   -0.2700   18.5160 N   0  0  0  0  0  0  0  0  0  0  0  0
    6.7100    0.3850   17.8100 N   0  0  0  0  0  0  0  0  0  0  0  0
   13.6676   -1.4788   22.8673 N   0  0  0  0  0  0  0  0  0  0  0  0
    5.7970    0.9500   18.6730 N   0  0  0  0  0  0  0  0  0  0  0  0
    9.5820   -0.1080   22.7000 N   0  0  0  0  0  0  0  0  0  0  0  0
    9.2950    1.3000   20.9480 O   0  0  0  0  0  0  0  0  0  0  0  0
    9.5403   -4.5627   23.7809 H   0  0  0  0  0  0  0  0  0  0  0  0
    7.1911   -1.8848   26.1904 H   0  0  0  0  0  0  0  0  0  0  0  0
   10.2682   -2.6746   22.3865 H   0  0  0  0  0  0  0  0  0  0  0  0
    7.8684   -0.0022   24.7594 H   0  0  0  0  0  0  0  0  0  0  0  0
   12.5771   -0.0965   25.4478 H   0  0  0  0  0  0  0  0  0  0  0  0
   12.3832   -0.9726   21.2281 H   0  0  0  0  0  0  0  0  0  0  0  0
    5.6533    0.7494   22.0767 H   0  0  0  0  0  0  0  0  0  0  0  0
    3.6389    2.0586   21.6677 H   0  0  0  0  0  0  0  0  0  0  0  0
    2.9824    2.6968   19.3331 H   0  0  0  0  0  0  0  0  0  0  0  0
    4.4115    1.9887   17.4356 H   0  0  0  0  0  0  0  0  0  0  0  0
    8.6668   -4.5891   26.8013 H   0  0  0  0  0  0  0  0  0  0  0  0
    6.9513   -4.3276   26.4010 H   0  0  0  0  0  0  0  0  0  0  0  0
    7.9196   -5.4231   25.4163 H   0  0  0  0  0  0  0  0  0  0  0  0
   15.4522   -1.6787   21.8540 H   0  0  0  0  0  0  0  0  0  0  0  0
   15.0179   -3.0612   22.9154 H   0  0  0  0  0  0  0  0  0  0  0  0
   14.1626   -2.8324   21.3691 H   0  0  0  0  0  0  0  0  0  0  0  0
   10.4561    1.0772   24.1620 H   0  0  0  0  0  0  0  0  0  0  0  0
   10.8743    1.5008   22.5014 H   0  0  0  0  0  0  0  0  0  0  0  0
    7.4785   -1.2070   21.6432 H   0  0  0  0  0  0  0  0  0  0  0  0
    8.7096   -1.5792   20.4228 H   0  0  0  0  0  0  0  0  0  0  0  0
  1  3  2  0  0  0  0
  1  7  1  0  0  0  0
  2  4  1  0  0  0  0
  2  7  2  0  0  0  0
  3  9  1  0  0  0  0
  4  9  2  0  0  0  0
  5  8  1  0  0  0  0
  5 21  2  0  0  0  0
  6  8  2  0  0  0  0
  6 24  1  0  0  0  0
  7 17  1  0  0  0  0
  8 19  1  0  0  0  0
  9 26  1  0  0  0  0
 10 11  2  0  0  0  0
 10 12  1  0  0  0  0
 10 25  1  0  0  0  0
 11 20  1  0  0  0  0
 11 22  1  0  0  0  0
 12 13  2  0  0  0  0
 13 14  1  0  0  0  0
 14 15  2  0  0  0  0
 15 25  1  0  0  0  0
 16 20  1  0  0  0  0
 16 26  1  0  0  0  0
 16 27  2  0  0  0  0
 18 24  1  0  0  0  0
 19 26  1  0  0  0  0
 21 24  1  0  0  0  0
 22 23  2  0  0  0  0
 23 25  1  0  0  0  0
  1 28  1  0  0  0  0
  2 29  1  0  0  0  0
  3 30  1  0  0  0  0
  4 31  1  0  0  0  0
  5 32  1  0  0  0  0
  6 33  1  0  0  0  0
 12 34  1  0  0  0  0
 13 35  1  0  0  0  0
 14 36  1  0  0  0  0
 15 37  1  0  0  0  0
 17 38  1  0  0  0  0
 17 39  1  0  0  0  0
 17 40  1  0  0  0  0
 18 41  1  0  0  0  0
 18 42  1  0  0  0  0
 18 43  1  0  0  0  0
 19 44  1  0  0  0  0
 19 45  1  0  0  0  0
 20 46  1  0  0  0  0
 20 47  1  0  0  0  0
M  END
> <clash_score>
0

> <docking_score>
-8.004487037658691

> <overlap_score>
0.9054274559020996

$$$$
BENZO_434_1
  -OEChem-08222022473D

 47 50  0     0  0  0  0  0  0999 V2000
   13.7501   -1.1157   24.6176 C   0  0  0  0  0  0  0  0  0  0  0  0
   12.5991   -0.3339   24.5202 C   0  0  0  0  0  0  0  0  0  0  0  0
    9.1890   -3.5540   24.0140 C   0  0  0  0  0  0  0  0  0  0  0  0
    7.8700   -2.0610   25.3550 C   0  0  0  0  0  0  0  0  0  0  0  0
    9.5890   -2.4950   23.2210 C   0  0  0  0  0  0  0  0  0  0  0  0
    8.2550   -1.0010   24.5520 C   0  0  0  0  0  0  0  0  0  0  0  0
   14.2636   -1.7454   23.4838 C   0  0  0  0  0  0  0  0  0  0  0  0
   12.4750   -0.8115   22.1551 C   0  0  0  0  0  0  0  0  0  0  0  0
    8.3450   -3.3440   25.0980 C   0  0  0  0  0  0  0  0  0  0  0  0
   11.9616   -0.1817   23.2889 C   0  0  0  0  0  0  0  0  0  0  0  0
    9.1280   -1.2090   23.4870 C   0  0  0  0  0  0  0  0  0  0  0  0
   13.6261   -1.5933   22.2526 C   0  0  0  0  0  0  0  0  0  0  0  0
    6.1460    0.6070   19.9750 C   0  0  0  0  0  0  0  0  0  0  0  0
    7.2710   -0.1460   19.8310 C   0  0  0  0  0  0  0  0  0  0  0  0
    5.3890    1.0010   21.0690 C   0  0  0  0  0  0  0  0  0  0  0  0
    4.2460    1.7520   20.8250 C   0  0  0  0  0  0  0  0  0  0  0  0
    3.8860    2.1050   19.5250 C   0  0  0  0  0  0  0  0  0  0  0  0
    4.6610    1.7170   18.4380 C   0  0  0  0  0  0  0  0  0  0  0  0
    9.0430    0.2380   21.4940 C   0  0  0  0  0  0  0  0  0  0  0  0
    7.9522   -4.4794   25.9764 C   0  0  0  0  0  0  0  0  0  0  0  0
   10.7220    0.6590   23.1850 C   0  0  0  0  0  0  0  0  0  0  0  0
    8.0950   -0.7700   20.8440 C   0  0  0  0  0  0  0  0  0  0  0  0
    7.5840   -0.2700   18.5160 N   0  0  0  0  0  0  0  0  0  0  0  0
    6.7100    0.3850   17.8100 N   0  0  0  0  0  0  0  0  0  0  0  0
    5.7970    0.9500   18.6730 N   0  0  0  0  0  0  0  0  0  0  0  0
    9.5820   -0.1080   22.7000 N   0  0  0  0  0  0  0  0  0  0  0  0
    9.2950    1.3000   20.9480 O   0  0  0  0  0  0  0  0  0  0  0  0
   14.2594   -2.3714   20.8543 Cl  0  0  0  0  0  0  0  0  0  0  0  0
   14.2462   -1.2340   25.5766 H   0  0  0  0  0  0  0  0  0  0  0  0
   12.2060    0.1530   25.4088 H   0  0  0  0  0  0  0  0  0  0  0  0
    9.5403   -4.5627   23.7809 H   0  0  0  0  0  0  0  0  0  0  0  0
    7.1911   -1.8848   26.1904 H   0  0  0  0  0  0  0  0  0  0  0  0
   10.2682   -2.6746   22.3865 H   0  0  0  0  0  0  0  0  0  0  0  0
    7.8684   -0.0022   24.7594 H   0  0  0  0  0  0  0  0  0  0  0  0
   15.1613   -2.3520   23.5747 H   0  0  0  0  0  0  0  0  0  0  0  0
   11.9745   -0.6893   21.1973 H   0  0  0  0  0  0  0  0  0  0  0  0
    5.6533    0.7494   22.0767 H   0  0  0  0  0  0  0  0  0  0  0  0
    3.6389    2.0586   21.6677 H   0  0  0  0  0  0  0  0  0  0  0  0
    2.9824    2.6968   19.3331 H   0  0  0  0  0  0  0  0  0  0  0  0
    4.4115    1.9887   17.4356 H   0  0  0  0  0  0  0  0  0  0  0  0
    8.6668   -4.5891   26.8013 H   0  0  0  0  0  0  0  0  0  0  0  0
    6.9513   -4.3276   26.4010 H   0  0  0  0  0  0  0  0  0  0  0  0
    7.9196   -5.4231   25.4163 H   0  0  0  0  0  0  0  0  0  0  0  0
   10.4561    1.0772   24.1620 H   0  0  0  0  0  0  0  0  0  0  0  0
   10.8743    1.5008   22.5014 H   0  0  0  0  0  0  0  0  0  0  0  0
    7.4785   -1.2070   21.6432 H   0  0  0  0  0  0  0  0  0  0  0  0
    8.7096   -1.5792   20.4228 H   0  0  0  0  0  0  0  0  0  0  0  0
  1  2  2  0  0  0  0
  1  7  1  0  0  0  0
  2 10  1  0  0  0  0
  3  5  2  0  0  0  0
  3  9  1  0  0  0  0
  4  6  1  0  0  0  0
  4  9  2  0  0  0  0
  5 11  1  0  0  0  0
  6 11  2  0  0  0  0
  7 12  2  0  0  0  0
  8 10  2  0  0  0  0
  8 12  1  0  0  0  0
  9 20  1  0  0  0  0
 10 21  1  0  0  0  0
 11 26  1  0  0  0  0
 12 28  1  0  0  0  0
 13 14  2  0  0  0  0
 13 15  1  0  0  0  0
 13 25  1  0  0  0  0
 14 22  1  0  0  0  0
 14 23  1  0  0  0  0
 15 16  2  0  0  0  0
 16 17  1  0  0  0  0
 17 18  2  0  0  0  0
 18 25  1  0  0  0  0
 19 22  1  0  0  0  0
 19 26  1  0  0  0  0
 19 27  2  0  0  0  0
 21 26  1  0  0  0  0
 23 24  2  0  0  0  0
 24 25  1  0  0  0  0
  1 29  1  0  0  0  0
  2 30  1  0  0  0  0
  3 31  1  0  0  0  0
  4 32  1  0  0  0  0
  5 33  1  0  0  0  0
  6 34  1  0  0  0  0
  7 35  1  0  0  0  0
  8 36  1  0  0  0  0
 15 37  1  0  0  0  0
 16 38  1  0  0  0  0
 17 39  1  0  0  0  0
 18 40  1  0  0  0  0
 20 41  1  0  0  0  0
 20 42  1  0  0  0  0
 20 43  1  0  0  0  0
 21 44  1  0  0  0  0
 21 45  1  0  0  0  0
 22 46  1  0  0  0  0
 22 47  1  0  0  0  0
M  END
> <clash_score>
0

> <docking_score>
-8.768458366394043

> <overlap_score>
0.9100707769393921

$$$$
BENZO_437_1
  -OEChem-08222022473D

 48 51  0     0  0  0  0  0  0999 V2000
   14.2642   -1.7450   23.4813 C   0  0  0  0  0  0  0  0  0  0  0  0
   14.0779   -0.6681   24.3480 C   0  0  0  0  0  0  0  0  0  0  0  0
   13.2991   -2.0403   22.5184 C   0  0  0  0  0  0  0  0  0  0  0  0
   12.9266    0.1135   24.2518 C   0  0  0  0  0  0  0  0  0  0  0  0
   12.1478   -1.2587   22.4222 C   0  0  0  0  0  0  0  0  0  0  0  0
    9.5890   -2.4950   23.2210 C   0  0  0  0  0  0  0  0  0  0  0  0
    8.2550   -1.0010   24.5520 C   0  0  0  0  0  0  0  0  0  0  0  0
    9.1890   -3.5540   24.0140 C   0  0  0  0  0  0  0  0  0  0  0  0
    7.8700   -2.0610   25.3550 C   0  0  0  0  0  0  0  0  0  0  0  0
   11.9616   -0.1817   23.2889 C   0  0  0  0  0  0  0  0  0  0  0  0
    9.1280   -1.2090   23.4870 C   0  0  0  0  0  0  0  0  0  0  0  0
    8.3450   -3.3440   25.0980 C   0  0  0  0  0  0  0  0  0  0  0  0
    6.1460    0.6070   19.9750 C   0  0  0  0  0  0  0  0  0  0  0  0
    7.2710   -0.1460   19.8310 C   0  0  0  0  0  0  0  0  0  0  0  0
    5.3890    1.0010   21.0690 C   0  0  0  0  0  0  0  0  0  0  0  0
    4.2460    1.7520   20.8250 C   0  0  0  0  0  0  0  0  0  0  0  0
    3.8860    2.1050   19.5250 C   0  0  0  0  0  0  0  0  0  0  0  0
    4.6610    1.7170   18.4380 C   0  0  0  0  0  0  0  0  0  0  0  0
    9.0430    0.2380   21.4940 C   0  0  0  0  0  0  0  0  0  0  0  0
    8.5123   -5.6657   25.5744 C   0  0  0  0  0  0  0  0  0  0  0  0
   10.7220    0.6590   23.1850 C   0  0  0  0  0  0  0  0  0  0  0  0
    8.0950   -0.7700   20.8440 C   0  0  0  0  0  0  0  0  0  0  0  0
    7.5840   -0.2700   18.5160 N   0  0  0  0  0  0  0  0  0  0  0  0
    6.7100    0.3850   17.8100 N   0  0  0  0  0  0  0  0  0  0  0  0
    5.7970    0.9500   18.6730 N   0  0  0  0  0  0  0  0  0  0  0  0
    9.5820   -0.1080   22.7000 N   0  0  0  0  0  0  0  0  0  0  0  0
    9.2950    1.3000   20.9480 O   0  0  0  0  0  0  0  0  0  0  0  0
    7.9864   -4.3799   25.8996 O   0  0  0  0  0  0  0  0  0  0  0  0
   15.1613   -2.3527   23.5555 H   0  0  0  0  0  0  0  0  0  0  0  0
   14.8297   -0.4373   25.0971 H   0  0  0  0  0  0  0  0  0  0  0  0
   13.4443   -2.8780   21.8427 H   0  0  0  0  0  0  0  0  0  0  0  0
   12.7899    0.9506   24.9315 H   0  0  0  0  0  0  0  0  0  0  0  0
   11.4013   -1.4963   21.6690 H   0  0  0  0  0  0  0  0  0  0  0  0
   10.2678   -2.6746   22.3862 H   0  0  0  0  0  0  0  0  0  0  0  0
    7.8691   -0.0023   24.7606 H   0  0  0  0  0  0  0  0  0  0  0  0
    9.5404   -4.5633   23.7846 H   0  0  0  0  0  0  0  0  0  0  0  0
    7.1920   -1.8875   26.1914 H   0  0  0  0  0  0  0  0  0  0  0  0
    5.6533    0.7494   22.0767 H   0  0  0  0  0  0  0  0  0  0  0  0
    3.6389    2.0586   21.6677 H   0  0  0  0  0  0  0  0  0  0  0  0
    2.9824    2.6968   19.3331 H   0  0  0  0  0  0  0  0  0  0  0  0
    4.4115    1.9887   17.4356 H   0  0  0  0  0  0  0  0  0  0  0  0
    8.1469   -6.4023   26.2941 H   0  0  0  0  0  0  0  0  0  0  0  0
    9.6044   -5.6298   25.5962 H   0  0  0  0  0  0  0  0  0  0  0  0
    8.1788   -5.9429   24.5716 H   0  0  0  0  0  0  0  0  0  0  0  0
   10.4561    1.0772   24.1620 H   0  0  0  0  0  0  0  0  0  0  0  0
   10.8743    1.5008   22.5014 H   0  0  0  0  0  0  0  0  0  0  0  0
    7.4785   -1.2070   21.6432 H   0  0  0  0  0  0  0  0  0  0  0  0
    8.7096   -1.5792   20.4228 H   0  0  0  0  0  0  0  0  0  0  0  0
  1  2  1  0  0  0  0
  1  3  2  0  0  0  0
  2  4  2  0  0  0  0
  3  5  1  0  0  0  0
  4 10  1  0  0  0  0
  5 10  2  0  0  0  0
  6  8  2  0  0  0  0
  6 11  1  0  0  0  0
  7  9  1  0  0  0  0
  7 11  2  0  0  0  0
  8 12  1  0  0  0  0
  9 12  2  0  0  0  0
 10 21  1  0  0  0  0
 11 26  1  0  0  0  0
 12 28  1  0  0  0  0
 13 14  2  0  0  0  0
 13 15  1  0  0  0  0
 13 25  1  0  0  0  0
 14 22  1  0  0  0  0
 14 23  1  0  0  0  0
 15 16  2  0  0  0  0
 16 17  1  0  0  0  0
 17 18  2  0  0  0  0
 18 25  1  0  0  0  0
 19 22  1  0  0  0  0
 19 26  1  0  0  0  0
 19 27  2  0  0  0  0
 20 28  1  0  0  0  0
 21 26  1  0  0  0  0
 23 24  2  0  0  0  0
 24 25  1  0  0  0  0
  1 29  1  0  0  0  0
  2 30  1  0  0  0  0
  3 31  1  0  0  0  0
  4 32  1  0  0  0  0
  5 33  1  0  0  0  0
  6 34  1  0  0  0  0
  7 35  1  0  0  0  0
  8 36  1  0  0  0  0
  9 37  1  0  0  0  0
 15 38  1  0  0  0  0
 16 39  1  0  0  0  0
 17 40  1  0  0  0  0
 18 41  1  0  0  0  0
 20 42  1  0  0  0  0
 20 43  1  0  0  0  0
 20 44  1  0  0  0  0
 21 45  1  0  0  0  0
 21 46  1  0  0  0  0
 22 47  1  0  0  0  0
 22 48  1  0  0  0  0
M  END
> <clash_score>
0

> <docking_score>
-9.934762954711914

> <overlap_score>
0.9154635667800903

$$$$
BENZO_436_1
  -OEChem-08222022473D

 45 48  0     0  0  0  0  0  0999 V2000
    9.5890   -2.4950   23.2210 C   0  0  0  0  0  0  0  0  0  0  0  0
    8.2550   -1.0010   24.5520 C   0  0  0  0  0  0  0  0  0  0  0  0
    9.1890   -3.5540   24.0140 C   0  0  0  0  0  0  0  0  0  0  0  0
    7.8700   -2.0610   25.3550 C   0  0  0  0  0  0  0  0  0  0  0  0
   12.5566   -0.8597   22.1860 C   0  0  0  0  0  0  0  0  0  0  0  0
   13.6839   -1.5596   22.5559 C   0  0  0  0  0  0  0  0  0  0  0  0
   12.6568   -0.3896   24.4600 C   0  0  0  0  0  0  0  0  0  0  0  0
   11.9616   -0.1817   23.2889 C   0  0  0  0  0  0  0  0  0  0  0  0
    9.1280   -1.2090   23.4870 C   0  0  0  0  0  0  0  0  0  0  0  0
    8.3450   -3.3440   25.0980 C   0  0  0  0  0  0  0  0  0  0  0  0
    6.1460    0.6070   19.9750 C   0  0  0  0  0  0  0  0  0  0  0  0
    7.2710   -0.1460   19.8310 C   0  0  0  0  0  0  0  0  0  0  0  0
    5.3890    1.0010   21.0690 C   0  0  0  0  0  0  0  0  0  0  0  0
    4.2460    1.7520   20.8250 C   0  0  0  0  0  0  0  0  0  0  0  0
    3.8860    2.1050   19.5250 C   0  0  0  0  0  0  0  0  0  0  0  0
    4.6610    1.7170   18.4380 C   0  0  0  0  0  0  0  0  0  0  0  0
    9.0430    0.2380   21.4940 C   0  0  0  0  0  0  0  0  0  0  0  0
    8.5123   -5.6657   25.5744 C   0  0  0  0  0  0  0  0  0  0  0  0
   10.7220    0.6590   23.1850 C   0  0  0  0  0  0  0  0  0  0  0  0
    8.0950   -0.7700   20.8440 C   0  0  0  0  0  0  0  0  0  0  0  0
    7.5840   -0.2700   18.5160 N   0  0  0  0  0  0  0  0  0  0  0  0
    6.7100    0.3850   17.8100 N   0  0  0  0  0  0  0  0  0  0  0  0
    5.7970    0.9500   18.6730 N   0  0  0  0  0  0  0  0  0  0  0  0
    9.5820   -0.1080   22.7000 N   0  0  0  0  0  0  0  0  0  0  0  0
    9.2950    1.3000   20.9480 O   0  0  0  0  0  0  0  0  0  0  0  0
    7.9864   -4.3799   25.8996 O   0  0  0  0  0  0  0  0  0  0  0  0
   14.0209   -1.3981   24.2270 S   0  0  0  0  0  0  0  0  0  0  0  0
   10.2678   -2.6746   22.3862 H   0  0  0  0  0  0  0  0  0  0  0  0
    7.8691   -0.0023   24.7606 H   0  0  0  0  0  0  0  0  0  0  0  0
    9.5404   -4.5633   23.7846 H   0  0  0  0  0  0  0  0  0  0  0  0
    7.1920   -1.8875   26.1914 H   0  0  0  0  0  0  0  0  0  0  0  0
   12.1799   -0.8381   21.1711 H   0  0  0  0  0  0  0  0  0  0  0  0
   14.3253   -2.1586   21.9250 H   0  0  0  0  0  0  0  0  0  0  0  0
   12.4317   -0.0003   25.4433 H   0  0  0  0  0  0  0  0  0  0  0  0
    5.6533    0.7494   22.0767 H   0  0  0  0  0  0  0  0  0  0  0  0
    3.6389    2.0586   21.6677 H   0  0  0  0  0  0  0  0  0  0  0  0
    2.9824    2.6968   19.3331 H   0  0  0  0  0  0  0  0  0  0  0  0
    4.4115    1.9887   17.4356 H   0  0  0  0  0  0  0  0  0  0  0  0
    8.1469   -6.4023   26.2941 H   0  0  0  0  0  0  0  0  0  0  0  0
    9.6044   -5.6298   25.5962 H   0  0  0  0  0  0  0  0  0  0  0  0
    8.1788   -5.9429   24.5716 H   0  0  0  0  0  0  0  0  0  0  0  0
   10.4561    1.0772   24.1620 H   0  0  0  0  0  0  0  0  0  0  0  0
   10.8743    1.5008   22.5014 H   0  0  0  0  0  0  0  0  0  0  0  0
    7.4785   -1.2070   21.6432 H   0  0  0  0  0  0  0  0  0  0  0  0
    8.7096   -1.5792   20.4228 H   0  0  0  0  0  0  0  0  0  0  0  0
  1  3  2  0  0  0  0
  1  9  1  0  0  0  0
  2  4  1  0  0  0  0
  2  9  2  0  0  0  0
  3 10  1  0  0  0  0
  4 10  2  0  0  0  0
  5  6  2  0  0  0  0
  5  8  1  0  0  0  0
  6 27  1  0  0  0  0
  7  8  2  0  0  0  0
  7 27  1  0  0  0  0
  8 19  1  0  0  0  0
  9 24  1  0  0  0  0
 10 26  1  0  0  0  0
 11 12  2  0  0  0  0
 11 13  1  0  0  0  0
 11 23  1  0  0  0  0
 12 20  1  0  0  0  0
 12 21  1  0  0  0  0
 13 14  2  0  0  0  0
 14 15  1  0  0  0  0
 15 16  2  0  0  0  0
 16 23  1  0  0  0  0
 17 20  1  0  0  0  0
 17 24  1  0  0  0  0
 17 25  2  0  0  0  0
 18 26  1  0  0  0  0
 19 24  1  0  0  0  0
 21 22  2  0  0  0  0
 22 23  1  0  0  0  0
  1 28  1  0  0  0  0
  2 29  1  0  0  0  0
  3 30  1  0  0  0  0
  4 31  1  0  0  0  0
  5 32  1  0  0  0  0
  6 33  1  0  0  0  0
  7 34  1  0  0  0  0
 13 35  1  0  0  0  0
 14 36  1  0  0  0  0
 15 37  1  0  0  0  0
 16 38  1  0  0  0  0
 18 39  1  0  0  0  0
 18 40  1  0  0  0  0
 18 41  1  0  0  0  0
 19 42  1  0  0  0  0
 19 43  1  0  0  0  0
 20 44  1  0  0  0  0
 20 45  1  0  0  0  0
M  END
> <clash_score>
0

> <docking_score>
-9.323471069335938

> <overlap_score>
0.9034129977226257

$$$$
BENZO_439_1
  -OEChem-08222022473D

 48 51  0     0  0  0  0  0  0999 V2000
    9.5890   -2.4950   23.2210 C   0  0  0  0  0  0  0  0  0  0  0  0
    8.2550   -1.0010   24.5520 C   0  0  0  0  0  0  0  0  0  0  0  0
    9.1890   -3.5540   24.0140 C   0  0  0  0  0  0  0  0  0  0  0  0
    7.8700   -2.0610   25.3550 C   0  0  0  0  0  0  0  0  0  0  0  0
   12.7320   -0.4464   24.4370 C   0  0  0  0  0  0  0  0  0  0  0  0
   12.5970   -0.8682   22.2832 C   0  0  0  0  0  0  0  0  0  0  0  0
   11.9616   -0.1817   23.2889 C   0  0  0  0  0  0  0  0  0  0  0  0
    9.1280   -1.2090   23.4870 C   0  0  0  0  0  0  0  0  0  0  0  0
    8.3450   -3.3440   25.0980 C   0  0  0  0  0  0  0  0  0  0  0  0
    6.1460    0.6070   19.9750 C   0  0  0  0  0  0  0  0  0  0  0  0
    7.2710   -0.1460   19.8310 C   0  0  0  0  0  0  0  0  0  0  0  0
    5.3890    1.0010   21.0690 C   0  0  0  0  0  0  0  0  0  0  0  0
    4.2460    1.7520   20.8250 C   0  0  0  0  0  0  0  0  0  0  0  0
    3.8860    2.1050   19.5250 C   0  0  0  0  0  0  0  0  0  0  0  0
    4.6610    1.7170   18.4380 C   0  0  0  0  0  0  0  0  0  0  0  0
    9.0430    0.2380   21.4940 C   0  0  0  0  0  0  0  0  0  0  0  0
   14.6393   -2.3180   22.2082 C   0  0  0  0  0  0  0  0  0  0  0  0
    8.5123   -5.6657   25.5744 C   0  0  0  0  0  0  0  0  0  0  0  0
   10.7220    0.6590   23.1850 C   0  0  0  0  0  0  0  0  0  0  0  0
    8.0950   -0.7700   20.8440 C   0  0  0  0  0  0  0  0  0  0  0  0
   13.7770   -1.2393   24.1852 N   0  0  0  0  0  0  0  0  0  0  0  0
    7.5840   -0.2700   18.5160 N   0  0  0  0  0  0  0  0  0  0  0  0
    6.7100    0.3850   17.8100 N   0  0  0  0  0  0  0  0  0  0  0  0
   13.6676   -1.4788   22.8673 N   0  0  0  0  0  0  0  0  0  0  0  0
    5.7970    0.9500   18.6730 N   0  0  0  0  0  0  0  0  0  0  0  0
    9.5820   -0.1080   22.7000 N   0  0  0  0  0  0  0  0  0  0  0  0
    9.2950    1.3000   20.9480 O   0  0  0  0  0  0  0  0  0  0  0  0
    7.9864   -4.3799   25.8996 O   0  0  0  0  0  0  0  0  0  0  0  0
   10.2678   -2.6746   22.3862 H   0  0  0  0  0  0  0  0  0  0  0  0
    7.8691   -0.0023   24.7606 H   0  0  0  0  0  0  0  0  0  0  0  0
    9.5404   -4.5633   23.7846 H   0  0  0  0  0  0  0  0  0  0  0  0
    7.1920   -1.8875   26.1914 H   0  0  0  0  0  0  0  0  0  0  0  0
   12.5771   -0.0965   25.4478 H   0  0  0  0  0  0  0  0  0  0  0  0
   12.3832   -0.9726   21.2281 H   0  0  0  0  0  0  0  0  0  0  0  0
    5.6533    0.7494   22.0767 H   0  0  0  0  0  0  0  0  0  0  0  0
    3.6389    2.0586   21.6677 H   0  0  0  0  0  0  0  0  0  0  0  0
    2.9824    2.6968   19.3331 H   0  0  0  0  0  0  0  0  0  0  0  0
    4.4115    1.9887   17.4356 H   0  0  0  0  0  0  0  0  0  0  0  0
   15.4522   -1.6787   21.8540 H   0  0  0  0  0  0  0  0  0  0  0  0
   15.0179   -3.0612   22.9154 H   0  0  0  0  0  0  0  0  0  0  0  0
   14.1626   -2.8324   21.3691 H   0  0  0  0  0  0  0  0  0  0  0  0
    8.1469   -6.4023   26.2941 H   0  0  0  0  0  0  0  0  0  0  0  0
    9.6044   -5.6298   25.5962 H   0  0  0  0  0  0  0  0  0  0  0  0
    8.1788   -5.9429   24.5716 H   0  0  0  0  0  0  0  0  0  0  0  0
   10.4561    1.0772   24.1620 H   0  0  0  0  0  0  0  0  0  0  0  0
   10.8743    1.5008   22.5014 H   0  0  0  0  0  0  0  0  0  0  0  0
    7.4785   -1.2070   21.6432 H   0  0  0  0  0  0  0  0  0  0  0  0
    8.7096   -1.5792   20.4228 H   0  0  0  0  0  0  0  0  0  0  0  0
  1  3  2  0  0  0  0
  1  8  1  0  0  0  0
  2  4  1  0  0  0  0
  2  8  2  0  0  0  0
  3  9  1  0  0  0  0
  4  9  2  0  0  0  0
  5  7  1  0  0  0  0
  5 21  2  0  0  0  0
  6  7  2  0  0  0  0
  6 24  1  0  0  0  0
  7 19  1  0  0  0  0
  8 26  1  0  0  0  0
  9 28  1  0  0  0  0
 10 11  2  0  0  0  0
 10 12  1  0  0  0  0
 10 25  1  0  0  0  0
 11 20  1  0  0  0  0
 11 22  1  0  0  0  0
 12 13  2  0  0  0  0
 13 14  1  0  0  0  0
 14 15  2  0  0  0  0
 15 25  1  0  0  0  0
 16 20  1  0  0  0  0
 16 26  1  0  0  0  0
 16 27  2  0  0  0  0
 17 24  1  0  0  0  0
 18 28  1  0  0  0  0
 19 26  1  0  0  0  0
 21 24  1  0  0  0  0
 22 23  2  0  0  0  0
 23 25  1  0  0  0  0
  1 29  1  0  0  0  0
  2 30  1  0  0  0  0
  3 31  1  0  0  0  0
  4 32  1  0  0  0  0
  5 33  1  0  0  0  0
  6 34  1  0  0  0  0
 12 35  1  0  0  0  0
 13 36  1  0  0  0  0
 14 37  1  0  0  0  0
 15 38  1  0  0  0  0
 17 39  1  0  0  0  0
 17 40  1  0  0  0  0
 17 41  1  0  0  0  0
 18 42  1  0  0  0  0
 18 43  1  0  0  0  0
 18 44  1  0  0  0  0
 19 45  1  0  0  0  0
 19 46  1  0  0  0  0
 20 47  1  0  0  0  0
 20 48  1  0  0  0  0
M  END
> <clash_score>
0

> <docking_score>
-8.124664306640625

> <overlap_score>
0.9186850786209106

$$$$
BENZO_438_1
  -OEChem-08222022473D

 48 51  0     0  0  0  0  0  0999 V2000
   13.7501   -1.1157   24.6176 C   0  0  0  0  0  0  0  0  0  0  0  0
   12.5991   -0.3339   24.5202 C   0  0  0  0  0  0  0  0  0  0  0  0
    9.5890   -2.4950   23.2210 C   0  0  0  0  0  0  0  0  0  0  0  0
    8.2550   -1.0010   24.5520 C   0  0  0  0  0  0  0  0  0  0  0  0
    9.1890   -3.5540   24.0140 C   0  0  0  0  0  0  0  0  0  0  0  0
    7.8700   -2.0610   25.3550 C   0  0  0  0  0  0  0  0  0  0  0  0
   14.2636   -1.7454   23.4838 C   0  0  0  0  0  0  0  0  0  0  0  0
   12.4750   -0.8115   22.1551 C   0  0  0  0  0  0  0  0  0  0  0  0
   11.9616   -0.1817   23.2889 C   0  0  0  0  0  0  0  0  0  0  0  0
    9.1280   -1.2090   23.4870 C   0  0  0  0  0  0  0  0  0  0  0  0
    8.3450   -3.3440   25.0980 C   0  0  0  0  0  0  0  0  0  0  0  0
   13.6261   -1.5933   22.2526 C   0  0  0  0  0  0  0  0  0  0  0  0
    6.1460    0.6070   19.9750 C   0  0  0  0  0  0  0  0  0  0  0  0
    7.2710   -0.1460   19.8310 C   0  0  0  0  0  0  0  0  0  0  0  0
    5.3890    1.0010   21.0690 C   0  0  0  0  0  0  0  0  0  0  0  0
    4.2460    1.7520   20.8250 C   0  0  0  0  0  0  0  0  0  0  0  0
    3.8860    2.1050   19.5250 C   0  0  0  0  0  0  0  0  0  0  0  0
    4.6610    1.7170   18.4380 C   0  0  0  0  0  0  0  0  0  0  0  0
    9.0430    0.2380   21.4940 C   0  0  0  0  0  0  0  0  0  0  0  0
    8.5123   -5.6657   25.5744 C   0  0  0  0  0  0  0  0  0  0  0  0
   10.7220    0.6590   23.1850 C   0  0  0  0  0  0  0  0  0  0  0  0
    8.0950   -0.7700   20.8440 C   0  0  0  0  0  0  0  0  0  0  0  0
    7.5840   -0.2700   18.5160 N   0  0  0  0  0  0  0  0  0  0  0  0
    6.7100    0.3850   17.8100 N   0  0  0  0  0  0  0  0  0  0  0  0
    5.7970    0.9500   18.6730 N   0  0  0  0  0  0  0  0  0  0  0  0
    9.5820   -0.1080   22.7000 N   0  0  0  0  0  0  0  0  0  0  0  0
    9.2950    1.3000   20.9480 O   0  0  0  0  0  0  0  0  0  0  0  0
    7.9864   -4.3799   25.8996 O   0  0  0  0  0  0  0  0  0  0  0  0
   14.2594   -2.3714   20.8543 Cl  0  0  0  0  0  0  0  0  0  0  0  0
   14.2462   -1.2340   25.5766 H   0  0  0  0  0  0  0  0  0  0  0  0
   12.2060    0.1530   25.4088 H   0  0  0  0  0  0  0  0  0  0  0  0
   10.2678   -2.6746   22.3862 H   0  0  0  0  0  0  0  0  0  0  0  0
    7.8691   -0.0023   24.7606 H   0  0  0  0  0  0  0  0  0  0  0  0
    9.5404   -4.5633   23.7846 H   0  0  0  0  0  0  0  0  0  0  0  0
    7.1920   -1.8875   26.1914 H   0  0  0  0  0  0  0  0  0  0  0  0
   15.1613   -2.3520   23.5747 H   0  0  0  0  0  0  0  0  0  0  0  0
   11.9745   -0.6893   21.1973 H   0  0  0  0  0  0  0  0  0  0  0  0
    5.6533    0.7494   22.0767 H   0  0  0  0  0  0  0  0  0  0  0  0
    3.6389    2.0586   21.6677 H   0  0  0  0  0  0  0  0  0  0  0  0
    2.9824    2.6968   19.3331 H   0  0  0  0  0  0  0  0  0  0  0  0
    4.4115    1.9887   17.4356 H   0  0  0  0  0  0  0  0  0  0  0  0
    8.1469   -6.4023   26.2941 H   0  0  0  0  0  0  0  0  0  0  0  0
    9.6044   -5.6298   25.5962 H   0  0  0  0  0  0  0  0  0  0  0  0
    8.1788   -5.9429   24.5716 H   0  0  0  0  0  0  0  0  0  0  0  0
   10.4561    1.0772   24.1620 H   0  0  0  0  0  0  0  0  0  0  0  0
   10.8743    1.5008   22.5014 H   0  0  0  0  0  0  0  0  0  0  0  0
    7.4785   -1.2070   21.6432 H   0  0  0  0  0  0  0  0  0  0  0  0
    8.7096   -1.5792   20.4228 H   0  0  0  0  0  0  0  0  0  0  0  0
  1  2  2  0  0  0  0
  1  7  1  0  0  0  0
  2  9  1  0  0  0  0
  3  5  2  0  0  0  0
  3 10  1  0  0  0  0
  4  6  1  0  0  0  0
  4 10  2  0  0  0  0
  5 11  1  0  0  0  0
  6 11  2  0  0  0  0
  7 12  2  0  0  0  0
  8  9  2  0  0  0  0
  8 12  1  0  0  0  0
  9 21  1  0  0  0  0
 10 26  1  0  0  0  0
 11 28  1  0  0  0  0
 12 29  1  0  0  0  0
 13 14  2  0  0  0  0
 13 15  1  0  0  0  0
 13 25  1  0  0  0  0
 14 22  1  0  0  0  0
 14 23  1  0  0  0  0
 15 16  2  0  0  0  0
 16 17  1  0  0  0  0
 17 18  2  0  0  0  0
 18 25  1  0  0  0  0
 19 22  1  0  0  0  0
 19 26  1  0  0  0  0
 19 27  2  0  0  0  0
 20 28  1  0  0  0  0
 21 26  1  0  0  0  0
 23 24  2  0  0  0  0
 24 25  1  0  0  0  0
  1 30  1  0  0  0  0
  2 31  1  0  0  0  0
  3 32  1  0  0  0  0
  4 33  1  0  0  0  0
  5 34  1  0  0  0  0
  6 35  1  0  0  0  0
  7 36  1  0  0  0  0
  8 37  1  0  0  0  0
 15 38  1  0  0  0  0
 16 39  1  0  0  0  0
 17 40  1  0  0  0  0
 18 41  1  0  0  0  0
 20 42  1  0  0  0  0
 20 43  1  0  0  0  0
 20 44  1  0  0  0  0
 21 45  1  0  0  0  0
 21 46  1  0  0  0  0
 22 47  1  0  0  0  0
 22 48  1  0  0  0  0
M  END
> <clash_score>
0

> <docking_score>
-8.88863754272461

> <overlap_score>
0.9233071208000183

$$$$
BENZO_441_1
  -OEChem-08222022473D

 58 62  0     0  0  0  0  0  0999 V2000
   14.2641   -1.7450   23.4813 C   0  0  0  0  0  0  0  0  0  0  0  0
   14.0779   -0.6681   24.3480 C   0  0  0  0  0  0  0  0  0  0  0  0
   13.2991   -2.0403   22.5184 C   0  0  0  0  0  0  0  0  0  0  0  0
   12.9266    0.1135   24.2518 C   0  0  0  0  0  0  0  0  0  0  0  0
   12.1478   -1.2587   22.4222 C   0  0  0  0  0  0  0  0  0  0  0  0
    9.1890   -3.5540   24.0140 C   0  0  0  0  0  0  0  0  0  0  0  0
    7.8700   -2.0610   25.3550 C   0  0  0  0  0  0  0  0  0  0  0  0
    9.5890   -2.4950   23.2210 C   0  0  0  0  0  0  0  0  0  0  0  0
    8.2550   -1.0010   24.5520 C   0  0  0  0  0  0  0  0  0  0  0  0
   11.9616   -0.1817   23.2889 C   0  0  0  0  0  0  0  0  0  0  0  0
    8.3450   -3.3440   25.0980 C   0  0  0  0  0  0  0  0  0  0  0  0
    9.1280   -1.2090   23.4870 C   0  0  0  0  0  0  0  0  0  0  0  0
    6.1460    0.6070   19.9750 C   0  0  0  0  0  0  0  0  0  0  0  0
    7.2710   -0.1460   19.8310 C   0  0  0  0  0  0  0  0  0  0  0  0
    5.3890    1.0010   21.0690 C   0  0  0  0  0  0  0  0  0  0  0  0
    4.2460    1.7520   20.8250 C   0  0  0  0  0  0  0  0  0  0  0  0
    3.8860    2.1050   19.5250 C   0  0  0  0  0  0  0  0  0  0  0  0
    4.6610    1.7170   18.4380 C   0  0  0  0  0  0  0  0  0  0  0  0
    7.8687   -5.7518   25.4384 C   0  0  0  0  0  0  0  0  0  0  0  0
    9.0430    0.2380   21.4940 C   0  0  0  0  0  0  0  0  0  0  0  0
    7.7614   -6.8724   26.4584 C   0  0  0  0  0  0  0  0  0  0  0  0
    7.0004   -6.5095   27.7148 C   0  0  0  0  0  0  0  0  0  0  0  0
    7.6035   -5.2531   28.3027 C   0  0  0  0  0  0  0  0  0  0  0  0
    7.4713   -4.1195   27.2996 C   0  0  0  0  0  0  0  0  0  0  0  0
   10.7220    0.6590   23.1850 C   0  0  0  0  0  0  0  0  0  0  0  0
    8.0950   -0.7700   20.8440 C   0  0  0  0  0  0  0  0  0  0  0  0
    7.5840   -0.2700   18.5160 N   0  0  0  0  0  0  0  0  0  0  0  0
    6.7100    0.3850   17.8100 N   0  0  0  0  0  0  0  0  0  0  0  0
    5.7970    0.9500   18.6730 N   0  0  0  0  0  0  0  0  0  0  0  0
    7.9635   -4.4452   25.9501 N   0  0  0  0  0  0  0  0  0  0  0  0
    9.5820   -0.1080   22.7000 N   0  0  0  0  0  0  0  0  0  0  0  0
    7.9246   -6.0590   24.2445 O   0  0  0  0  0  0  0  0  0  0  0  0
    9.2950    1.3000   20.9480 O   0  0  0  0  0  0  0  0  0  0  0  0
   15.1613   -2.3527   23.5555 H   0  0  0  0  0  0  0  0  0  0  0  0
   14.8297   -0.4373   25.0971 H   0  0  0  0  0  0  0  0  0  0  0  0
   13.4443   -2.8780   21.8427 H   0  0  0  0  0  0  0  0  0  0  0  0
   12.7899    0.9506   24.9315 H   0  0  0  0  0  0  0  0  0  0  0  0
   11.4013   -1.4963   21.6690 H   0  0  0  0  0  0  0  0  0  0  0  0
    9.5436   -4.5614   23.7799 H   0  0  0  0  0  0  0  0  0  0  0  0
    7.1918   -1.8823   26.1906 H   0  0  0  0  0  0  0  0  0  0  0  0
   10.2676   -2.6754   22.3861 H   0  0  0  0  0  0  0  0  0  0  0  0
    7.8686   -0.0026   24.7598 H   0  0  0  0  0  0  0  0  0  0  0  0
    5.6533    0.7494   22.0767 H   0  0  0  0  0  0  0  0  0  0  0  0
    3.6389    2.0586   21.6677 H   0  0  0  0  0  0  0  0  0  0  0  0
    2.9824    2.6968   19.3331 H   0  0  0  0  0  0  0  0  0  0  0  0
    4.4115    1.9887   17.4356 H   0  0  0  0  0  0  0  0  0  0  0  0
    7.2713   -7.7257   25.9758 H   0  0  0  0  0  0  0  0  0  0  0  0
    8.7837   -7.1790   26.7111 H   0  0  0  0  0  0  0  0  0  0  0  0
    5.9406   -6.3476   27.4837 H   0  0  0  0  0  0  0  0  0  0  0  0
    7.0566   -7.3314   28.4368 H   0  0  0  0  0  0  0  0  0  0  0  0
    7.0858   -4.9863   29.2307 H   0  0  0  0  0  0  0  0  0  0  0  0
    8.6585   -5.4140   28.5554 H   0  0  0  0  0  0  0  0  0  0  0  0
    6.4149   -3.8417   27.1934 H   0  0  0  0  0  0  0  0  0  0  0  0
    8.0152   -3.2408   27.6666 H   0  0  0  0  0  0  0  0  0  0  0  0
   10.4561    1.0772   24.1620 H   0  0  0  0  0  0  0  0  0  0  0  0
   10.8743    1.5008   22.5014 H   0  0  0  0  0  0  0  0  0  0  0  0
    7.4659   -1.2025   21.6292 H   0  0  0  0  0  0  0  0  0  0  0  0
    8.6969   -1.5747   20.4087 H   0  0  0  0  0  0  0  0  0  0  0  0
  1  2  1  0  0  0  0
  1  3  2  0  0  0  0
  2  4  2  0  0  0  0
  3  5  1  0  0  0  0
  4 10  1  0  0  0  0
  5 10  2  0  0  0  0
  6  8  2  0  0  0  0
  6 11  1  0  0  0  0
  7  9  1  0  0  0  0
  7 11  2  0  0  0  0
  8 12  1  0  0  0  0
  9 12  2  0  0  0  0
 10 25  1  0  0  0  0
 11 30  1  0  0  0  0
 12 31  1  0  0  0  0
 13 14  2  0  0  0  0
 13 15  1  0  0  0  0
 13 29  1  0  0  0  0
 14 26  1  0  0  0  0
 14 27  1  0  0  0  0
 15 16  2  0  0  0  0
 16 17  1  0  0  0  0
 17 18  2  0  0  0  0
 18 29  1  0  0  0  0
 19 21  1  0  0  0  0
 19 30  1  0  0  0  0
 19 32  2  0  0  0  0
 20 26  1  0  0  0  0
 20 31  1  0  0  0  0
 20 33  2  0  0  0  0
 21 22  1  0  0  0  0
 22 23  1  0  0  0  0
 23 24  1  0  0  0  0
 24 30  1  0  0  0  0
 25 31  1  0  0  0  0
 27 28  2  0  0  0  0
 28 29  1  0  0  0  0
  1 34  1  0  0  0  0
  2 35  1  0  0  0  0
  3 36  1  0  0  0  0
  4 37  1  0  0  0  0
  5 38  1  0  0  0  0
  6 39  1  0  0  0  0
  7 40  1  0  0  0  0
  8 41  1  0  0  0  0
  9 42  1  0  0  0  0
 15 43  1  0  0  0  0
 16 44  1  0  0  0  0
 17 45  1  0  0  0  0
 18 46  1  0  0  0  0
 21 47  1  0  0  0  0
 21 48  1  0  0  0  0
 22 49  1  0  0  0  0
 22 50  1  0  0  0  0
 23 51  1  0  0  0  0
 23 52  1  0  0  0  0
 24 53  1  0  0  0  0
 24 54  1  0  0  0  0
 25 55  1  0  0  0  0
 25 56  1  0  0  0  0
 26 57  1  0  0  0  0
 26 58  1  0  0  0  0
M  END
> <clash_score>
0

> <docking_score>
-8.771209716796875

> <overlap_score>
0.9891777038574219

$$$$
BENZO_440_1
  -OEChem-08222022473D

 55 59  0     0  0  0  0  0  0999 V2000
    9.1890   -3.5540   24.0140 C   0  0  0  0  0  0  0  0  0  0  0  0
    7.8700   -2.0610   25.3550 C   0  0  0  0  0  0  0  0  0  0  0  0
    9.5890   -2.4950   23.2210 C   0  0  0  0  0  0  0  0  0  0  0  0
    8.2550   -1.0010   24.5520 C   0  0  0  0  0  0  0  0  0  0  0  0
   12.6785   -0.3937   24.5018 C   0  0  0  0  0  0  0  0  0  0  0  0
   13.7775   -1.2037   24.3186 C   0  0  0  0  0  0  0  0  0  0  0  0
   12.5401   -0.8378   22.2246 C   0  0  0  0  0  0  0  0  0  0  0  0
   11.9616   -0.1817   23.2889 C   0  0  0  0  0  0  0  0  0  0  0  0
    8.3450   -3.3440   25.0980 C   0  0  0  0  0  0  0  0  0  0  0  0
    9.1280   -1.2090   23.4870 C   0  0  0  0  0  0  0  0  0  0  0  0
    6.1460    0.6070   19.9750 C   0  0  0  0  0  0  0  0  0  0  0  0
    7.2710   -0.1460   19.8310 C   0  0  0  0  0  0  0  0  0  0  0  0
    5.3890    1.0010   21.0690 C   0  0  0  0  0  0  0  0  0  0  0  0
    4.2460    1.7520   20.8250 C   0  0  0  0  0  0  0  0  0  0  0  0
    3.8860    2.1050   19.5250 C   0  0  0  0  0  0  0  0  0  0  0  0
    4.6610    1.7170   18.4380 C   0  0  0  0  0  0  0  0  0  0  0  0
    7.2752   -5.5548   25.4273 C   0  0  0  0  0  0  0  0  0  0  0  0
    9.0430    0.2380   21.4940 C   0  0  0  0  0  0  0  0  0  0  0  0
    7.1880   -6.7800   26.3209 C   0  0  0  0  0  0  0  0  0  0  0  0
    7.0916   -6.4753   27.7999 C   0  0  0  0  0  0  0  0  0  0  0  0
    8.2362   -5.5641   28.1841 C   0  0  0  0  0  0  0  0  0  0  0  0
    8.1241   -4.2655   27.4032 C   0  0  0  0  0  0  0  0  0  0  0  0
   10.7220    0.6590   23.1850 C   0  0  0  0  0  0  0  0  0  0  0  0
    8.0950   -0.7700   20.8440 C   0  0  0  0  0  0  0  0  0  0  0  0
    7.5840   -0.2700   18.5160 N   0  0  0  0  0  0  0  0  0  0  0  0
    6.7100    0.3850   17.8100 N   0  0  0  0  0  0  0  0  0  0  0  0
    5.7970    0.9500   18.6730 N   0  0  0  0  0  0  0  0  0  0  0  0
    7.9635   -4.4452   25.9501 N   0  0  0  0  0  0  0  0  0  0  0  0
    9.5820   -0.1080   22.7000 N   0  0  0  0  0  0  0  0  0  0  0  0
    6.7947   -5.6299   24.2931 O   0  0  0  0  0  0  0  0  0  0  0  0
    9.2950    1.3000   20.9480 O   0  0  0  0  0  0  0  0  0  0  0  0
   13.9416   -1.7051   22.6894 S   0  0  0  0  0  0  0  0  0  0  0  0
    9.5436   -4.5614   23.7799 H   0  0  0  0  0  0  0  0  0  0  0  0
    7.1918   -1.8823   26.1906 H   0  0  0  0  0  0  0  0  0  0  0  0
   10.2676   -2.6754   22.3861 H   0  0  0  0  0  0  0  0  0  0  0  0
    7.8686   -0.0026   24.7598 H   0  0  0  0  0  0  0  0  0  0  0  0
   12.4058    0.0253   25.4623 H   0  0  0  0  0  0  0  0  0  0  0  0
   14.4923   -1.5246   25.0631 H   0  0  0  0  0  0  0  0  0  0  0  0
   12.2108   -0.8511   21.1948 H   0  0  0  0  0  0  0  0  0  0  0  0
    5.6533    0.7494   22.0767 H   0  0  0  0  0  0  0  0  0  0  0  0
    3.6389    2.0586   21.6677 H   0  0  0  0  0  0  0  0  0  0  0  0
    2.9824    2.6968   19.3331 H   0  0  0  0  0  0  0  0  0  0  0  0
    4.4115    1.9887   17.4356 H   0  0  0  0  0  0  0  0  0  0  0  0
    6.3101   -7.3613   26.0164 H   0  0  0  0  0  0  0  0  0  0  0  0
    8.0752   -7.3922   26.1183 H   0  0  0  0  0  0  0  0  0  0  0  0
    6.1328   -5.9938   28.0269 H   0  0  0  0  0  0  0  0  0  0  0  0
    7.1363   -7.4051   28.3772 H   0  0  0  0  0  0  0  0  0  0  0  0
    8.2035   -5.3520   29.2586 H   0  0  0  0  0  0  0  0  0  0  0  0
    9.1990   -6.0474   27.9788 H   0  0  0  0  0  0  0  0  0  0  0  0
    7.2505   -3.6996   27.7511 H   0  0  0  0  0  0  0  0  0  0  0  0
    9.0155   -3.6525   27.5824 H   0  0  0  0  0  0  0  0  0  0  0  0
   10.4561    1.0772   24.1620 H   0  0  0  0  0  0  0  0  0  0  0  0
   10.8743    1.5008   22.5014 H   0  0  0  0  0  0  0  0  0  0  0  0
    7.4659   -1.2025   21.6292 H   0  0  0  0  0  0  0  0  0  0  0  0
    8.6969   -1.5747   20.4087 H   0  0  0  0  0  0  0  0  0  0  0  0
  1  3  2  0  0  0  0
  1  9  1  0  0  0  0
  2  4  1  0  0  0  0
  2  9  2  0  0  0  0
  3 10  1  0  0  0  0
  4 10  2  0  0  0  0
  5  6  2  0  0  0  0
  5  8  1  0  0  0  0
  6 32  1  0  0  0  0
  7  8  2  0  0  0  0
  7 32  1  0  0  0  0
  8 23  1  0  0  0  0
  9 28  1  0  0  0  0
 10 29  1  0  0  0  0
 11 12  2  0  0  0  0
 11 13  1  0  0  0  0
 11 27  1  0  0  0  0
 12 24  1  0  0  0  0
 12 25  1  0  0  0  0
 13 14  2  0  0  0  0
 14 15  1  0  0  0  0
 15 16  2  0  0  0  0
 16 27  1  0  0  0  0
 17 19  1  0  0  0  0
 17 28  1  0  0  0  0
 17 30  2  0  0  0  0
 18 24  1  0  0  0  0
 18 29  1  0  0  0  0
 18 31  2  0  0  0  0
 19 20  1  0  0  0  0
 20 21  1  0  0  0  0
 21 22  1  0  0  0  0
 22 28  1  0  0  0  0
 23 29  1  0  0  0  0
 25 26  2  0  0  0  0
 26 27  1  0  0  0  0
  1 33  1  0  0  0  0
  2 34  1  0  0  0  0
  3 35  1  0  0  0  0
  4 36  1  0  0  0  0
  5 37  1  0  0  0  0
  6 38  1  0  0  0  0
  7 39  1  0  0  0  0
 13 40  1  0  0  0  0
 14 41  1  0  0  0  0
 15 42  1  0  0  0  0
 16 43  1  0  0  0  0
 19 44  1  0  0  0  0
 19 45  1  0  0  0  0
 20 46  1  0  0  0  0
 20 47  1  0  0  0  0
 21 48  1  0  0  0  0
 21 49  1  0  0  0  0
 22 50  1  0  0  0  0
 22 51  1  0  0  0  0
 23 52  1  0  0  0  0
 23 53  1  0  0  0  0
 24 54  1  0  0  0  0
 24 55  1  0  0  0  0
M  END
> <clash_score>
0

> <docking_score>
-9.1683349609375

> <overlap_score>
0.9828841090202332

$$$$
BENZO_443_1
  -OEChem-08222022473D

 58 62  0     0  0  0  0  0  0999 V2000
    9.1890   -3.5540   24.0140 C   0  0  0  0  0  0  0  0  0  0  0  0
    7.8700   -2.0610   25.3550 C   0  0  0  0  0  0  0  0  0  0  0  0
    9.5890   -2.4950   23.2210 C   0  0  0  0  0  0  0  0  0  0  0  0
    8.2550   -1.0010   24.5520 C   0  0  0  0  0  0  0  0  0  0  0  0
   12.7320   -0.4464   24.4370 C   0  0  0  0  0  0  0  0  0  0  0  0
   12.5970   -0.8682   22.2832 C   0  0  0  0  0  0  0  0  0  0  0  0
   11.9616   -0.1817   23.2889 C   0  0  0  0  0  0  0  0  0  0  0  0
    8.3450   -3.3440   25.0980 C   0  0  0  0  0  0  0  0  0  0  0  0
    9.1280   -1.2090   23.4870 C   0  0  0  0  0  0  0  0  0  0  0  0
    6.1460    0.6070   19.9750 C   0  0  0  0  0  0  0  0  0  0  0  0
    7.2710   -0.1460   19.8310 C   0  0  0  0  0  0  0  0  0  0  0  0
    5.3890    1.0010   21.0690 C   0  0  0  0  0  0  0  0  0  0  0  0
    4.2460    1.7520   20.8250 C   0  0  0  0  0  0  0  0  0  0  0  0
    3.8860    2.1050   19.5250 C   0  0  0  0  0  0  0  0  0  0  0  0
    4.6610    1.7170   18.4380 C   0  0  0  0  0  0  0  0  0  0  0  0
    7.2752   -5.5548   25.4273 C   0  0  0  0  0  0  0  0  0  0  0  0
    9.0430    0.2380   21.4940 C   0  0  0  0  0  0  0  0  0  0  0  0
    7.1880   -6.7800   26.3209 C   0  0  0  0  0  0  0  0  0  0  0  0
    7.0916   -6.4753   27.7999 C   0  0  0  0  0  0  0  0  0  0  0  0
    8.2362   -5.5641   28.1841 C   0  0  0  0  0  0  0  0  0  0  0  0
    8.1241   -4.2655   27.4032 C   0  0  0  0  0  0  0  0  0  0  0  0
   14.6393   -2.3180   22.2082 C   0  0  0  0  0  0  0  0  0  0  0  0
   10.7220    0.6590   23.1850 C   0  0  0  0  0  0  0  0  0  0  0  0
    8.0950   -0.7700   20.8440 C   0  0  0  0  0  0  0  0  0  0  0  0
   13.7770   -1.2393   24.1852 N   0  0  0  0  0  0  0  0  0  0  0  0
    7.5840   -0.2700   18.5160 N   0  0  0  0  0  0  0  0  0  0  0  0
    6.7100    0.3850   17.8100 N   0  0  0  0  0  0  0  0  0  0  0  0
   13.6676   -1.4788   22.8673 N   0  0  0  0  0  0  0  0  0  0  0  0
    5.7970    0.9500   18.6730 N   0  0  0  0  0  0  0  0  0  0  0  0
    7.9635   -4.4452   25.9501 N   0  0  0  0  0  0  0  0  0  0  0  0
    9.5820   -0.1080   22.7000 N   0  0  0  0  0  0  0  0  0  0  0  0
    6.7947   -5.6299   24.2931 O   0  0  0  0  0  0  0  0  0  0  0  0
    9.2950    1.3000   20.9480 O   0  0  0  0  0  0  0  0  0  0  0  0
    9.5436   -4.5614   23.7799 H   0  0  0  0  0  0  0  0  0  0  0  0
    7.1918   -1.8823   26.1906 H   0  0  0  0  0  0  0  0  0  0  0  0
   10.2676   -2.6754   22.3861 H   0  0  0  0  0  0  0  0  0  0  0  0
    7.8686   -0.0026   24.7598 H   0  0  0  0  0  0  0  0  0  0  0  0
   12.5771   -0.0965   25.4478 H   0  0  0  0  0  0  0  0  0  0  0  0
   12.3832   -0.9726   21.2281 H   0  0  0  0  0  0  0  0  0  0  0  0
    5.6533    0.7494   22.0767 H   0  0  0  0  0  0  0  0  0  0  0  0
    3.6389    2.0586   21.6677 H   0  0  0  0  0  0  0  0  0  0  0  0
    2.9824    2.6968   19.3331 H   0  0  0  0  0  0  0  0  0  0  0  0
    4.4115    1.9887   17.4356 H   0  0  0  0  0  0  0  0  0  0  0  0
    6.3101   -7.3613   26.0164 H   0  0  0  0  0  0  0  0  0  0  0  0
    8.0752   -7.3922   26.1183 H   0  0  0  0  0  0  0  0  0  0  0  0
    6.1328   -5.9938   28.0269 H   0  0  0  0  0  0  0  0  0  0  0  0
    7.1363   -7.4051   28.3772 H   0  0  0  0  0  0  0  0  0  0  0  0
    8.2035   -5.3520   29.2586 H   0  0  0  0  0  0  0  0  0  0  0  0
    9.1990   -6.0474   27.9788 H   0  0  0  0  0  0  0  0  0  0  0  0
    7.2505   -3.6996   27.7511 H   0  0  0  0  0  0  0  0  0  0  0  0
    9.0155   -3.6525   27.5824 H   0  0  0  0  0  0  0  0  0  0  0  0
   15.4522   -1.6787   21.8540 H   0  0  0  0  0  0  0  0  0  0  0  0
   15.0179   -3.0613   22.9154 H   0  0  0  0  0  0  0  0  0  0  0  0
   14.1626   -2.8324   21.3691 H   0  0  0  0  0  0  0  0  0  0  0  0
   10.4561    1.0772   24.1620 H   0  0  0  0  0  0  0  0  0  0  0  0
   10.8743    1.5008   22.5014 H   0  0  0  0  0  0  0  0  0  0  0  0
    7.4659   -1.2025   21.6292 H   0  0  0  0  0  0  0  0  0  0  0  0
    8.6969   -1.5747   20.4087 H   0  0  0  0  0  0  0  0  0  0  0  0
  1  3  2  0  0  0  0
  1  8  1  0  0  0  0
  2  4  1  0  0  0  0
  2  8  2  0  0  0  0
  3  9  1  0  0  0  0
  4  9  2  0  0  0  0
  5  7  1  0  0  0  0
  5 25  2  0  0  0  0
  6  7  2  0  0  0  0
  6 28  1  0  0  0  0
  7 23  1  0  0  0  0
  8 30  1  0  0  0  0
  9 31  1  0  0  0  0
 10 11  2  0  0  0  0
 10 12  1  0  0  0  0
 10 29  1  0  0  0  0
 11 24  1  0  0  0  0
 11 26  1  0  0  0  0
 12 13  2  0  0  0  0
 13 14  1  0  0  0  0
 14 15  2  0  0  0  0
 15 29  1  0  0  0  0
 16 18  1  0  0  0  0
 16 30  1  0  0  0  0
 16 32  2  0  0  0  0
 17 24  1  0  0  0  0
 17 31  1  0  0  0  0
 17 33  2  0  0  0  0
 18 19  1  0  0  0  0
 19 20  1  0  0  0  0
 20 21  1  0  0  0  0
 21 30  1  0  0  0  0
 22 28  1  0  0  0  0
 23 31  1  0  0  0  0
 25 28  1  0  0  0  0
 26 27  2  0  0  0  0
 27 29  1  0  0  0  0
  1 34  1  0  0  0  0
  2 35  1  0  0  0  0
  3 36  1  0  0  0  0
  4 37  1  0  0  0  0
  5 38  1  0  0  0  0
  6 39  1  0  0  0  0
 12 40  1  0  0  0  0
 13 41  1  0  0  0  0
 14 42  1  0  0  0  0
 15 43  1  0  0  0  0
 18 44  1  0  0  0  0
 18 45  1  0  0  0  0
 19 46  1  0  0  0  0
 19 47  1  0  0  0  0
 20 48  1  0  0  0  0
 20 49  1  0  0  0  0
 21 50  1  0  0  0  0
 21 51  1  0  0  0  0
 22 52  1  0  0  0  0
 22 53  1  0  0  0  0
 22 54  1  0  0  0  0
 23 55  1  0  0  0  0
 23 56  1  0  0  0  0
 24 57  1  0  0  0  0
 24 58  1  0  0  0  0
M  END
> <clash_score>
0

> <docking_score>
-7.917556285858154

> <overlap_score>
0.999474287033081

$$$$
BENZO_445_1
  -OEChem-08222022473D

 57 61  0     0  0  0  0  0  0999 V2000
   14.2641   -1.7450   23.4813 C   0  0  0  0  0  0  0  0  0  0  0  0
   14.0779   -0.6681   24.3480 C   0  0  0  0  0  0  0  0  0  0  0  0
   13.2991   -2.0403   22.5184 C   0  0  0  0  0  0  0  0  0  0  0  0
   12.9266    0.1135   24.2518 C   0  0  0  0  0  0  0  0  0  0  0  0
   12.1478   -1.2587   22.4222 C   0  0  0  0  0  0  0  0  0  0  0  0
    9.1890   -3.5540   24.0140 C   0  0  0  0  0  0  0  0  0  0  0  0
    7.8700   -2.0610   25.3550 C   0  0  0  0  0  0  0  0  0  0  0  0
    9.5890   -2.4950   23.2210 C   0  0  0  0  0  0  0  0  0  0  0  0
    8.2550   -1.0010   24.5520 C   0  0  0  0  0  0  0  0  0  0  0  0
   11.9616   -0.1817   23.2889 C   0  0  0  0  0  0  0  0  0  0  0  0
    8.3450   -3.3440   25.0980 C   0  0  0  0  0  0  0  0  0  0  0  0
    9.1280   -1.2090   23.4870 C   0  0  0  0  0  0  0  0  0  0  0  0
    6.1460    0.6070   19.9750 C   0  0  0  0  0  0  0  0  0  0  0  0
    7.2710   -0.1460   19.8310 C   0  0  0  0  0  0  0  0  0  0  0  0
    5.3890    1.0010   21.0690 C   0  0  0  0  0  0  0  0  0  0  0  0
    4.2460    1.7520   20.8250 C   0  0  0  0  0  0  0  0  0  0  0  0
    3.8860    2.1050   19.5250 C   0  0  0  0  0  0  0  0  0  0  0  0
    4.6610    1.7170   18.4380 C   0  0  0  0  0  0  0  0  0  0  0  0
    9.0430    0.2380   21.4940 C   0  0  0  0  0  0  0  0  0  0  0  0
    7.2567   -5.5373   25.3128 C   0  0  0  0  0  0  0  0  0  0  0  0
    7.6783   -4.1701   27.3375 C   0  0  0  0  0  0  0  0  0  0  0  0
    7.3927   -6.7710   26.1978 C   0  0  0  0  0  0  0  0  0  0  0  0
    7.7912   -5.4770   28.1147 C   0  0  0  0  0  0  0  0  0  0  0  0
   10.7220    0.6590   23.1850 C   0  0  0  0  0  0  0  0  0  0  0  0
    8.0950   -0.7700   20.8440 C   0  0  0  0  0  0  0  0  0  0  0  0
    7.5840   -0.2700   18.5160 N   0  0  0  0  0  0  0  0  0  0  0  0
    6.7100    0.3850   17.8100 N   0  0  0  0  0  0  0  0  0  0  0  0
    5.7970    0.9500   18.6730 N   0  0  0  0  0  0  0  0  0  0  0  0
    7.9750   -4.4088   25.9208 N   0  0  0  0  0  0  0  0  0  0  0  0
    9.5820   -0.1080   22.7000 N   0  0  0  0  0  0  0  0  0  0  0  0
    9.2950    1.3000   20.9480 O   0  0  0  0  0  0  0  0  0  0  0  0
    6.9636   -6.4808   27.5280 O   0  0  0  0  0  0  0  0  0  0  0  0
   15.1613   -2.3527   23.5555 H   0  0  0  0  0  0  0  0  0  0  0  0
   14.8297   -0.4373   25.0971 H   0  0  0  0  0  0  0  0  0  0  0  0
   13.4443   -2.8780   21.8427 H   0  0  0  0  0  0  0  0  0  0  0  0
   12.7899    0.9506   24.9315 H   0  0  0  0  0  0  0  0  0  0  0  0
   11.4013   -1.4963   21.6690 H   0  0  0  0  0  0  0  0  0  0  0  0
    9.5426   -4.5618   23.7797 H   0  0  0  0  0  0  0  0  0  0  0  0
    7.1914   -1.8824   26.1903 H   0  0  0  0  0  0  0  0  0  0  0  0
   10.2669   -2.6745   22.3854 H   0  0  0  0  0  0  0  0  0  0  0  0
    7.8690   -0.0020   24.7587 H   0  0  0  0  0  0  0  0  0  0  0  0
    5.6533    0.7494   22.0767 H   0  0  0  0  0  0  0  0  0  0  0  0
    3.6389    2.0586   21.6677 H   0  0  0  0  0  0  0  0  0  0  0  0
    2.9824    2.6968   19.3331 H   0  0  0  0  0  0  0  0  0  0  0  0
    4.4115    1.9887   17.4356 H   0  0  0  0  0  0  0  0  0  0  0  0
    7.6535   -5.7575   24.3148 H   0  0  0  0  0  0  0  0  0  0  0  0
    6.1962   -5.2737   25.2113 H   0  0  0  0  0  0  0  0  0  0  0  0
    6.6579   -3.7759   27.4290 H   0  0  0  0  0  0  0  0  0  0  0  0
    8.3696   -3.4320   27.7610 H   0  0  0  0  0  0  0  0  0  0  0  0
    6.7582   -7.5752   25.8116 H   0  0  0  0  0  0  0  0  0  0  0  0
    8.4238   -7.1441   26.2130 H   0  0  0  0  0  0  0  0  0  0  0  0
    8.8287   -5.8300   28.1600 H   0  0  0  0  0  0  0  0  0  0  0  0
    7.4508   -5.3251   29.1440 H   0  0  0  0  0  0  0  0  0  0  0  0
   10.4561    1.0772   24.1620 H   0  0  0  0  0  0  0  0  0  0  0  0
   10.8743    1.5008   22.5014 H   0  0  0  0  0  0  0  0  0  0  0  0
    7.4659   -1.2025   21.6292 H   0  0  0  0  0  0  0  0  0  0  0  0
    8.6969   -1.5747   20.4087 H   0  0  0  0  0  0  0  0  0  0  0  0
  1  2  1  0  0  0  0
  1  3  2  0  0  0  0
  2  4  2  0  0  0  0
  3  5  1  0  0  0  0
  4 10  1  0  0  0  0
  5 10  2  0  0  0  0
  6  8  2  0  0  0  0
  6 11  1  0  0  0  0
  7  9  1  0  0  0  0
  7 11  2  0  0  0  0
  8 12  1  0  0  0  0
  9 12  2  0  0  0  0
 10 24  1  0  0  0  0
 11 29  1  0  0  0  0
 12 30  1  0  0  0  0
 13 14  2  0  0  0  0
 13 15  1  0  0  0  0
 13 28  1  0  0  0  0
 14 25  1  0  0  0  0
 14 26  1  0  0  0  0
 15 16  2  0  0  0  0
 16 17  1  0  0  0  0
 17 18  2  0  0  0  0
 18 28  1  0  0  0  0
 19 25  1  0  0  0  0
 19 30  1  0  0  0  0
 19 31  2  0  0  0  0
 20 22  1  0  0  0  0
 20 29  1  0  0  0  0
 21 23  1  0  0  0  0
 21 29  1  0  0  0  0
 22 32  1  0  0  0  0
 23 32  1  0  0  0  0
 24 30  1  0  0  0  0
 26 27  2  0  0  0  0
 27 28  1  0  0  0  0
  1 33  1  0  0  0  0
  2 34  1  0  0  0  0
  3 35  1  0  0  0  0
  4 36  1  0  0  0  0
  5 37  1  0  0  0  0
  6 38  1  0  0  0  0
  7 39  1  0  0  0  0
  8 40  1  0  0  0  0
  9 41  1  0  0  0  0
 15 42  1  0  0  0  0
 16 43  1  0  0  0  0
 17 44  1  0  0  0  0
 18 45  1  0  0  0  0
 20 46  1  0  0  0  0
 20 47  1  0  0  0  0
 21 48  1  0  0  0  0
 21 49  1  0  0  0  0
 22 50  1  0  0  0  0
 22 51  1  0  0  0  0
 23 52  1  0  0  0  0
 23 53  1  0  0  0  0
 24 54  1  0  0  0  0
 24 55  1  0  0  0  0
 25 56  1  0  0  0  0
 25 57  1  0  0  0  0
M  END
> <clash_score>
0

> <docking_score>
-10.031426429748535

> <overlap_score>
0.9890322685241699

$$$$
BENZO_442_1
  -OEChem-08222022473D

 58 62  0     0  0  0  0  0  0999 V2000
   13.7501   -1.1157   24.6177 C   0  0  0  0  0  0  0  0  0  0  0  0
   12.5991   -0.3339   24.5202 C   0  0  0  0  0  0  0  0  0  0  0  0
    9.1890   -3.5540   24.0140 C   0  0  0  0  0  0  0  0  0  0  0  0
    7.8700   -2.0610   25.3550 C   0  0  0  0  0  0  0  0  0  0  0  0
    9.5890   -2.4950   23.2210 C   0  0  0  0  0  0  0  0  0  0  0  0
    8.2550   -1.0010   24.5520 C   0  0  0  0  0  0  0  0  0  0  0  0
   14.2636   -1.7454   23.4838 C   0  0  0  0  0  0  0  0  0  0  0  0
   12.4750   -0.8115   22.1551 C   0  0  0  0  0  0  0  0  0  0  0  0
   11.9616   -0.1817   23.2889 C   0  0  0  0  0  0  0  0  0  0  0  0
    8.3450   -3.3440   25.0980 C   0  0  0  0  0  0  0  0  0  0  0  0
    9.1280   -1.2090   23.4870 C   0  0  0  0  0  0  0  0  0  0  0  0
   13.6260   -1.5933   22.2526 C   0  0  0  0  0  0  0  0  0  0  0  0
    6.1460    0.6070   19.9750 C   0  0  0  0  0  0  0  0  0  0  0  0
    7.2710   -0.1460   19.8310 C   0  0  0  0  0  0  0  0  0  0  0  0
    5.3890    1.0010   21.0690 C   0  0  0  0  0  0  0  0  0  0  0  0
    4.2460    1.7520   20.8250 C   0  0  0  0  0  0  0  0  0  0  0  0
    3.8860    2.1050   19.5250 C   0  0  0  0  0  0  0  0  0  0  0  0
    4.6610    1.7170   18.4380 C   0  0  0  0  0  0  0  0  0  0  0  0
    7.2757   -5.5631   25.4492 C   0  0  0  0  0  0  0  0  0  0  0  0
    9.0430    0.2380   21.4940 C   0  0  0  0  0  0  0  0  0  0  0  0
    6.9626   -6.6001   26.5133 C   0  0  0  0  0  0  0  0  0  0  0  0
    6.3764   -5.9422   27.7501 C   0  0  0  0  0  0  0  0  0  0  0  0
    7.2660   -4.8258   28.2881 C   0  0  0  0  0  0  0  0  0  0  0  0
    8.4098   -4.4623   27.3426 C   0  0  0  0  0  0  0  0  0  0  0  0
   10.7220    0.6590   23.1850 C   0  0  0  0  0  0  0  0  0  0  0  0
    8.0950   -0.7700   20.8440 C   0  0  0  0  0  0  0  0  0  0  0  0
    7.5840   -0.2700   18.5160 N   0  0  0  0  0  0  0  0  0  0  0  0
    6.7100    0.3850   17.8100 N   0  0  0  0  0  0  0  0  0  0  0  0
    5.7970    0.9500   18.6730 N   0  0  0  0  0  0  0  0  0  0  0  0
    7.9658   -4.4384   25.9449 N   0  0  0  0  0  0  0  0  0  0  0  0
    9.5820   -0.1080   22.7000 N   0  0  0  0  0  0  0  0  0  0  0  0
    6.9858   -5.7908   24.2753 O   0  0  0  0  0  0  0  0  0  0  0  0
    9.2950    1.3000   20.9480 O   0  0  0  0  0  0  0  0  0  0  0  0
   14.2594   -2.3714   20.8543 Cl  0  0  0  0  0  0  0  0  0  0  0  0
   14.2462   -1.2340   25.5766 H   0  0  0  0  0  0  0  0  0  0  0  0
   12.2060    0.1530   25.4088 H   0  0  0  0  0  0  0  0  0  0  0  0
    9.5436   -4.5614   23.7799 H   0  0  0  0  0  0  0  0  0  0  0  0
    7.1918   -1.8823   26.1906 H   0  0  0  0  0  0  0  0  0  0  0  0
   10.2676   -2.6754   22.3861 H   0  0  0  0  0  0  0  0  0  0  0  0
    7.8686   -0.0026   24.7598 H   0  0  0  0  0  0  0  0  0  0  0  0
   15.1613   -2.3520   23.5748 H   0  0  0  0  0  0  0  0  0  0  0  0
   11.9745   -0.6893   21.1973 H   0  0  0  0  0  0  0  0  0  0  0  0
    5.6533    0.7494   22.0767 H   0  0  0  0  0  0  0  0  0  0  0  0
    3.6389    2.0586   21.6677 H   0  0  0  0  0  0  0  0  0  0  0  0
    2.9824    2.6968   19.3331 H   0  0  0  0  0  0  0  0  0  0  0  0
    4.4115    1.9887   17.4356 H   0  0  0  0  0  0  0  0  0  0  0  0
    6.2500   -7.3027   26.1097 H   0  0  0  0  0  0  0  0  0  0  0  0
    7.8838   -7.1078   26.7574 H   0  0  0  0  0  0  0  0  0  0  0  0
    5.3690   -5.5363   27.5214 H   0  0  0  0  0  0  0  0  0  0  0  0
    6.2178   -6.7054   28.5384 H   0  0  0  0  0  0  0  0  0  0  0  0
    6.6498   -3.9225   28.4807 H   0  0  0  0  0  0  0  0  0  0  0  0
    7.6764   -5.1138   29.2803 H   0  0  0  0  0  0  0  0  0  0  0  0
    8.7796   -3.4700   27.5826 H   0  0  0  0  0  0  0  0  0  0  0  0
    9.2112   -5.1853   27.4497 H   0  0  0  0  0  0  0  0  0  0  0  0
   10.4561    1.0772   24.1620 H   0  0  0  0  0  0  0  0  0  0  0  0
   10.8743    1.5008   22.5014 H   0  0  0  0  0  0  0  0  0  0  0  0
    7.4659   -1.2025   21.6292 H   0  0  0  0  0  0  0  0  0  0  0  0
    8.6969   -1.5747   20.4087 H   0  0  0  0  0  0  0  0  0  0  0  0
  1  2  2  0  0  0  0
  1  7  1  0  0  0  0
  2  9  1  0  0  0  0
  3  5  2  0  0  0  0
  3 10  1  0  0  0  0
  4  6  1  0  0  0  0
  4 10  2  0  0  0  0
  5 11  1  0  0  0  0
  6 11  2  0  0  0  0
  7 12  2  0  0  0  0
  8  9  2  0  0  0  0
  8 12  1  0  0  0  0
  9 25  1  0  0  0  0
 10 30  1  0  0  0  0
 11 31  1  0  0  0  0
 12 34  1  0  0  0  0
 13 14  2  0  0  0  0
 13 15  1  0  0  0  0
 13 29  1  0  0  0  0
 14 26  1  0  0  0  0
 14 27  1  0  0  0  0
 15 16  2  0  0  0  0
 16 17  1  0  0  0  0
 17 18  2  0  0  0  0
 18 29  1  0  0  0  0
 19 21  1  0  0  0  0
 19 30  1  0  0  0  0
 19 32  2  0  0  0  0
 20 26  1  0  0  0  0
 20 31  1  0  0  0  0
 20 33  2  0  0  0  0
 21 22  1  0  0  0  0
 22 23  1  0  0  0  0
 23 24  1  0  0  0  0
 24 30  1  0  0  0  0
 25 31  1  0  0  0  0
 27 28  2  0  0  0  0
 28 29  1  0  0  0  0
  1 35  1  0  0  0  0
  2 36  1  0  0  0  0
  3 37  1  0  0  0  0
  4 38  1  0  0  0  0
  5 39  1  0  0  0  0
  6 40  1  0  0  0  0
  7 41  1  0  0  0  0
  8 42  1  0  0  0  0
 15 43  1  0  0  0  0
 16 44  1  0  0  0  0
 17 45  1  0  0  0  0
 18 46  1  0  0  0  0
 21 47  1  0  0  0  0
 21 48  1  0  0  0  0
 22 49  1  0  0  0  0
 22 50  1  0  0  0  0
 23 51  1  0  0  0  0
 23 52  1  0  0  0  0
 24 53  1  0  0  0  0
 24 54  1  0  0  0  0
 25 55  1  0  0  0  0
 25 56  1  0  0  0  0
 26 57  1  0  0  0  0
 26 58  1  0  0  0  0
M  END
> <clash_score>
0

> <docking_score>
-8.760965347290039

> <overlap_score>
0.9984302520751953

$$$$
BENZO_444_1
  -OEChem-08222022473D

 54 58  0     0  0  0  0  0  0999 V2000
    9.1890   -3.5540   24.0140 C   0  0  0  0  0  0  0  0  0  0  0  0
    7.8700   -2.0610   25.3550 C   0  0  0  0  0  0  0  0  0  0  0  0
    9.5890   -2.4950   23.2210 C   0  0  0  0  0  0  0  0  0  0  0  0
    8.2550   -1.0010   24.5520 C   0  0  0  0  0  0  0  0  0  0  0  0
   12.6785   -0.3936   24.5018 C   0  0  0  0  0  0  0  0  0  0  0  0
   13.7775   -1.2037   24.3186 C   0  0  0  0  0  0  0  0  0  0  0  0
   12.5401   -0.8378   22.2246 C   0  0  0  0  0  0  0  0  0  0  0  0
   11.9616   -0.1817   23.2889 C   0  0  0  0  0  0  0  0  0  0  0  0
    8.3450   -3.3440   25.0980 C   0  0  0  0  0  0  0  0  0  0  0  0
    9.1280   -1.2090   23.4870 C   0  0  0  0  0  0  0  0  0  0  0  0
    6.1460    0.6070   19.9750 C   0  0  0  0  0  0  0  0  0  0  0  0
    7.2710   -0.1460   19.8310 C   0  0  0  0  0  0  0  0  0  0  0  0
    5.3890    1.0010   21.0690 C   0  0  0  0  0  0  0  0  0  0  0  0
    4.2460    1.7520   20.8250 C   0  0  0  0  0  0  0  0  0  0  0  0
    3.8860    2.1050   19.5250 C   0  0  0  0  0  0  0  0  0  0  0  0
    4.6610    1.7170   18.4380 C   0  0  0  0  0  0  0  0  0  0  0  0
    9.0430    0.2380   21.4940 C   0  0  0  0  0  0  0  0  0  0  0  0
    8.9524   -5.2012   26.6600 C   0  0  0  0  0  0  0  0  0  0  0  0
    6.6112   -4.5068   26.4379 C   0  0  0  0  0  0  0  0  0  0  0  0
    8.9037   -4.7845   28.1261 C   0  0  0  0  0  0  0  0  0  0  0  0
    6.6374   -4.1243   27.9184 C   0  0  0  0  0  0  0  0  0  0  0  0
   10.7220    0.6590   23.1850 C   0  0  0  0  0  0  0  0  0  0  0  0
    8.0950   -0.7700   20.8440 C   0  0  0  0  0  0  0  0  0  0  0  0
    7.5840   -0.2700   18.5160 N   0  0  0  0  0  0  0  0  0  0  0  0
    6.7100    0.3850   17.8100 N   0  0  0  0  0  0  0  0  0  0  0  0
    5.7970    0.9500   18.6730 N   0  0  0  0  0  0  0  0  0  0  0  0
    7.9775   -4.4014   25.9151 N   0  0  0  0  0  0  0  0  0  0  0  0
    9.5820   -0.1080   22.7000 N   0  0  0  0  0  0  0  0  0  0  0  0
    9.2950    1.3000   20.9480 O   0  0  0  0  0  0  0  0  0  0  0  0
    7.5729   -4.9391   28.6338 O   0  0  0  0  0  0  0  0  0  0  0  0
   13.9416   -1.7051   22.6894 S   0  0  0  0  0  0  0  0  0  0  0  0
    9.5426   -4.5618   23.7797 H   0  0  0  0  0  0  0  0  0  0  0  0
    7.1914   -1.8824   26.1903 H   0  0  0  0  0  0  0  0  0  0  0  0
   10.2669   -2.6745   22.3854 H   0  0  0  0  0  0  0  0  0  0  0  0
    7.8690   -0.0020   24.7587 H   0  0  0  0  0  0  0  0  0  0  0  0
   12.4058    0.0253   25.4623 H   0  0  0  0  0  0  0  0  0  0  0  0
   14.4923   -1.5246   25.0631 H   0  0  0  0  0  0  0  0  0  0  0  0
   12.2108   -0.8511   21.1948 H   0  0  0  0  0  0  0  0  0  0  0  0
    5.6533    0.7494   22.0767 H   0  0  0  0  0  0  0  0  0  0  0  0
    3.6389    2.0586   21.6677 H   0  0  0  0  0  0  0  0  0  0  0  0
    2.9824    2.6968   19.3331 H   0  0  0  0  0  0  0  0  0  0  0  0
    4.4115    1.9887   17.4356 H   0  0  0  0  0  0  0  0  0  0  0  0
    9.9615   -5.0500   26.2711 H   0  0  0  0  0  0  0  0  0  0  0  0
    8.6935   -6.2597   26.5720 H   0  0  0  0  0  0  0  0  0  0  0  0
    6.2628   -5.5350   26.3330 H   0  0  0  0  0  0  0  0  0  0  0  0
    5.9347   -3.8423   25.9023 H   0  0  0  0  0  0  0  0  0  0  0  0
    9.5597   -5.4275   28.7166 H   0  0  0  0  0  0  0  0  0  0  0  0
    9.2344   -3.7511   28.2636 H   0  0  0  0  0  0  0  0  0  0  0  0
    6.8874   -3.0657   28.0553 H   0  0  0  0  0  0  0  0  0  0  0  0
    5.6495   -4.2893   28.3591 H   0  0  0  0  0  0  0  0  0  0  0  0
   10.4561    1.0772   24.1620 H   0  0  0  0  0  0  0  0  0  0  0  0
   10.8743    1.5008   22.5014 H   0  0  0  0  0  0  0  0  0  0  0  0
    7.4659   -1.2025   21.6292 H   0  0  0  0  0  0  0  0  0  0  0  0
    8.6969   -1.5747   20.4087 H   0  0  0  0  0  0  0  0  0  0  0  0
  1  3  2  0  0  0  0
  1  9  1  0  0  0  0
  2  4  1  0  0  0  0
  2  9  2  0  0  0  0
  3 10  1  0  0  0  0
  4 10  2  0  0  0  0
  5  6  2  0  0  0  0
  5  8  1  0  0  0  0
  6 31  1  0  0  0  0
  7  8  2  0  0  0  0
  7 31  1  0  0  0  0
  8 22  1  0  0  0  0
  9 27  1  0  0  0  0
 10 28  1  0  0  0  0
 11 12  2  0  0  0  0
 11 13  1  0  0  0  0
 11 26  1  0  0  0  0
 12 23  1  0  0  0  0
 12 24  1  0  0  0  0
 13 14  2  0  0  0  0
 14 15  1  0  0  0  0
 15 16  2  0  0  0  0
 16 26  1  0  0  0  0
 17 23  1  0  0  0  0
 17 28  1  0  0  0  0
 17 29  2  0  0  0  0
 18 20  1  0  0  0  0
 18 27  1  0  0  0  0
 19 21  1  0  0  0  0
 19 27  1  0  0  0  0
 20 30  1  0  0  0  0
 21 30  1  0  0  0  0
 22 28  1  0  0  0  0
 24 25  2  0  0  0  0
 25 26  1  0  0  0  0
  1 32  1  0  0  0  0
  2 33  1  0  0  0  0
  3 34  1  0  0  0  0
  4 35  1  0  0  0  0
  5 36  1  0  0  0  0
  6 37  1  0  0  0  0
  7 38  1  0  0  0  0
 13 39  1  0  0  0  0
 14 40  1  0  0  0  0
 15 41  1  0  0  0  0
 16 42  1  0  0  0  0
 18 43  1  0  0  0  0
 18 44  1  0  0  0  0
 19 45  1  0  0  0  0
 19 46  1  0  0  0  0
 20 47  1  0  0  0  0
 20 48  1  0  0  0  0
 21 49  1  0  0  0  0
 21 50  1  0  0  0  0
 22 51  1  0  0  0  0
 22 52  1  0  0  0  0
 23 53  1  0  0  0  0
 23 54  1  0  0  0  0
M  END
> <clash_score>
0

> <docking_score>
-10.305931091308594

> <overlap_score>
0.9805793762207031

$$$$
BENZO_446_1
  -OEChem-08222022473D

 57 61  0     0  0  0  0  0  0999 V2000
   13.7501   -1.1157   24.6177 C   0  0  0  0  0  0  0  0  0  0  0  0
   12.5991   -0.3339   24.5202 C   0  0  0  0  0  0  0  0  0  0  0  0
    9.1890   -3.5540   24.0140 C   0  0  0  0  0  0  0  0  0  0  0  0
    7.8700   -2.0610   25.3550 C   0  0  0  0  0  0  0  0  0  0  0  0
    9.5890   -2.4950   23.2210 C   0  0  0  0  0  0  0  0  0  0  0  0
    8.2550   -1.0010   24.5520 C   0  0  0  0  0  0  0  0  0  0  0  0
   14.2636   -1.7454   23.4838 C   0  0  0  0  0  0  0  0  0  0  0  0
   12.4750   -0.8115   22.1551 C   0  0  0  0  0  0  0  0  0  0  0  0
   11.9616   -0.1817   23.2889 C   0  0  0  0  0  0  0  0  0  0  0  0
    8.3450   -3.3440   25.0980 C   0  0  0  0  0  0  0  0  0  0  0  0
    9.1280   -1.2090   23.4870 C   0  0  0  0  0  0  0  0  0  0  0  0
   13.6260   -1.5933   22.2526 C   0  0  0  0  0  0  0  0  0  0  0  0
    6.1460    0.6070   19.9750 C   0  0  0  0  0  0  0  0  0  0  0  0
    7.2710   -0.1460   19.8310 C   0  0  0  0  0  0  0  0  0  0  0  0
    5.3890    1.0010   21.0690 C   0  0  0  0  0  0  0  0  0  0  0  0
    4.2460    1.7520   20.8250 C   0  0  0  0  0  0  0  0  0  0  0  0
    3.8860    2.1050   19.5250 C   0  0  0  0  0  0  0  0  0  0  0  0
    4.6610    1.7170   18.4380 C   0  0  0  0  0  0  0  0  0  0  0  0
    9.0430    0.2380   21.4940 C   0  0  0  0  0  0  0  0  0  0  0  0
    8.9524   -5.2012   26.6600 C   0  0  0  0  0  0  0  0  0  0  0  0
    6.6112   -4.5068   26.4379 C   0  0  0  0  0  0  0  0  0  0  0  0
    8.9037   -4.7845   28.1261 C   0  0  0  0  0  0  0  0  0  0  0  0
    6.6374   -4.1243   27.9184 C   0  0  0  0  0  0  0  0  0  0  0  0
   10.7220    0.6590   23.1850 C   0  0  0  0  0  0  0  0  0  0  0  0
    8.0950   -0.7700   20.8440 C   0  0  0  0  0  0  0  0  0  0  0  0
    7.5840   -0.2700   18.5160 N   0  0  0  0  0  0  0  0  0  0  0  0
    6.7100    0.3850   17.8100 N   0  0  0  0  0  0  0  0  0  0  0  0
    5.7970    0.9500   18.6730 N   0  0  0  0  0  0  0  0  0  0  0  0
    7.9775   -4.4014   25.9151 N   0  0  0  0  0  0  0  0  0  0  0  0
    9.5820   -0.1080   22.7000 N   0  0  0  0  0  0  0  0  0  0  0  0
    9.2950    1.3000   20.9480 O   0  0  0  0  0  0  0  0  0  0  0  0
    7.5729   -4.9391   28.6338 O   0  0  0  0  0  0  0  0  0  0  0  0
   14.2594   -2.3714   20.8543 Cl  0  0  0  0  0  0  0  0  0  0  0  0
   14.2462   -1.2340   25.5767 H   0  0  0  0  0  0  0  0  0  0  0  0
   12.2060    0.1530   25.4088 H   0  0  0  0  0  0  0  0  0  0  0  0
    9.5426   -4.5618   23.7797 H   0  0  0  0  0  0  0  0  0  0  0  0
    7.1914   -1.8824   26.1903 H   0  0  0  0  0  0  0  0  0  0  0  0
   10.2669   -2.6745   22.3854 H   0  0  0  0  0  0  0  0  0  0  0  0
    7.8690   -0.0020   24.7587 H   0  0  0  0  0  0  0  0  0  0  0  0
   15.1613   -2.3520   23.5748 H   0  0  0  0  0  0  0  0  0  0  0  0
   11.9745   -0.6893   21.1973 H   0  0  0  0  0  0  0  0  0  0  0  0
    5.6533    0.7494   22.0767 H   0  0  0  0  0  0  0  0  0  0  0  0
    3.6389    2.0586   21.6677 H   0  0  0  0  0  0  0  0  0  0  0  0
    2.9824    2.6968   19.3331 H   0  0  0  0  0  0  0  0  0  0  0  0
    4.4115    1.9887   17.4356 H   0  0  0  0  0  0  0  0  0  0  0  0
    9.9615   -5.0500   26.2711 H   0  0  0  0  0  0  0  0  0  0  0  0
    8.6935   -6.2597   26.5720 H   0  0  0  0  0  0  0  0  0  0  0  0
    6.2628   -5.5350   26.3330 H   0  0  0  0  0  0  0  0  0  0  0  0
    5.9347   -3.8423   25.9023 H   0  0  0  0  0  0  0  0  0  0  0  0
    9.5597   -5.4275   28.7166 H   0  0  0  0  0  0  0  0  0  0  0  0
    9.2344   -3.7511   28.2636 H   0  0  0  0  0  0  0  0  0  0  0  0
    6.8874   -3.0657   28.0553 H   0  0  0  0  0  0  0  0  0  0  0  0
    5.6495   -4.2893   28.3591 H   0  0  0  0  0  0  0  0  0  0  0  0
   10.4561    1.0772   24.1620 H   0  0  0  0  0  0  0  0  0  0  0  0
   10.8743    1.5008   22.5014 H   0  0  0  0  0  0  0  0  0  0  0  0
    7.4659   -1.2025   21.6292 H   0  0  0  0  0  0  0  0  0  0  0  0
    8.6969   -1.5747   20.4087 H   0  0  0  0  0  0  0  0  0  0  0  0
  1  2  2  0  0  0  0
  1  7  1  0  0  0  0
  2  9  1  0  0  0  0
  3  5  2  0  0  0  0
  3 10  1  0  0  0  0
  4  6  1  0  0  0  0
  4 10  2  0  0  0  0
  5 11  1  0  0  0  0
  6 11  2  0  0  0  0
  7 12  2  0  0  0  0
  8  9  2  0  0  0  0
  8 12  1  0  0  0  0
  9 24  1  0  0  0  0
 10 29  1  0  0  0  0
 11 30  1  0  0  0  0
 12 33  1  0  0  0  0
 13 14  2  0  0  0  0
 13 15  1  0  0  0  0
 13 28  1  0  0  0  0
 14 25  1  0  0  0  0
 14 26  1  0  0  0  0
 15 16  2  0  0  0  0
 16 17  1  0  0  0  0
 17 18  2  0  0  0  0
 18 28  1  0  0  0  0
 19 25  1  0  0  0  0
 19 30  1  0  0  0  0
 19 31  2  0  0  0  0
 20 22  1  0  0  0  0
 20 29  1  0  0  0  0
 21 23  1  0  0  0  0
 21 29  1  0  0  0  0
 22 32  1  0  0  0  0
 23 32  1  0  0  0  0
 24 30  1  0  0  0  0
 26 27  2  0  0  0  0
 27 28  1  0  0  0  0
  1 34  1  0  0  0  0
  2 35  1  0  0  0  0
  3 36  1  0  0  0  0
  4 37  1  0  0  0  0
  5 38  1  0  0  0  0
  6 39  1  0  0  0  0
  7 40  1  0  0  0  0
  8 41  1  0  0  0  0
 15 42  1  0  0  0  0
 16 43  1  0  0  0  0
 17 44  1  0  0  0  0
 18 45  1  0  0  0  0
 20 46  1  0  0  0  0
 20 47  1  0  0  0  0
 21 48  1  0  0  0  0
 21 49  1  0  0  0  0
 22 50  1  0  0  0  0
 22 51  1  0  0  0  0
 23 52  1  0  0  0  0
 23 53  1  0  0  0  0
 24 54  1  0  0  0  0
 24 55  1  0  0  0  0
 25 56  1  0  0  0  0
 25 57  1  0  0  0  0
M  END
> <clash_score>
0

> <docking_score>
-9.81912899017334

> <overlap_score>
1.001713752746582

$$$$
BENZO_447_1
  -OEChem-08222022473D

 57 61  0     0  0  0  0  0  0999 V2000
    9.1890   -3.5540   24.0140 C   0  0  0  0  0  0  0  0  0  0  0  0
    7.8700   -2.0610   25.3550 C   0  0  0  0  0  0  0  0  0  0  0  0
    9.5890   -2.4950   23.2210 C   0  0  0  0  0  0  0  0  0  0  0  0
    8.2550   -1.0010   24.5520 C   0  0  0  0  0  0  0  0  0  0  0  0
   12.7320   -0.4464   24.4370 C   0  0  0  0  0  0  0  0  0  0  0  0
   12.5970   -0.8682   22.2832 C   0  0  0  0  0  0  0  0  0  0  0  0
   11.9616   -0.1817   23.2889 C   0  0  0  0  0  0  0  0  0  0  0  0
    8.3450   -3.3440   25.0980 C   0  0  0  0  0  0  0  0  0  0  0  0
    9.1280   -1.2090   23.4870 C   0  0  0  0  0  0  0  0  0  0  0  0
    6.1460    0.6070   19.9750 C   0  0  0  0  0  0  0  0  0  0  0  0
    7.2710   -0.1460   19.8310 C   0  0  0  0  0  0  0  0  0  0  0  0
    5.3890    1.0010   21.0690 C   0  0  0  0  0  0  0  0  0  0  0  0
    4.2460    1.7520   20.8250 C   0  0  0  0  0  0  0  0  0  0  0  0
    3.8860    2.1050   19.5250 C   0  0  0  0  0  0  0  0  0  0  0  0
    4.6610    1.7170   18.4380 C   0  0  0  0  0  0  0  0  0  0  0  0
    9.0430    0.2380   21.4940 C   0  0  0  0  0  0  0  0  0  0  0  0
    8.9524   -5.2012   26.6600 C   0  0  0  0  0  0  0  0  0  0  0  0
    6.6112   -4.5068   26.4379 C   0  0  0  0  0  0  0  0  0  0  0  0
    8.9037   -4.7845   28.1261 C   0  0  0  0  0  0  0  0  0  0  0  0
    6.6374   -4.1243   27.9184 C   0  0  0  0  0  0  0  0  0  0  0  0
   14.6393   -2.3180   22.2082 C   0  0  0  0  0  0  0  0  0  0  0  0
   10.7220    0.6590   23.1850 C   0  0  0  0  0  0  0  0  0  0  0  0
    8.0950   -0.7700   20.8440 C   0  0  0  0  0  0  0  0  0  0  0  0
   13.7770   -1.2393   24.1852 N   0  0  0  0  0  0  0  0  0  0  0  0
    7.5840   -0.2700   18.5160 N   0  0  0  0  0  0  0  0  0  0  0  0
    6.7100    0.3850   17.8100 N   0  0  0  0  0  0  0  0  0  0  0  0
   13.6676   -1.4788   22.8673 N   0  0  0  0  0  0  0  0  0  0  0  0
    5.7970    0.9500   18.6730 N   0  0  0  0  0  0  0  0  0  0  0  0
    7.9775   -4.4014   25.9151 N   0  0  0  0  0  0  0  0  0  0  0  0
    9.5820   -0.1080   22.7000 N   0  0  0  0  0  0  0  0  0  0  0  0
    9.2950    1.3000   20.9480 O   0  0  0  0  0  0  0  0  0  0  0  0
    7.5729   -4.9391   28.6338 O   0  0  0  0  0  0  0  0  0  0  0  0
    9.5426   -4.5618   23.7797 H   0  0  0  0  0  0  0  0  0  0  0  0
    7.1914   -1.8824   26.1903 H   0  0  0  0  0  0  0  0  0  0  0  0
   10.2669   -2.6745   22.3854 H   0  0  0  0  0  0  0  0  0  0  0  0
    7.8690   -0.0020   24.7587 H   0  0  0  0  0  0  0  0  0  0  0  0
   12.5771   -0.0965   25.4478 H   0  0  0  0  0  0  0  0  0  0  0  0
   12.3832   -0.9726   21.2281 H   0  0  0  0  0  0  0  0  0  0  0  0
    5.6533    0.7494   22.0767 H   0  0  0  0  0  0  0  0  0  0  0  0
    3.6389    2.0586   21.6677 H   0  0  0  0  0  0  0  0  0  0  0  0
    2.9824    2.6968   19.3331 H   0  0  0  0  0  0  0  0  0  0  0  0
    4.4115    1.9887   17.4356 H   0  0  0  0  0  0  0  0  0  0  0  0
    9.9615   -5.0500   26.2711 H   0  0  0  0  0  0  0  0  0  0  0  0
    8.6935   -6.2597   26.5720 H   0  0  0  0  0  0  0  0  0  0  0  0
    6.2628   -5.5350   26.3330 H   0  0  0  0  0  0  0  0  0  0  0  0
    5.9347   -3.8423   25.9023 H   0  0  0  0  0  0  0  0  0  0  0  0
    9.5597   -5.4275   28.7166 H   0  0  0  0  0  0  0  0  0  0  0  0
    9.2344   -3.7511   28.2636 H   0  0  0  0  0  0  0  0  0  0  0  0
    6.8874   -3.0657   28.0553 H   0  0  0  0  0  0  0  0  0  0  0  0
    5.6495   -4.2893   28.3591 H   0  0  0  0  0  0  0  0  0  0  0  0
   15.4522   -1.6787   21.8540 H   0  0  0  0  0  0  0  0  0  0  0  0
   15.0179   -3.0613   22.9154 H   0  0  0  0  0  0  0  0  0  0  0  0
   14.1626   -2.8325   21.3691 H   0  0  0  0  0  0  0  0  0  0  0  0
   10.4561    1.0772   24.1620 H   0  0  0  0  0  0  0  0  0  0  0  0
   10.8743    1.5008   22.5014 H   0  0  0  0  0  0  0  0  0  0  0  0
    7.4659   -1.2025   21.6292 H   0  0  0  0  0  0  0  0  0  0  0  0
    8.6969   -1.5747   20.4087 H   0  0  0  0  0  0  0  0  0  0  0  0
  1  3  2  0  0  0  0
  1  8  1  0  0  0  0
  2  4  1  0  0  0  0
  2  8  2  0  0  0  0
  3  9  1  0  0  0  0
  4  9  2  0  0  0  0
  5  7  1  0  0  0  0
  5 24  2  0  0  0  0
  6  7  2  0  0  0  0
  6 27  1  0  0  0  0
  7 22  1  0  0  0  0
  8 29  1  0  0  0  0
  9 30  1  0  0  0  0
 10 11  2  0  0  0  0
 10 12  1  0  0  0  0
 10 28  1  0  0  0  0
 11 23  1  0  0  0  0
 11 25  1  0  0  0  0
 12 13  2  0  0  0  0
 13 14  1  0  0  0  0
 14 15  2  0  0  0  0
 15 28  1  0  0  0  0
 16 23  1  0  0  0  0
 16 30  1  0  0  0  0
 16 31  2  0  0  0  0
 17 19  1  0  0  0  0
 17 29  1  0  0  0  0
 18 20  1  0  0  0  0
 18 29  1  0  0  0  0
 19 32  1  0  0  0  0
 20 32  1  0  0  0  0
 21 27  1  0  0  0  0
 22 30  1  0  0  0  0
 24 27  1  0  0  0  0
 25 26  2  0  0  0  0
 26 28  1  0  0  0  0
  1 33  1  0  0  0  0
  2 34  1  0  0  0  0
  3 35  1  0  0  0  0
  4 36  1  0  0  0  0
  5 37  1  0  0  0  0
  6 38  1  0  0  0  0
 12 39  1  0  0  0  0
 13 40  1  0  0  0  0
 14 41  1  0  0  0  0
 15 42  1  0  0  0  0
 17 43  1  0  0  0  0
 17 44  1  0  0  0  0
 18 45  1  0  0  0  0
 18 46  1  0  0  0  0
 19 47  1  0  0  0  0
 19 48  1  0  0  0  0
 20 49  1  0  0  0  0
 20 50  1  0  0  0  0
 21 51  1  0  0  0  0
 21 52  1  0  0  0  0
 21 53  1  0  0  0  0
 22 54  1  0  0  0  0
 22 55  1  0  0  0  0
 23 56  1  0  0  0  0
 23 57  1  0  0  0  0
M  END
> <clash_score>
0

> <docking_score>
-9.05516242980957

> <overlap_score>
0.9972014427185059

$$$$
BENZO_449_1
  -OEChem-08222022473D

 54 57  0     0  0  0  0  0  0999 V2000
   14.2641   -1.7450   23.4813 C   0  0  0  0  0  0  0  0  0  0  0  0
    4.2460    1.7520   20.8250 C   0  0  0  0  0  0  0  0  0  0  0  0
   14.0779   -0.6681   24.3480 C   0  0  0  0  0  0  0  0  0  0  0  0
   13.2991   -2.0403   22.5184 C   0  0  0  0  0  0  0  0  0  0  0  0
    3.8860    2.1050   19.5250 C   0  0  0  0  0  0  0  0  0  0  0  0
    5.3890    1.0010   21.0690 C   0  0  0  0  0  0  0  0  0  0  0  0
   12.9266    0.1135   24.2518 C   0  0  0  0  0  0  0  0  0  0  0  0
   12.1478   -1.2587   22.4222 C   0  0  0  0  0  0  0  0  0  0  0  0
    4.6610    1.7170   18.4380 C   0  0  0  0  0  0  0  0  0  0  0  0
    9.5890   -2.4950   23.2210 C   0  0  0  0  0  0  0  0  0  0  0  0
    8.2550   -1.0010   24.5520 C   0  0  0  0  0  0  0  0  0  0  0  0
    9.1890   -3.5540   24.0140 C   0  0  0  0  0  0  0  0  0  0  0  0
    7.8700   -2.0610   25.3550 C   0  0  0  0  0  0  0  0  0  0  0  0
    7.5840   -0.2700   18.5160 C   0  0  0  0  0  0  0  0  0  0  0  0
    6.1460    0.6070   19.9750 C   0  0  0  0  0  0  0  0  0  0  0  0
   11.9616   -0.1817   23.2889 C   0  0  0  0  0  0  0  0  0  0  0  0
    7.2710   -0.1460   19.8310 C   0  0  0  0  0  0  0  0  0  0  0  0
    5.7970    0.9500   18.6730 C   0  0  0  0  0  0  0  0  0  0  0  0
    9.1280   -1.2090   23.4870 C   0  0  0  0  0  0  0  0  0  0  0  0
    8.3450   -3.3440   25.0980 C   0  0  0  0  0  0  0  0  0  0  0  0
    9.0430    0.2380   21.4940 C   0  0  0  0  0  0  0  0  0  0  0  0
    8.4651   -5.7553   25.6627 C   0  0  0  0  0  0  0  0  0  0  0  0
    7.1035   -4.1984   27.0666 C   0  0  0  0  0  0  0  0  0  0  0  0
    8.0950   -0.7700   20.8440 C   0  0  0  0  0  0  0  0  0  0  0  0
   10.7220    0.6590   23.1850 C   0  0  0  0  0  0  0  0  0  0  0  0
    6.7100    0.3850   17.8100 N   0  0  0  0  0  0  0  0  0  0  0  0
    9.5820   -0.1080   22.7000 N   0  0  0  0  0  0  0  0  0  0  0  0
    7.9731   -4.4180   25.9279 N   0  0  0  0  0  0  0  0  0  0  0  0
    9.2950    1.3000   20.9480 O   0  0  0  0  0  0  0  0  0  0  0  0
   15.1613   -2.3527   23.5555 H   0  0  0  0  0  0  0  0  0  0  0  0
    3.6210    2.0713   21.6574 H   0  0  0  0  0  0  0  0  0  0  0  0
   14.8297   -0.4373   25.0971 H   0  0  0  0  0  0  0  0  0  0  0  0
   13.4443   -2.8780   21.8427 H   0  0  0  0  0  0  0  0  0  0  0  0
    2.9855    2.6924   19.3616 H   0  0  0  0  0  0  0  0  0  0  0  0
    5.6668    0.7411   22.0808 H   0  0  0  0  0  0  0  0  0  0  0  0
   12.7899    0.9506   24.9315 H   0  0  0  0  0  0  0  0  0  0  0  0
   11.4013   -1.4963   21.6690 H   0  0  0  0  0  0  0  0  0  0  0  0
    4.3788    2.0100   17.4223 H   0  0  0  0  0  0  0  0  0  0  0  0
   10.2682   -2.6746   22.3864 H   0  0  0  0  0  0  0  0  0  0  0  0
    7.8692   -0.0022   24.7600 H   0  0  0  0  0  0  0  0  0  0  0  0
    9.5433   -4.5619   23.7809 H   0  0  0  0  0  0  0  0  0  0  0  0
    7.1923   -1.8829   26.1908 H   0  0  0  0  0  0  0  0  0  0  0  0
    8.4186   -0.8125   18.0399 H   0  0  0  0  0  0  0  0  0  0  0  0
    8.0646   -6.4499   26.4158 H   0  0  0  0  0  0  0  0  0  0  0  0
    8.1402   -6.0734   24.6611 H   0  0  0  0  0  0  0  0  0  0  0  0
    9.5641   -5.7575   25.7097 H   0  0  0  0  0  0  0  0  0  0  0  0
    6.9300   -5.1526   27.5856 H   0  0  0  0  0  0  0  0  0  0  0  0
    7.5776   -3.4861   27.7578 H   0  0  0  0  0  0  0  0  0  0  0  0
    6.1428   -3.7894   26.7206 H   0  0  0  0  0  0  0  0  0  0  0  0
    7.4761   -1.2062   21.6405 H   0  0  0  0  0  0  0  0  0  0  0  0
    8.7071   -1.5784   20.4200 H   0  0  0  0  0  0  0  0  0  0  0  0
   10.4561    1.0772   24.1620 H   0  0  0  0  0  0  0  0  0  0  0  0
   10.8743    1.5008   22.5014 H   0  0  0  0  0  0  0  0  0  0  0  0
    6.6719    0.4860   16.8043 H   0  0  0  0  0  0  0  0  0  0  0  0
  1  3  1  0  0  0  0
  1  4  2  0  0  0  0
  2  5  1  0  0  0  0
  2  6  2  0  0  0  0
  3  7  2  0  0  0  0
  4  8  1  0  0  0  0
  5  9  2  0  0  0  0
  6 15  1  0  0  0  0
  7 16  1  0  0  0  0
  8 16  2  0  0  0  0
  9 18  1  0  0  0  0
 10 12  2  0  0  0  0
 10 19  1  0  0  0  0
 11 13  1  0  0  0  0
 11 19  2  0  0  0  0
 12 20  1  0  0  0  0
 13 20  2  0  0  0  0
 14 17  2  0  0  0  0
 14 26  1  0  0  0  0
 15 17  1  0  0  0  0
 15 18  2  0  0  0  0
 16 25  1  0  0  0  0
 17 24  1  0  0  0  0
 18 26  1  0  0  0  0
 19 27  1  0  0  0  0
 20 28  1  0  0  0  0
 21 24  1  0  0  0  0
 21 27  1  0  0  0  0
 21 29  2  0  0  0  0
 22 28  1  0  0  0  0
 23 28  1  0  0  0  0
 25 27  1  0  0  0  0
  1 30  1  0  0  0  0
  2 31  1  0  0  0  0
  3 32  1  0  0  0  0
  4 33  1  0  0  0  0
  5 34  1  0  0  0  0
  6 35  1  0  0  0  0
  7 36  1  0  0  0  0
  8 37  1  0  0  0  0
  9 38  1  0  0  0  0
 10 39  1  0  0  0  0
 11 40  1  0  0  0  0
 12 41  1  0  0  0  0
 13 42  1  0  0  0  0
 14 43  1  0  0  0  0
 22 44  1  0  0  0  0
 22 45  1  0  0  0  0
 22 46  1  0  0  0  0
 23 47  1  0  0  0  0
 23 48  1  0  0  0  0
 23 49  1  0  0  0  0
 24 50  1  0  0  0  0
 24 51  1  0  0  0  0
 25 52  1  0  0  0  0
 25 53  1  0  0  0  0
 26 54  1  0  0  0  0
M  END
> <clash_score>
0

> <docking_score>
-9.619654655456543

> <overlap_score>
0.9344866871833801

$$$$
BENZO_448_1
  -OEChem-08222022473D

 51 54  0     0  0  0  0  0  0999 V2000
    4.2460    1.7520   20.8250 C   0  0  0  0  0  0  0  0  0  0  0  0
    3.8860    2.1050   19.5250 C   0  0  0  0  0  0  0  0  0  0  0  0
    5.3890    1.0010   21.0690 C   0  0  0  0  0  0  0  0  0  0  0  0
    4.6610    1.7170   18.4380 C   0  0  0  0  0  0  0  0  0  0  0  0
    9.5890   -2.4950   23.2210 C   0  0  0  0  0  0  0  0  0  0  0  0
    8.2550   -1.0010   24.5520 C   0  0  0  0  0  0  0  0  0  0  0  0
    9.1890   -3.5540   24.0140 C   0  0  0  0  0  0  0  0  0  0  0  0
    7.8700   -2.0610   25.3550 C   0  0  0  0  0  0  0  0  0  0  0  0
   12.6785   -0.3936   24.5018 C   0  0  0  0  0  0  0  0  0  0  0  0
    7.5840   -0.2700   18.5160 C   0  0  0  0  0  0  0  0  0  0  0  0
   13.7775   -1.2037   24.3186 C   0  0  0  0  0  0  0  0  0  0  0  0
   12.5401   -0.8378   22.2246 C   0  0  0  0  0  0  0  0  0  0  0  0
    6.1460    0.6070   19.9750 C   0  0  0  0  0  0  0  0  0  0  0  0
   11.9616   -0.1817   23.2889 C   0  0  0  0  0  0  0  0  0  0  0  0
    7.2710   -0.1460   19.8310 C   0  0  0  0  0  0  0  0  0  0  0  0
    5.7970    0.9500   18.6730 C   0  0  0  0  0  0  0  0  0  0  0  0
    9.1280   -1.2090   23.4870 C   0  0  0  0  0  0  0  0  0  0  0  0
    8.3450   -3.3440   25.0980 C   0  0  0  0  0  0  0  0  0  0  0  0
    9.0430    0.2380   21.4940 C   0  0  0  0  0  0  0  0  0  0  0  0
    7.2639   -5.5574   25.3805 C   0  0  0  0  0  0  0  0  0  0  0  0
    8.3060   -4.4047   27.3385 C   0  0  0  0  0  0  0  0  0  0  0  0
    8.0950   -0.7700   20.8440 C   0  0  0  0  0  0  0  0  0  0  0  0
   10.7220    0.6590   23.1850 C   0  0  0  0  0  0  0  0  0  0  0  0
    6.7100    0.3850   17.8100 N   0  0  0  0  0  0  0  0  0  0  0  0
    9.5820   -0.1080   22.7000 N   0  0  0  0  0  0  0  0  0  0  0  0
    7.9731   -4.4180   25.9279 N   0  0  0  0  0  0  0  0  0  0  0  0
    9.2950    1.3000   20.9480 O   0  0  0  0  0  0  0  0  0  0  0  0
   13.9416   -1.7050   22.6894 S   0  0  0  0  0  0  0  0  0  0  0  0
    3.6210    2.0713   21.6574 H   0  0  0  0  0  0  0  0  0  0  0  0
    2.9855    2.6924   19.3616 H   0  0  0  0  0  0  0  0  0  0  0  0
    5.6668    0.7411   22.0808 H   0  0  0  0  0  0  0  0  0  0  0  0
    4.3788    2.0100   17.4223 H   0  0  0  0  0  0  0  0  0  0  0  0
   10.2682   -2.6746   22.3864 H   0  0  0  0  0  0  0  0  0  0  0  0
    7.8692   -0.0022   24.7600 H   0  0  0  0  0  0  0  0  0  0  0  0
    9.5433   -4.5619   23.7809 H   0  0  0  0  0  0  0  0  0  0  0  0
    7.1923   -1.8829   26.1908 H   0  0  0  0  0  0  0  0  0  0  0  0
   12.4058    0.0253   25.4623 H   0  0  0  0  0  0  0  0  0  0  0  0
    8.4186   -0.8125   18.0399 H   0  0  0  0  0  0  0  0  0  0  0  0
   14.4923   -1.5246   25.0631 H   0  0  0  0  0  0  0  0  0  0  0  0
   12.2108   -0.8511   21.1948 H   0  0  0  0  0  0  0  0  0  0  0  0
    7.0639   -6.2847   26.1812 H   0  0  0  0  0  0  0  0  0  0  0  0
    6.3116   -5.2213   24.9443 H   0  0  0  0  0  0  0  0  0  0  0  0
    7.8778   -6.0308   24.6002 H   0  0  0  0  0  0  0  0  0  0  0  0
    7.9323   -5.3242   27.8127 H   0  0  0  0  0  0  0  0  0  0  0  0
    9.3983   -4.3492   27.4568 H   0  0  0  0  0  0  0  0  0  0  0  0
    7.8405   -3.5303   27.8168 H   0  0  0  0  0  0  0  0  0  0  0  0
    7.4761   -1.2062   21.6405 H   0  0  0  0  0  0  0  0  0  0  0  0
    8.7071   -1.5784   20.4200 H   0  0  0  0  0  0  0  0  0  0  0  0
   10.4561    1.0772   24.1620 H   0  0  0  0  0  0  0  0  0  0  0  0
   10.8743    1.5008   22.5014 H   0  0  0  0  0  0  0  0  0  0  0  0
    6.6719    0.4860   16.8043 H   0  0  0  0  0  0  0  0  0  0  0  0
  1  2  1  0  0  0  0
  1  3  2  0  0  0  0
  2  4  2  0  0  0  0
  3 13  1  0  0  0  0
  4 16  1  0  0  0  0
  5  7  2  0  0  0  0
  5 17  1  0  0  0  0
  6  8  1  0  0  0  0
  6 17  2  0  0  0  0
  7 18  1  0  0  0  0
  8 18  2  0  0  0  0
  9 11  2  0  0  0  0
  9 14  1  0  0  0  0
 10 15  2  0  0  0  0
 10 24  1  0  0  0  0
 11 28  1  0  0  0  0
 12 14  2  0  0  0  0
 12 28  1  0  0  0  0
 13 15  1  0  0  0  0
 13 16  2  0  0  0  0
 14 23  1  0  0  0  0
 15 22  1  0  0  0  0
 16 24  1  0  0  0  0
 17 25  1  0  0  0  0
 18 26  1  0  0  0  0
 19 22  1  0  0  0  0
 19 25  1  0  0  0  0
 19 27  2  0  0  0  0
 20 26  1  0  0  0  0
 21 26  1  0  0  0  0
 23 25  1  0  0  0  0
  1 29  1  0  0  0  0
  2 30  1  0  0  0  0
  3 31  1  0  0  0  0
  4 32  1  0  0  0  0
  5 33  1  0  0  0  0
  6 34  1  0  0  0  0
  7 35  1  0  0  0  0
  8 36  1  0  0  0  0
  9 37  1  0  0  0  0
 10 38  1  0  0  0  0
 11 39  1  0  0  0  0
 12 40  1  0  0  0  0
 20 41  1  0  0  0  0
 20 42  1  0  0  0  0
 20 43  1  0  0  0  0
 21 44  1  0  0  0  0
 21 45  1  0  0  0  0
 21 46  1  0  0  0  0
 22 47  1  0  0  0  0
 22 48  1  0  0  0  0
 23 49  1  0  0  0  0
 23 50  1  0  0  0  0
 24 51  1  0  0  0  0
M  END
> <clash_score>
0

> <docking_score>
-9.192481994628906

> <overlap_score>
0.933151364326477

$$$$
BENZO_451_1
  -OEChem-08222022473D

 54 57  0     0  0  0  0  0  0999 V2000
    4.2460    1.7520   20.8250 C   0  0  0  0  0  0  0  0  0  0  0  0
    3.8860    2.1050   19.5250 C   0  0  0  0  0  0  0  0  0  0  0  0
    5.3890    1.0010   21.0690 C   0  0  0  0  0  0  0  0  0  0  0  0
    4.6610    1.7170   18.4380 C   0  0  0  0  0  0  0  0  0  0  0  0
    9.5890   -2.4950   23.2210 C   0  0  0  0  0  0  0  0  0  0  0  0
    8.2550   -1.0010   24.5520 C   0  0  0  0  0  0  0  0  0  0  0  0
    9.1890   -3.5540   24.0140 C   0  0  0  0  0  0  0  0  0  0  0  0
    7.8700   -2.0610   25.3550 C   0  0  0  0  0  0  0  0  0  0  0  0
   12.7320   -0.4464   24.4370 C   0  0  0  0  0  0  0  0  0  0  0  0
    7.5840   -0.2700   18.5160 C   0  0  0  0  0  0  0  0  0  0  0  0
   12.5970   -0.8682   22.2832 C   0  0  0  0  0  0  0  0  0  0  0  0
    6.1460    0.6070   19.9750 C   0  0  0  0  0  0  0  0  0  0  0  0
   11.9616   -0.1817   23.2889 C   0  0  0  0  0  0  0  0  0  0  0  0
    7.2710   -0.1460   19.8310 C   0  0  0  0  0  0  0  0  0  0  0  0
    5.7970    0.9500   18.6730 C   0  0  0  0  0  0  0  0  0  0  0  0
    9.1280   -1.2090   23.4870 C   0  0  0  0  0  0  0  0  0  0  0  0
    8.3450   -3.3440   25.0980 C   0  0  0  0  0  0  0  0  0  0  0  0
    9.0430    0.2380   21.4940 C   0  0  0  0  0  0  0  0  0  0  0  0
   14.6393   -2.3180   22.2082 C   0  0  0  0  0  0  0  0  0  0  0  0
    7.2639   -5.5574   25.3805 C   0  0  0  0  0  0  0  0  0  0  0  0
    8.3060   -4.4047   27.3385 C   0  0  0  0  0  0  0  0  0  0  0  0
    8.0950   -0.7700   20.8440 C   0  0  0  0  0  0  0  0  0  0  0  0
   10.7220    0.6590   23.1850 C   0  0  0  0  0  0  0  0  0  0  0  0
   13.7770   -1.2393   24.1852 N   0  0  0  0  0  0  0  0  0  0  0  0
    6.7100    0.3850   17.8100 N   0  0  0  0  0  0  0  0  0  0  0  0
   13.6676   -1.4788   22.8673 N   0  0  0  0  0  0  0  0  0  0  0  0
    9.5820   -0.1080   22.7000 N   0  0  0  0  0  0  0  0  0  0  0  0
    7.9731   -4.4180   25.9279 N   0  0  0  0  0  0  0  0  0  0  0  0
    9.2950    1.3000   20.9480 O   0  0  0  0  0  0  0  0  0  0  0  0
    3.6210    2.0713   21.6574 H   0  0  0  0  0  0  0  0  0  0  0  0
    2.9855    2.6924   19.3616 H   0  0  0  0  0  0  0  0  0  0  0  0
    5.6668    0.7411   22.0808 H   0  0  0  0  0  0  0  0  0  0  0  0
    4.3788    2.0100   17.4223 H   0  0  0  0  0  0  0  0  0  0  0  0
   10.2682   -2.6746   22.3864 H   0  0  0  0  0  0  0  0  0  0  0  0
    7.8692   -0.0022   24.7600 H   0  0  0  0  0  0  0  0  0  0  0  0
    9.5433   -4.5619   23.7809 H   0  0  0  0  0  0  0  0  0  0  0  0
    7.1923   -1.8829   26.1908 H   0  0  0  0  0  0  0  0  0  0  0  0
   12.5771   -0.0965   25.4478 H   0  0  0  0  0  0  0  0  0  0  0  0
    8.4186   -0.8125   18.0399 H   0  0  0  0  0  0  0  0  0  0  0  0
   12.3832   -0.9726   21.2281 H   0  0  0  0  0  0  0  0  0  0  0  0
   15.4522   -1.6787   21.8540 H   0  0  0  0  0  0  0  0  0  0  0  0
   15.0179   -3.0612   22.9154 H   0  0  0  0  0  0  0  0  0  0  0  0
   14.1626   -2.8324   21.3691 H   0  0  0  0  0  0  0  0  0  0  0  0
    7.0639   -6.2847   26.1812 H   0  0  0  0  0  0  0  0  0  0  0  0
    6.3116   -5.2213   24.9443 H   0  0  0  0  0  0  0  0  0  0  0  0
    7.8778   -6.0308   24.6002 H   0  0  0  0  0  0  0  0  0  0  0  0
    7.9323   -5.3242   27.8127 H   0  0  0  0  0  0  0  0  0  0  0  0
    9.3983   -4.3492   27.4568 H   0  0  0  0  0  0  0  0  0  0  0  0
    7.8405   -3.5303   27.8168 H   0  0  0  0  0  0  0  0  0  0  0  0
    7.4761   -1.2062   21.6405 H   0  0  0  0  0  0  0  0  0  0  0  0
    8.7071   -1.5784   20.4200 H   0  0  0  0  0  0  0  0  0  0  0  0
   10.4561    1.0772   24.1620 H   0  0  0  0  0  0  0  0  0  0  0  0
   10.8743    1.5008   22.5014 H   0  0  0  0  0  0  0  0  0  0  0  0
    6.6719    0.4860   16.8043 H   0  0  0  0  0  0  0  0  0  0  0  0
  1  2  1  0  0  0  0
  1  3  2  0  0  0  0
  2  4  2  0  0  0  0
  3 12  1  0  0  0  0
  4 15  1  0  0  0  0
  5  7  2  0  0  0  0
  5 16  1  0  0  0  0
  6  8  1  0  0  0  0
  6 16  2  0  0  0  0
  7 17  1  0  0  0  0
  8 17  2  0  0  0  0
  9 13  1  0  0  0  0
  9 24  2  0  0  0  0
 10 14  2  0  0  0  0
 10 25  1  0  0  0  0
 11 13  2  0  0  0  0
 11 26  1  0  0  0  0
 12 14  1  0  0  0  0
 12 15  2  0  0  0  0
 13 23  1  0  0  0  0
 14 22  1  0  0  0  0
 15 25  1  0  0  0  0
 16 27  1  0  0  0  0
 17 28  1  0  0  0  0
 18 22  1  0  0  0  0
 18 27  1  0  0  0  0
 18 29  2  0  0  0  0
 19 26  1  0  0  0  0
 20 28  1  0  0  0  0
 21 28  1  0  0  0  0
 23 27  1  0  0  0  0
 24 26  1  0  0  0  0
  1 30  1  0  0  0  0
  2 31  1  0  0  0  0
  3 32  1  0  0  0  0
  4 33  1  0  0  0  0
  5 34  1  0  0  0  0
  6 35  1  0  0  0  0
  7 36  1  0  0  0  0
  8 37  1  0  0  0  0
  9 38  1  0  0  0  0
 10 39  1  0  0  0  0
 11 40  1  0  0  0  0
 19 41  1  0  0  0  0
 19 42  1  0  0  0  0
 19 43  1  0  0  0  0
 20 44  1  0  0  0  0
 20 45  1  0  0  0  0
 20 46  1  0  0  0  0
 21 47  1  0  0  0  0
 21 48  1  0  0  0  0
 21 49  1  0  0  0  0
 22 50  1  0  0  0  0
 22 51  1  0  0  0  0
 23 52  1  0  0  0  0
 23 53  1  0  0  0  0
 25 54  1  0  0  0  0
M  END
> <clash_score>
0

> <docking_score>
-7.941694259643555

> <overlap_score>
0.9499810934066772

$$$$
BENZO_450_1
  -OEChem-08222022473D

 54 57  0     0  0  0  0  0  0999 V2000
    4.2460    1.7520   20.8250 C   0  0  0  0  0  0  0  0  0  0  0  0
    3.8860    2.1050   19.5250 C   0  0  0  0  0  0  0  0  0  0  0  0
   13.7501   -1.1157   24.6176 C   0  0  0  0  0  0  0  0  0  0  0  0
    5.3890    1.0010   21.0690 C   0  0  0  0  0  0  0  0  0  0  0  0
   12.5991   -0.3339   24.5202 C   0  0  0  0  0  0  0  0  0  0  0  0
    4.6610    1.7170   18.4380 C   0  0  0  0  0  0  0  0  0  0  0  0
    9.5890   -2.4950   23.2210 C   0  0  0  0  0  0  0  0  0  0  0  0
    8.2550   -1.0010   24.5520 C   0  0  0  0  0  0  0  0  0  0  0  0
    9.1890   -3.5540   24.0140 C   0  0  0  0  0  0  0  0  0  0  0  0
    7.8700   -2.0610   25.3550 C   0  0  0  0  0  0  0  0  0  0  0  0
   14.2636   -1.7454   23.4838 C   0  0  0  0  0  0  0  0  0  0  0  0
   12.4750   -0.8115   22.1551 C   0  0  0  0  0  0  0  0  0  0  0  0
    7.5840   -0.2700   18.5160 C   0  0  0  0  0  0  0  0  0  0  0  0
    6.1460    0.6070   19.9750 C   0  0  0  0  0  0  0  0  0  0  0  0
   11.9616   -0.1817   23.2889 C   0  0  0  0  0  0  0  0  0  0  0  0
    7.2710   -0.1460   19.8310 C   0  0  0  0  0  0  0  0  0  0  0  0
    5.7970    0.9500   18.6730 C   0  0  0  0  0  0  0  0  0  0  0  0
    9.1280   -1.2090   23.4870 C   0  0  0  0  0  0  0  0  0  0  0  0
    8.3450   -3.3440   25.0980 C   0  0  0  0  0  0  0  0  0  0  0  0
   13.6260   -1.5933   22.2526 C   0  0  0  0  0  0  0  0  0  0  0  0
    9.0430    0.2380   21.4940 C   0  0  0  0  0  0  0  0  0  0  0  0
    7.2639   -5.5574   25.3805 C   0  0  0  0  0  0  0  0  0  0  0  0
    8.3060   -4.4047   27.3385 C   0  0  0  0  0  0  0  0  0  0  0  0
    8.0950   -0.7700   20.8440 C   0  0  0  0  0  0  0  0  0  0  0  0
   10.7220    0.6590   23.1850 C   0  0  0  0  0  0  0  0  0  0  0  0
    6.7100    0.3850   17.8100 N   0  0  0  0  0  0  0  0  0  0  0  0
    9.5820   -0.1080   22.7000 N   0  0  0  0  0  0  0  0  0  0  0  0
    7.9731   -4.4180   25.9279 N   0  0  0  0  0  0  0  0  0  0  0  0
    9.2950    1.3000   20.9480 O   0  0  0  0  0  0  0  0  0  0  0  0
   14.2594   -2.3714   20.8543 Cl  0  0  0  0  0  0  0  0  0  0  0  0
    3.6210    2.0713   21.6574 H   0  0  0  0  0  0  0  0  0  0  0  0
    2.9855    2.6924   19.3616 H   0  0  0  0  0  0  0  0  0  0  0  0
   14.2462   -1.2340   25.5766 H   0  0  0  0  0  0  0  0  0  0  0  0
    5.6668    0.7411   22.0808 H   0  0  0  0  0  0  0  0  0  0  0  0
   12.2060    0.1530   25.4088 H   0  0  0  0  0  0  0  0  0  0  0  0
    4.3788    2.0100   17.4223 H   0  0  0  0  0  0  0  0  0  0  0  0
   10.2682   -2.6746   22.3864 H   0  0  0  0  0  0  0  0  0  0  0  0
    7.8692   -0.0022   24.7600 H   0  0  0  0  0  0  0  0  0  0  0  0
    9.5433   -4.5619   23.7809 H   0  0  0  0  0  0  0  0  0  0  0  0
    7.1923   -1.8829   26.1908 H   0  0  0  0  0  0  0  0  0  0  0  0
   15.1613   -2.3520   23.5747 H   0  0  0  0  0  0  0  0  0  0  0  0
   11.9745   -0.6893   21.1973 H   0  0  0  0  0  0  0  0  0  0  0  0
    8.4186   -0.8125   18.0399 H   0  0  0  0  0  0  0  0  0  0  0  0
    7.0639   -6.2847   26.1812 H   0  0  0  0  0  0  0  0  0  0  0  0
    6.3116   -5.2213   24.9443 H   0  0  0  0  0  0  0  0  0  0  0  0
    7.8778   -6.0308   24.6002 H   0  0  0  0  0  0  0  0  0  0  0  0
    7.9323   -5.3242   27.8127 H   0  0  0  0  0  0  0  0  0  0  0  0
    9.3983   -4.3492   27.4568 H   0  0  0  0  0  0  0  0  0  0  0  0
    7.8405   -3.5303   27.8168 H   0  0  0  0  0  0  0  0  0  0  0  0
    7.4761   -1.2062   21.6405 H   0  0  0  0  0  0  0  0  0  0  0  0
    8.7071   -1.5784   20.4200 H   0  0  0  0  0  0  0  0  0  0  0  0
   10.4561    1.0772   24.1620 H   0  0  0  0  0  0  0  0  0  0  0  0
   10.8743    1.5008   22.5014 H   0  0  0  0  0  0  0  0  0  0  0  0
    6.6719    0.4860   16.8043 H   0  0  0  0  0  0  0  0  0  0  0  0
  1  2  1  0  0  0  0
  1  4  2  0  0  0  0
  2  6  2  0  0  0  0
  3  5  2  0  0  0  0
  3 11  1  0  0  0  0
  4 14  1  0  0  0  0
  5 15  1  0  0  0  0
  6 17  1  0  0  0  0
  7  9  2  0  0  0  0
  7 18  1  0  0  0  0
  8 10  1  0  0  0  0
  8 18  2  0  0  0  0
  9 19  1  0  0  0  0
 10 19  2  0  0  0  0
 11 20  2  0  0  0  0
 12 15  2  0  0  0  0
 12 20  1  0  0  0  0
 13 16  2  0  0  0  0
 13 26  1  0  0  0  0
 14 16  1  0  0  0  0
 14 17  2  0  0  0  0
 15 25  1  0  0  0  0
 16 24  1  0  0  0  0
 17 26  1  0  0  0  0
 18 27  1  0  0  0  0
 19 28  1  0  0  0  0
 20 30  1  0  0  0  0
 21 24  1  0  0  0  0
 21 27  1  0  0  0  0
 21 29  2  0  0  0  0
 22 28  1  0  0  0  0
 23 28  1  0  0  0  0
 25 27  1  0  0  0  0
  1 31  1  0  0  0  0
  2 32  1  0  0  0  0
  3 33  1  0  0  0  0
  4 34  1  0  0  0  0
  5 35  1  0  0  0  0
  6 36  1  0  0  0  0
  7 37  1  0  0  0  0
  8 38  1  0  0  0  0
  9 39  1  0  0  0  0
 10 40  1  0  0  0  0
 11 41  1  0  0  0  0
 12 42  1  0  0  0  0
 13 43  1  0  0  0  0
 22 44  1  0  0  0  0
 22 45  1  0  0  0  0
 22 46  1  0  0  0  0
 23 47  1  0  0  0  0
 23 48  1  0  0  0  0
 23 49  1  0  0  0  0
 24 50  1  0  0  0  0
 24 51  1  0  0  0  0
 25 52  1  0  0  0  0
 25 53  1  0  0  0  0
 26 54  1  0  0  0  0
M  END
> <clash_score>
0

> <docking_score>
-8.70567512512207

> <overlap_score>
0.9545651078224182

$$$$
BENZO_453_1
  -OEChem-08222022473D

 56 59  0     0  0  0  0  0  0999 V2000
   14.2641   -1.7450   23.4813 C   0  0  0  0  0  0  0  0  0  0  0  0
    4.2460    1.7520   20.8250 C   0  0  0  0  0  0  0  0  0  0  0  0
   14.0779   -0.6681   24.3480 C   0  0  0  0  0  0  0  0  0  0  0  0
   13.2991   -2.0403   22.5184 C   0  0  0  0  0  0  0  0  0  0  0  0
    3.8860    2.1050   19.5250 C   0  0  0  0  0  0  0  0  0  0  0  0
    5.3890    1.0010   21.0690 C   0  0  0  0  0  0  0  0  0  0  0  0
   12.9266    0.1135   24.2518 C   0  0  0  0  0  0  0  0  0  0  0  0
   12.1478   -1.2587   22.4222 C   0  0  0  0  0  0  0  0  0  0  0  0
    4.6610    1.7170   18.4380 C   0  0  0  0  0  0  0  0  0  0  0  0
    9.1890   -3.5540   24.0140 C   0  0  0  0  0  0  0  0  0  0  0  0
    7.8700   -2.0610   25.3550 C   0  0  0  0  0  0  0  0  0  0  0  0
    9.5890   -2.4950   23.2210 C   0  0  0  0  0  0  0  0  0  0  0  0
    8.2550   -1.0010   24.5520 C   0  0  0  0  0  0  0  0  0  0  0  0
    7.5840   -0.2700   18.5160 C   0  0  0  0  0  0  0  0  0  0  0  0
    6.1460    0.6070   19.9750 C   0  0  0  0  0  0  0  0  0  0  0  0
   11.9616   -0.1817   23.2889 C   0  0  0  0  0  0  0  0  0  0  0  0
    7.2710   -0.1460   19.8310 C   0  0  0  0  0  0  0  0  0  0  0  0
    5.7970    0.9500   18.6730 C   0  0  0  0  0  0  0  0  0  0  0  0
    8.3450   -3.3440   25.0980 C   0  0  0  0  0  0  0  0  0  0  0  0
    9.1280   -1.2090   23.4870 C   0  0  0  0  0  0  0  0  0  0  0  0
    9.0430    0.2380   21.4940 C   0  0  0  0  0  0  0  0  0  0  0  0
    7.1413   -4.3827   27.0479 C   0  0  0  0  0  0  0  0  0  0  0  0
    8.0786   -6.0700   28.6850 C   0  0  0  0  0  0  0  0  0  0  0  0
    8.0950   -0.7700   20.8440 C   0  0  0  0  0  0  0  0  0  0  0  0
   10.7220    0.6590   23.1850 C   0  0  0  0  0  0  0  0  0  0  0  0
    7.0021   -5.7697   27.6575 C   0  0  0  0  0  0  0  0  0  0  0  0
    6.7100    0.3850   17.8100 N   0  0  0  0  0  0  0  0  0  0  0  0
    7.9771   -4.4058   25.9196 N   0  0  0  0  0  0  0  0  0  0  0  0
    9.5820   -0.1080   22.7000 N   0  0  0  0  0  0  0  0  0  0  0  0
    9.2950    1.3000   20.9480 O   0  0  0  0  0  0  0  0  0  0  0  0
    6.5736   -3.4039   27.5216 O   0  0  0  0  0  0  0  0  0  0  0  0
   15.1613   -2.3527   23.5555 H   0  0  0  0  0  0  0  0  0  0  0  0
    3.6210    2.0713   21.6574 H   0  0  0  0  0  0  0  0  0  0  0  0
   14.8297   -0.4373   25.0971 H   0  0  0  0  0  0  0  0  0  0  0  0
   13.4443   -2.8780   21.8427 H   0  0  0  0  0  0  0  0  0  0  0  0
    2.9855    2.6924   19.3616 H   0  0  0  0  0  0  0  0  0  0  0  0
    5.6668    0.7411   22.0808 H   0  0  0  0  0  0  0  0  0  0  0  0
   12.7899    0.9506   24.9315 H   0  0  0  0  0  0  0  0  0  0  0  0
   11.4013   -1.4963   21.6690 H   0  0  0  0  0  0  0  0  0  0  0  0
    4.3788    2.0100   17.4223 H   0  0  0  0  0  0  0  0  0  0  0  0
    9.5436   -4.5614   23.7799 H   0  0  0  0  0  0  0  0  0  0  0  0
    7.1918   -1.8823   26.1906 H   0  0  0  0  0  0  0  0  0  0  0  0
   10.2676   -2.6754   22.3861 H   0  0  0  0  0  0  0  0  0  0  0  0
    7.8686   -0.0026   24.7598 H   0  0  0  0  0  0  0  0  0  0  0  0
    8.4186   -0.8125   18.0399 H   0  0  0  0  0  0  0  0  0  0  0  0
    9.0768   -6.0024   28.2400 H   0  0  0  0  0  0  0  0  0  0  0  0
    7.9510   -7.0799   29.0866 H   0  0  0  0  0  0  0  0  0  0  0  0
    8.0344   -5.3620   29.5192 H   0  0  0  0  0  0  0  0  0  0  0  0
    7.4761   -1.2062   21.6405 H   0  0  0  0  0  0  0  0  0  0  0  0
    8.7071   -1.5784   20.4200 H   0  0  0  0  0  0  0  0  0  0  0  0
   10.4561    1.0772   24.1620 H   0  0  0  0  0  0  0  0  0  0  0  0
   10.8743    1.5008   22.5014 H   0  0  0  0  0  0  0  0  0  0  0  0
    6.0156   -5.8444   28.1294 H   0  0  0  0  0  0  0  0  0  0  0  0
    7.0497   -6.5103   26.8509 H   0  0  0  0  0  0  0  0  0  0  0  0
    6.6719    0.4860   16.8043 H   0  0  0  0  0  0  0  0  0  0  0  0
    8.3624   -5.3252   25.6741 H   0  0  0  0  0  0  0  0  0  0  0  0
  1  3  1  0  0  0  0
  1  4  2  0  0  0  0
  2  5  1  0  0  0  0
  2  6  2  0  0  0  0
  3  7  2  0  0  0  0
  4  8  1  0  0  0  0
  5  9  2  0  0  0  0
  6 15  1  0  0  0  0
  7 16  1  0  0  0  0
  8 16  2  0  0  0  0
  9 18  1  0  0  0  0
 10 12  2  0  0  0  0
 10 19  1  0  0  0  0
 11 13  1  0  0  0  0
 11 19  2  0  0  0  0
 12 20  1  0  0  0  0
 13 20  2  0  0  0  0
 14 17  2  0  0  0  0
 14 27  1  0  0  0  0
 15 17  1  0  0  0  0
 15 18  2  0  0  0  0
 16 25  1  0  0  0  0
 17 24  1  0  0  0  0
 18 27  1  0  0  0  0
 19 28  1  0  0  0  0
 20 29  1  0  0  0  0
 21 24  1  0  0  0  0
 21 29  1  0  0  0  0
 21 30  2  0  0  0  0
 22 26  1  0  0  0  0
 22 28  1  0  0  0  0
 22 31  2  0  0  0  0
 23 26  1  0  0  0  0
 25 29  1  0  0  0  0
  1 32  1  0  0  0  0
  2 33  1  0  0  0  0
  3 34  1  0  0  0  0
  4 35  1  0  0  0  0
  5 36  1  0  0  0  0
  6 37  1  0  0  0  0
  7 38  1  0  0  0  0
  8 39  1  0  0  0  0
  9 40  1  0  0  0  0
 10 41  1  0  0  0  0
 11 42  1  0  0  0  0
 12 43  1  0  0  0  0
 13 44  1  0  0  0  0
 14 45  1  0  0  0  0
 23 46  1  0  0  0  0
 23 47  1  0  0  0  0
 23 48  1  0  0  0  0
 24 49  1  0  0  0  0
 24 50  1  0  0  0  0
 25 51  1  0  0  0  0
 25 52  1  0  0  0  0
 26 53  1  0  0  0  0
 26 54  1  0  0  0  0
 27 55  1  0  0  0  0
 28 56  1  0  0  0  0
M  END
> <clash_score>
0

> <docking_score>
-9.180218696594238

> <overlap_score>
0.9713126420974731

$$$$
BENZO_452_1
  -OEChem-08222022473D

 53 56  0     0  0  0  0  0  0999 V2000
    4.2460    1.7520   20.8250 C   0  0  0  0  0  0  0  0  0  0  0  0
    3.8860    2.1050   19.5250 C   0  0  0  0  0  0  0  0  0  0  0  0
    5.3890    1.0010   21.0690 C   0  0  0  0  0  0  0  0  0  0  0  0
    4.6610    1.7170   18.4380 C   0  0  0  0  0  0  0  0  0  0  0  0
    9.1890   -3.5540   24.0140 C   0  0  0  0  0  0  0  0  0  0  0  0
    7.8700   -2.0610   25.3550 C   0  0  0  0  0  0  0  0  0  0  0  0
    9.5890   -2.4950   23.2210 C   0  0  0  0  0  0  0  0  0  0  0  0
    8.2550   -1.0010   24.5520 C   0  0  0  0  0  0  0  0  0  0  0  0
   12.6785   -0.3936   24.5018 C   0  0  0  0  0  0  0  0  0  0  0  0
    7.5840   -0.2700   18.5160 C   0  0  0  0  0  0  0  0  0  0  0  0
   13.7775   -1.2037   24.3186 C   0  0  0  0  0  0  0  0  0  0  0  0
   12.5401   -0.8378   22.2246 C   0  0  0  0  0  0  0  0  0  0  0  0
    6.1460    0.6070   19.9750 C   0  0  0  0  0  0  0  0  0  0  0  0
   11.9616   -0.1817   23.2889 C   0  0  0  0  0  0  0  0  0  0  0  0
    7.2710   -0.1460   19.8310 C   0  0  0  0  0  0  0  0  0  0  0  0
    5.7970    0.9500   18.6730 C   0  0  0  0  0  0  0  0  0  0  0  0
    8.3450   -3.3440   25.0980 C   0  0  0  0  0  0  0  0  0  0  0  0
    9.1280   -1.2090   23.4870 C   0  0  0  0  0  0  0  0  0  0  0  0
    9.0430    0.2380   21.4940 C   0  0  0  0  0  0  0  0  0  0  0  0
    8.2015   -4.5567   27.2977 C   0  0  0  0  0  0  0  0  0  0  0  0
    7.8867   -6.0887   29.2875 C   0  0  0  0  0  0  0  0  0  0  0  0
    8.0950   -0.7700   20.8440 C   0  0  0  0  0  0  0  0  0  0  0  0
   10.7220    0.6590   23.1850 C   0  0  0  0  0  0  0  0  0  0  0  0
    7.6334   -5.8733   27.8062 C   0  0  0  0  0  0  0  0  0  0  0  0
    6.7100    0.3850   17.8100 N   0  0  0  0  0  0  0  0  0  0  0  0
    7.9771   -4.4058   25.9196 N   0  0  0  0  0  0  0  0  0  0  0  0
    9.5820   -0.1080   22.7000 N   0  0  0  0  0  0  0  0  0  0  0  0
    9.2950    1.3000   20.9480 O   0  0  0  0  0  0  0  0  0  0  0  0
    8.7727   -3.7647   28.0399 O   0  0  0  0  0  0  0  0  0  0  0  0
   13.9416   -1.7050   22.6894 S   0  0  0  0  0  0  0  0  0  0  0  0
    3.6210    2.0713   21.6574 H   0  0  0  0  0  0  0  0  0  0  0  0
    2.9855    2.6924   19.3616 H   0  0  0  0  0  0  0  0  0  0  0  0
    5.6668    0.7411   22.0808 H   0  0  0  0  0  0  0  0  0  0  0  0
    4.3788    2.0100   17.4223 H   0  0  0  0  0  0  0  0  0  0  0  0
    9.5436   -4.5614   23.7799 H   0  0  0  0  0  0  0  0  0  0  0  0
    7.1918   -1.8823   26.1906 H   0  0  0  0  0  0  0  0  0  0  0  0
   10.2676   -2.6754   22.3861 H   0  0  0  0  0  0  0  0  0  0  0  0
    7.8686   -0.0026   24.7598 H   0  0  0  0  0  0  0  0  0  0  0  0
   12.4058    0.0253   25.4623 H   0  0  0  0  0  0  0  0  0  0  0  0
    8.4186   -0.8125   18.0399 H   0  0  0  0  0  0  0  0  0  0  0  0
   14.4923   -1.5246   25.0631 H   0  0  0  0  0  0  0  0  0  0  0  0
   12.2108   -0.8511   21.1948 H   0  0  0  0  0  0  0  0  0  0  0  0
    8.9593   -6.0836   29.5079 H   0  0  0  0  0  0  0  0  0  0  0  0
    7.4764   -7.0512   29.6083 H   0  0  0  0  0  0  0  0  0  0  0  0
    7.4175   -5.3004   29.8854 H   0  0  0  0  0  0  0  0  0  0  0  0
    7.4761   -1.2062   21.6405 H   0  0  0  0  0  0  0  0  0  0  0  0
    8.7071   -1.5784   20.4200 H   0  0  0  0  0  0  0  0  0  0  0  0
   10.4561    1.0772   24.1620 H   0  0  0  0  0  0  0  0  0  0  0  0
   10.8743    1.5008   22.5014 H   0  0  0  0  0  0  0  0  0  0  0  0
    6.5541   -5.8831   27.6149 H   0  0  0  0  0  0  0  0  0  0  0  0
    8.0869   -6.6914   27.2350 H   0  0  0  0  0  0  0  0  0  0  0  0
    6.6719    0.4860   16.8043 H   0  0  0  0  0  0  0  0  0  0  0  0
    7.4775   -5.1795   25.4660 H   0  0  0  0  0  0  0  0  0  0  0  0
  1  2  1  0  0  0  0
  1  3  2  0  0  0  0
  2  4  2  0  0  0  0
  3 13  1  0  0  0  0
  4 16  1  0  0  0  0
  5  7  2  0  0  0  0
  5 17  1  0  0  0  0
  6  8  1  0  0  0  0
  6 17  2  0  0  0  0
  7 18  1  0  0  0  0
  8 18  2  0  0  0  0
  9 11  2  0  0  0  0
  9 14  1  0  0  0  0
 10 15  2  0  0  0  0
 10 25  1  0  0  0  0
 11 30  1  0  0  0  0
 12 14  2  0  0  0  0
 12 30  1  0  0  0  0
 13 15  1  0  0  0  0
 13 16  2  0  0  0  0
 14 23  1  0  0  0  0
 15 22  1  0  0  0  0
 16 25  1  0  0  0  0
 17 26  1  0  0  0  0
 18 27  1  0  0  0  0
 19 22  1  0  0  0  0
 19 27  1  0  0  0  0
 19 28  2  0  0  0  0
 20 24  1  0  0  0  0
 20 26  1  0  0  0  0
 20 29  2  0  0  0  0
 21 24  1  0  0  0  0
 23 27  1  0  0  0  0
  1 31  1  0  0  0  0
  2 32  1  0  0  0  0
  3 33  1  0  0  0  0
  4 34  1  0  0  0  0
  5 35  1  0  0  0  0
  6 36  1  0  0  0  0
  7 37  1  0  0  0  0
  8 38  1  0  0  0  0
  9 39  1  0  0  0  0
 10 40  1  0  0  0  0
 11 41  1  0  0  0  0
 12 42  1  0  0  0  0
 21 43  1  0  0  0  0
 21 44  1  0  0  0  0
 21 45  1  0  0  0  0
 22 46  1  0  0  0  0
 22 47  1  0  0  0  0
 23 48  1  0  0  0  0
 23 49  1  0  0  0  0
 24 50  1  0  0  0  0
 24 51  1  0  0  0  0
 25 52  1  0  0  0  0
 26 53  1  0  0  0  0
M  END
> <clash_score>
0

> <docking_score>
-9.472426414489746

> <overlap_score>
0.9895498156547546

$$$$
BENZO_457_1
  -OEChem-08222022473D

 61 65  0     0  0  0  0  0  0999 V2000
   14.2642   -1.7450   23.4813 C   0  0  0  0  0  0  0  0  0  0  0  0
    4.2460    1.7520   20.8250 C   0  0  0  0  0  0  0  0  0  0  0  0
   14.0779   -0.6681   24.3480 C   0  0  0  0  0  0  0  0  0  0  0  0
   13.2991   -2.0403   22.5184 C   0  0  0  0  0  0  0  0  0  0  0  0
    3.8860    2.1050   19.5250 C   0  0  0  0  0  0  0  0  0  0  0  0
    5.3890    1.0010   21.0690 C   0  0  0  0  0  0  0  0  0  0  0  0
   12.9266    0.1135   24.2518 C   0  0  0  0  0  0  0  0  0  0  0  0
   12.1478   -1.2587   22.4222 C   0  0  0  0  0  0  0  0  0  0  0  0
    4.6610    1.7170   18.4380 C   0  0  0  0  0  0  0  0  0  0  0  0
    9.1890   -3.5540   24.0140 C   0  0  0  0  0  0  0  0  0  0  0  0
    7.8700   -2.0610   25.3550 C   0  0  0  0  0  0  0  0  0  0  0  0
    9.5890   -2.4950   23.2210 C   0  0  0  0  0  0  0  0  0  0  0  0
    8.2550   -1.0010   24.5520 C   0  0  0  0  0  0  0  0  0  0  0  0
    7.5840   -0.2700   18.5160 C   0  0  0  0  0  0  0  0  0  0  0  0
    6.1460    0.6070   19.9750 C   0  0  0  0  0  0  0  0  0  0  0  0
   11.9616   -0.1817   23.2889 C   0  0  0  0  0  0  0  0  0  0  0  0
    7.2710   -0.1460   19.8310 C   0  0  0  0  0  0  0  0  0  0  0  0
    5.7970    0.9500   18.6730 C   0  0  0  0  0  0  0  0  0  0  0  0
    8.3450   -3.3440   25.0980 C   0  0  0  0  0  0  0  0  0  0  0  0
    9.1280   -1.2090   23.4870 C   0  0  0  0  0  0  0  0  0  0  0  0
    9.0430    0.2380   21.4940 C   0  0  0  0  0  0  0  0  0  0  0  0
    7.3495   -6.6199   27.6701 C   0  0  0  0  0  0  0  0  0  0  0  0
    6.9542   -6.6348   26.1986 C   0  0  0  0  0  0  0  0  0  0  0  0
    7.3959   -5.1872   28.1871 C   0  0  0  0  0  0  0  0  0  0  0  0
    7.8834   -5.7613   25.3569 C   0  0  0  0  0  0  0  0  0  0  0  0
    8.3297   -4.3204   27.3453 C   0  0  0  0  0  0  0  0  0  0  0  0
    8.0950   -0.7700   20.8440 C   0  0  0  0  0  0  0  0  0  0  0  0
   10.7220    0.6590   23.1850 C   0  0  0  0  0  0  0  0  0  0  0  0
    6.7100    0.3850   17.8100 N   0  0  0  0  0  0  0  0  0  0  0  0
    7.9745   -4.4101   25.9218 N   0  0  0  0  0  0  0  0  0  0  0  0
    9.5820   -0.1080   22.7000 N   0  0  0  0  0  0  0  0  0  0  0  0
    9.2950    1.3000   20.9480 O   0  0  0  0  0  0  0  0  0  0  0  0
   15.1613   -2.3527   23.5555 H   0  0  0  0  0  0  0  0  0  0  0  0
    3.6210    2.0713   21.6574 H   0  0  0  0  0  0  0  0  0  0  0  0
   14.8297   -0.4373   25.0971 H   0  0  0  0  0  0  0  0  0  0  0  0
   13.4443   -2.8780   21.8427 H   0  0  0  0  0  0  0  0  0  0  0  0
    2.9855    2.6924   19.3616 H   0  0  0  0  0  0  0  0  0  0  0  0
    5.6668    0.7411   22.0808 H   0  0  0  0  0  0  0  0  0  0  0  0
   12.7899    0.9506   24.9315 H   0  0  0  0  0  0  0  0  0  0  0  0
   11.4013   -1.4963   21.6690 H   0  0  0  0  0  0  0  0  0  0  0  0
    4.3788    2.0100   17.4223 H   0  0  0  0  0  0  0  0  0  0  0  0
    9.5426   -4.5618   23.7797 H   0  0  0  0  0  0  0  0  0  0  0  0
    7.1914   -1.8824   26.1903 H   0  0  0  0  0  0  0  0  0  0  0  0
   10.2669   -2.6745   22.3854 H   0  0  0  0  0  0  0  0  0  0  0  0
    7.8690   -0.0020   24.7587 H   0  0  0  0  0  0  0  0  0  0  0  0
    8.4186   -0.8125   18.0399 H   0  0  0  0  0  0  0  0  0  0  0  0
    6.6275   -7.2030   28.2544 H   0  0  0  0  0  0  0  0  0  0  0  0
    8.3286   -7.0944   27.7981 H   0  0  0  0  0  0  0  0  0  0  0  0
    6.9785   -7.6646   25.8205 H   0  0  0  0  0  0  0  0  0  0  0  0
    5.9224   -6.2815   26.0912 H   0  0  0  0  0  0  0  0  0  0  0  0
    6.3874   -4.7586   28.1744 H   0  0  0  0  0  0  0  0  0  0  0  0
    7.7314   -5.1812   29.2316 H   0  0  0  0  0  0  0  0  0  0  0  0
    8.8752   -6.2297   25.3260 H   0  0  0  0  0  0  0  0  0  0  0  0
    7.5092   -5.7078   24.3260 H   0  0  0  0  0  0  0  0  0  0  0  0
    8.2703   -3.2761   27.6782 H   0  0  0  0  0  0  0  0  0  0  0  0
    9.3614   -4.6600   27.5015 H   0  0  0  0  0  0  0  0  0  0  0  0
    7.4659   -1.2025   21.6292 H   0  0  0  0  0  0  0  0  0  0  0  0
    8.6969   -1.5747   20.4087 H   0  0  0  0  0  0  0  0  0  0  0  0
   10.4561    1.0772   24.1620 H   0  0  0  0  0  0  0  0  0  0  0  0
   10.8743    1.5008   22.5014 H   0  0  0  0  0  0  0  0  0  0  0  0
    6.6719    0.4860   16.8043 H   0  0  0  0  0  0  0  0  0  0  0  0
  1  3  1  0  0  0  0
  1  4  2  0  0  0  0
  2  5  1  0  0  0  0
  2  6  2  0  0  0  0
  3  7  2  0  0  0  0
  4  8  1  0  0  0  0
  5  9  2  0  0  0  0
  6 15  1  0  0  0  0
  7 16  1  0  0  0  0
  8 16  2  0  0  0  0
  9 18  1  0  0  0  0
 10 12  2  0  0  0  0
 10 19  1  0  0  0  0
 11 13  1  0  0  0  0
 11 19  2  0  0  0  0
 12 20  1  0  0  0  0
 13 20  2  0  0  0  0
 14 17  2  0  0  0  0
 14 29  1  0  0  0  0
 15 17  1  0  0  0  0
 15 18  2  0  0  0  0
 16 28  1  0  0  0  0
 17 27  1  0  0  0  0
 18 29  1  0  0  0  0
 19 30  1  0  0  0  0
 20 31  1  0  0  0  0
 21 27  1  0  0  0  0
 21 31  1  0  0  0  0
 21 32  2  0  0  0  0
 22 23  1  0  0  0  0
 22 24  1  0  0  0  0
 23 25  1  0  0  0  0
 24 26  1  0  0  0  0
 25 30  1  0  0  0  0
 26 30  1  0  0  0  0
 28 31  1  0  0  0  0
  1 33  1  0  0  0  0
  2 34  1  0  0  0  0
  3 35  1  0  0  0  0
  4 36  1  0  0  0  0
  5 37  1  0  0  0  0
  6 38  1  0  0  0  0
  7 39  1  0  0  0  0
  8 40  1  0  0  0  0
  9 41  1  0  0  0  0
 10 42  1  0  0  0  0
 11 43  1  0  0  0  0
 12 44  1  0  0  0  0
 13 45  1  0  0  0  0
 14 46  1  0  0  0  0
 22 47  1  0  0  0  0
 22 48  1  0  0  0  0
 23 49  1  0  0  0  0
 23 50  1  0  0  0  0
 24 51  1  0  0  0  0
 24 52  1  0  0  0  0
 25 53  1  0  0  0  0
 25 54  1  0  0  0  0
 26 55  1  0  0  0  0
 26 56  1  0  0  0  0
 27 57  1  0  0  0  0
 27 58  1  0  0  0  0
 28 59  1  0  0  0  0
 28 60  1  0  0  0  0
 29 61  1  0  0  0  0
M  END
> <clash_score>
0

> <docking_score>
-9.265802383422852

> <overlap_score>
0.9952272772789001

$$$$
BENZO_454_1
  -OEChem-08222022473D

 56 59  0     0  0  0  0  0  0999 V2000
    4.2460    1.7520   20.8250 C   0  0  0  0  0  0  0  0  0  0  0  0
    3.8860    2.1050   19.5250 C   0  0  0  0  0  0  0  0  0  0  0  0
   13.7501   -1.1157   24.6176 C   0  0  0  0  0  0  0  0  0  0  0  0
    5.3890    1.0010   21.0690 C   0  0  0  0  0  0  0  0  0  0  0  0
   12.5991   -0.3339   24.5202 C   0  0  0  0  0  0  0  0  0  0  0  0
    4.6610    1.7170   18.4380 C   0  0  0  0  0  0  0  0  0  0  0  0
    9.1890   -3.5540   24.0140 C   0  0  0  0  0  0  0  0  0  0  0  0
    7.8700   -2.0610   25.3550 C   0  0  0  0  0  0  0  0  0  0  0  0
    9.5890   -2.4950   23.2210 C   0  0  0  0  0  0  0  0  0  0  0  0
    8.2550   -1.0010   24.5520 C   0  0  0  0  0  0  0  0  0  0  0  0
   14.2636   -1.7454   23.4838 C   0  0  0  0  0  0  0  0  0  0  0  0
   12.4750   -0.8115   22.1551 C   0  0  0  0  0  0  0  0  0  0  0  0
    7.5840   -0.2700   18.5160 C   0  0  0  0  0  0  0  0  0  0  0  0
    6.1460    0.6070   19.9750 C   0  0  0  0  0  0  0  0  0  0  0  0
   11.9616   -0.1817   23.2889 C   0  0  0  0  0  0  0  0  0  0  0  0
    7.2710   -0.1460   19.8310 C   0  0  0  0  0  0  0  0  0  0  0  0
    5.7970    0.9500   18.6730 C   0  0  0  0  0  0  0  0  0  0  0  0
    8.3450   -3.3440   25.0980 C   0  0  0  0  0  0  0  0  0  0  0  0
    9.1280   -1.2090   23.4870 C   0  0  0  0  0  0  0  0  0  0  0  0
   13.6260   -1.5933   22.2526 C   0  0  0  0  0  0  0  0  0  0  0  0
    9.0430    0.2380   21.4940 C   0  0  0  0  0  0  0  0  0  0  0  0
    8.2015   -4.5567   27.2977 C   0  0  0  0  0  0  0  0  0  0  0  0
    7.8867   -6.0887   29.2875 C   0  0  0  0  0  0  0  0  0  0  0  0
    8.0950   -0.7700   20.8440 C   0  0  0  0  0  0  0  0  0  0  0  0
   10.7220    0.6590   23.1850 C   0  0  0  0  0  0  0  0  0  0  0  0
    7.6334   -5.8733   27.8062 C   0  0  0  0  0  0  0  0  0  0  0  0
    6.7100    0.3850   17.8100 N   0  0  0  0  0  0  0  0  0  0  0  0
    7.9771   -4.4058   25.9196 N   0  0  0  0  0  0  0  0  0  0  0  0
    9.5820   -0.1080   22.7000 N   0  0  0  0  0  0  0  0  0  0  0  0
    9.2950    1.3000   20.9480 O   0  0  0  0  0  0  0  0  0  0  0  0
    8.7727   -3.7647   28.0399 O   0  0  0  0  0  0  0  0  0  0  0  0
   14.2594   -2.3714   20.8543 Cl  0  0  0  0  0  0  0  0  0  0  0  0
    3.6210    2.0713   21.6574 H   0  0  0  0  0  0  0  0  0  0  0  0
    2.9855    2.6924   19.3616 H   0  0  0  0  0  0  0  0  0  0  0  0
   14.2462   -1.2340   25.5766 H   0  0  0  0  0  0  0  0  0  0  0  0
    5.6668    0.7411   22.0808 H   0  0  0  0  0  0  0  0  0  0  0  0
   12.2060    0.1530   25.4088 H   0  0  0  0  0  0  0  0  0  0  0  0
    4.3788    2.0100   17.4223 H   0  0  0  0  0  0  0  0  0  0  0  0
    9.5436   -4.5614   23.7799 H   0  0  0  0  0  0  0  0  0  0  0  0
    7.1918   -1.8823   26.1906 H   0  0  0  0  0  0  0  0  0  0  0  0
   10.2676   -2.6754   22.3861 H   0  0  0  0  0  0  0  0  0  0  0  0
    7.8686   -0.0026   24.7598 H   0  0  0  0  0  0  0  0  0  0  0  0
   15.1613   -2.3520   23.5747 H   0  0  0  0  0  0  0  0  0  0  0  0
   11.9745   -0.6893   21.1973 H   0  0  0  0  0  0  0  0  0  0  0  0
    8.4186   -0.8125   18.0399 H   0  0  0  0  0  0  0  0  0  0  0  0
    8.9593   -6.0836   29.5079 H   0  0  0  0  0  0  0  0  0  0  0  0
    7.4764   -7.0512   29.6083 H   0  0  0  0  0  0  0  0  0  0  0  0
    7.4175   -5.3004   29.8854 H   0  0  0  0  0  0  0  0  0  0  0  0
    7.4761   -1.2062   21.6405 H   0  0  0  0  0  0  0  0  0  0  0  0
    8.7071   -1.5784   20.4200 H   0  0  0  0  0  0  0  0  0  0  0  0
   10.4561    1.0772   24.1620 H   0  0  0  0  0  0  0  0  0  0  0  0
   10.8743    1.5008   22.5014 H   0  0  0  0  0  0  0  0  0  0  0  0
    6.5541   -5.8831   27.6149 H   0  0  0  0  0  0  0  0  0  0  0  0
    8.0869   -6.6914   27.2350 H   0  0  0  0  0  0  0  0  0  0  0  0
    6.6719    0.4860   16.8043 H   0  0  0  0  0  0  0  0  0  0  0  0
    7.4775   -5.1795   25.4660 H   0  0  0  0  0  0  0  0  0  0  0  0
  1  2  1  0  0  0  0
  1  4  2  0  0  0  0
  2  6  2  0  0  0  0
  3  5  2  0  0  0  0
  3 11  1  0  0  0  0
  4 14  1  0  0  0  0
  5 15  1  0  0  0  0
  6 17  1  0  0  0  0
  7  9  2  0  0  0  0
  7 18  1  0  0  0  0
  8 10  1  0  0  0  0
  8 18  2  0  0  0  0
  9 19  1  0  0  0  0
 10 19  2  0  0  0  0
 11 20  2  0  0  0  0
 12 15  2  0  0  0  0
 12 20  1  0  0  0  0
 13 16  2  0  0  0  0
 13 27  1  0  0  0  0
 14 16  1  0  0  0  0
 14 17  2  0  0  0  0
 15 25  1  0  0  0  0
 16 24  1  0  0  0  0
 17 27  1  0  0  0  0
 18 28  1  0  0  0  0
 19 29  1  0  0  0  0
 20 32  1  0  0  0  0
 21 24  1  0  0  0  0
 21 29  1  0  0  0  0
 21 30  2  0  0  0  0
 22 26  1  0  0  0  0
 22 28  1  0  0  0  0
 22 31  2  0  0  0  0
 23 26  1  0  0  0  0
 25 29  1  0  0  0  0
  1 33  1  0  0  0  0
  2 34  1  0  0  0  0
  3 35  1  0  0  0  0
  4 36  1  0  0  0  0
  5 37  1  0  0  0  0
  6 38  1  0  0  0  0
  7 39  1  0  0  0  0
  8 40  1  0  0  0  0
  9 41  1  0  0  0  0
 10 42  1  0  0  0  0
 11 43  1  0  0  0  0
 12 44  1  0  0  0  0
 13 45  1  0  0  0  0
 23 46  1  0  0  0  0
 23 47  1  0  0  0  0
 23 48  1  0  0  0  0
 24 49  1  0  0  0  0
 24 50  1  0  0  0  0
 25 51  1  0  0  0  0
 25 52  1  0  0  0  0
 26 53  1  0  0  0  0
 26 54  1  0  0  0  0
 27 55  1  0  0  0  0
 28 56  1  0  0  0  0
M  END
> <clash_score>
0

> <docking_score>
-8.98561954498291

> <overlap_score>
1.0107005834579468

$$$$
BENZO_455_1
  -OEChem-08222022473D

 56 59  0     0  0  0  0  0  0999 V2000
    4.2460    1.7520   20.8250 C   0  0  0  0  0  0  0  0  0  0  0  0
    3.8860    2.1050   19.5250 C   0  0  0  0  0  0  0  0  0  0  0  0
    5.3890    1.0010   21.0690 C   0  0  0  0  0  0  0  0  0  0  0  0
    4.6610    1.7170   18.4380 C   0  0  0  0  0  0  0  0  0  0  0  0
    9.1890   -3.5540   24.0140 C   0  0  0  0  0  0  0  0  0  0  0  0
    7.8700   -2.0610   25.3550 C   0  0  0  0  0  0  0  0  0  0  0  0
    9.5890   -2.4950   23.2210 C   0  0  0  0  0  0  0  0  0  0  0  0
    8.2550   -1.0010   24.5520 C   0  0  0  0  0  0  0  0  0  0  0  0
   12.7320   -0.4464   24.4370 C   0  0  0  0  0  0  0  0  0  0  0  0
    7.5840   -0.2700   18.5160 C   0  0  0  0  0  0  0  0  0  0  0  0
   12.5970   -0.8682   22.2832 C   0  0  0  0  0  0  0  0  0  0  0  0
    6.1460    0.6070   19.9750 C   0  0  0  0  0  0  0  0  0  0  0  0
   11.9616   -0.1817   23.2889 C   0  0  0  0  0  0  0  0  0  0  0  0
    7.2710   -0.1460   19.8310 C   0  0  0  0  0  0  0  0  0  0  0  0
    5.7970    0.9500   18.6730 C   0  0  0  0  0  0  0  0  0  0  0  0
    8.3450   -3.3440   25.0980 C   0  0  0  0  0  0  0  0  0  0  0  0
    9.1280   -1.2090   23.4870 C   0  0  0  0  0  0  0  0  0  0  0  0
    9.0430    0.2380   21.4940 C   0  0  0  0  0  0  0  0  0  0  0  0
    8.2015   -4.5567   27.2977 C   0  0  0  0  0  0  0  0  0  0  0  0
    7.8867   -6.0887   29.2875 C   0  0  0  0  0  0  0  0  0  0  0  0
   14.6393   -2.3180   22.2082 C   0  0  0  0  0  0  0  0  0  0  0  0
    8.0950   -0.7700   20.8440 C   0  0  0  0  0  0  0  0  0  0  0  0
   10.7220    0.6590   23.1850 C   0  0  0  0  0  0  0  0  0  0  0  0
    7.6334   -5.8733   27.8062 C   0  0  0  0  0  0  0  0  0  0  0  0
   13.7770   -1.2393   24.1852 N   0  0  0  0  0  0  0  0  0  0  0  0
    6.7100    0.3850   17.8100 N   0  0  0  0  0  0  0  0  0  0  0  0
   13.6676   -1.4788   22.8673 N   0  0  0  0  0  0  0  0  0  0  0  0
    7.9771   -4.4058   25.9196 N   0  0  0  0  0  0  0  0  0  0  0  0
    9.5820   -0.1080   22.7000 N   0  0  0  0  0  0  0  0  0  0  0  0
    9.2950    1.3000   20.9480 O   0  0  0  0  0  0  0  0  0  0  0  0
    8.7727   -3.7647   28.0399 O   0  0  0  0  0  0  0  0  0  0  0  0
    3.6210    2.0713   21.6574 H   0  0  0  0  0  0  0  0  0  0  0  0
    2.9855    2.6924   19.3616 H   0  0  0  0  0  0  0  0  0  0  0  0
    5.6668    0.7411   22.0808 H   0  0  0  0  0  0  0  0  0  0  0  0
    4.3788    2.0100   17.4223 H   0  0  0  0  0  0  0  0  0  0  0  0
    9.5436   -4.5614   23.7799 H   0  0  0  0  0  0  0  0  0  0  0  0
    7.1918   -1.8823   26.1906 H   0  0  0  0  0  0  0  0  0  0  0  0
   10.2676   -2.6754   22.3861 H   0  0  0  0  0  0  0  0  0  0  0  0
    7.8686   -0.0026   24.7598 H   0  0  0  0  0  0  0  0  0  0  0  0
   12.5771   -0.0965   25.4478 H   0  0  0  0  0  0  0  0  0  0  0  0
    8.4186   -0.8125   18.0399 H   0  0  0  0  0  0  0  0  0  0  0  0
   12.3832   -0.9726   21.2281 H   0  0  0  0  0  0  0  0  0  0  0  0
    8.9593   -6.0836   29.5079 H   0  0  0  0  0  0  0  0  0  0  0  0
    7.4764   -7.0512   29.6083 H   0  0  0  0  0  0  0  0  0  0  0  0
    7.4175   -5.3004   29.8854 H   0  0  0  0  0  0  0  0  0  0  0  0
   15.4522   -1.6787   21.8540 H   0  0  0  0  0  0  0  0  0  0  0  0
   15.0179   -3.0612   22.9154 H   0  0  0  0  0  0  0  0  0  0  0  0
   14.1626   -2.8324   21.3691 H   0  0  0  0  0  0  0  0  0  0  0  0
    7.4761   -1.2062   21.6405 H   0  0  0  0  0  0  0  0  0  0  0  0
    8.7071   -1.5784   20.4200 H   0  0  0  0  0  0  0  0  0  0  0  0
   10.4561    1.0772   24.1620 H   0  0  0  0  0  0  0  0  0  0  0  0
   10.8743    1.5008   22.5014 H   0  0  0  0  0  0  0  0  0  0  0  0
    6.5541   -5.8831   27.6149 H   0  0  0  0  0  0  0  0  0  0  0  0
    8.0869   -6.6914   27.2350 H   0  0  0  0  0  0  0  0  0  0  0  0
    6.6719    0.4860   16.8043 H   0  0  0  0  0  0  0  0  0  0  0  0
    7.4775   -5.1795   25.4660 H   0  0  0  0  0  0  0  0  0  0  0  0
  1  2  1  0  0  0  0
  1  3  2  0  0  0  0
  2  4  2  0  0  0  0
  3 12  1  0  0  0  0
  4 15  1  0  0  0  0
  5  7  2  0  0  0  0
  5 16  1  0  0  0  0
  6  8  1  0  0  0  0
  6 16  2  0  0  0  0
  7 17  1  0  0  0  0
  8 17  2  0  0  0  0
  9 13  1  0  0  0  0
  9 25  2  0  0  0  0
 10 14  2  0  0  0  0
 10 26  1  0  0  0  0
 11 13  2  0  0  0  0
 11 27  1  0  0  0  0
 12 14  1  0  0  0  0
 12 15  2  0  0  0  0
 13 23  1  0  0  0  0
 14 22  1  0  0  0  0
 15 26  1  0  0  0  0
 16 28  1  0  0  0  0
 17 29  1  0  0  0  0
 18 22  1  0  0  0  0
 18 29  1  0  0  0  0
 18 30  2  0  0  0  0
 19 24  1  0  0  0  0
 19 28  1  0  0  0  0
 19 31  2  0  0  0  0
 20 24  1  0  0  0  0
 21 27  1  0  0  0  0
 23 29  1  0  0  0  0
 25 27  1  0  0  0  0
  1 32  1  0  0  0  0
  2 33  1  0  0  0  0
  3 34  1  0  0  0  0
  4 35  1  0  0  0  0
  5 36  1  0  0  0  0
  6 37  1  0  0  0  0
  7 38  1  0  0  0  0
  8 39  1  0  0  0  0
  9 40  1  0  0  0  0
 10 41  1  0  0  0  0
 11 42  1  0  0  0  0
 20 43  1  0  0  0  0
 20 44  1  0  0  0  0
 20 45  1  0  0  0  0
 21 46  1  0  0  0  0
 21 47  1  0  0  0  0
 21 48  1  0  0  0  0
 22 49  1  0  0  0  0
 22 50  1  0  0  0  0
 23 51  1  0  0  0  0
 23 52  1  0  0  0  0
 24 53  1  0  0  0  0
 24 54  1  0  0  0  0
 26 55  1  0  0  0  0
 28 56  1  0  0  0  0
M  END
> <clash_score>
0

> <docking_score>
-8.221639633178711

> <overlap_score>
1.006187081336975

$$$$
BENZO_456_1
  -OEChem-08222022473D

 58 62  0     0  0  0  0  0  0999 V2000
    4.2460    1.7520   20.8250 C   0  0  0  0  0  0  0  0  0  0  0  0
    3.8860    2.1050   19.5250 C   0  0  0  0  0  0  0  0  0  0  0  0
    5.3890    1.0010   21.0690 C   0  0  0  0  0  0  0  0  0  0  0  0
    4.6610    1.7170   18.4380 C   0  0  0  0  0  0  0  0  0  0  0  0
    9.1890   -3.5540   24.0140 C   0  0  0  0  0  0  0  0  0  0  0  0
    7.8700   -2.0610   25.3550 C   0  0  0  0  0  0  0  0  0  0  0  0
    9.5890   -2.4950   23.2210 C   0  0  0  0  0  0  0  0  0  0  0  0
    8.2550   -1.0010   24.5520 C   0  0  0  0  0  0  0  0  0  0  0  0
   12.6785   -0.3936   24.5018 C   0  0  0  0  0  0  0  0  0  0  0  0
    7.5840   -0.2700   18.5160 C   0  0  0  0  0  0  0  0  0  0  0  0
   13.7775   -1.2037   24.3186 C   0  0  0  0  0  0  0  0  0  0  0  0
   12.5401   -0.8378   22.2246 C   0  0  0  0  0  0  0  0  0  0  0  0
    6.1460    0.6070   19.9750 C   0  0  0  0  0  0  0  0  0  0  0  0
   11.9616   -0.1817   23.2889 C   0  0  0  0  0  0  0  0  0  0  0  0
    7.2710   -0.1460   19.8310 C   0  0  0  0  0  0  0  0  0  0  0  0
    5.7970    0.9500   18.6730 C   0  0  0  0  0  0  0  0  0  0  0  0
    8.3450   -3.3440   25.0980 C   0  0  0  0  0  0  0  0  0  0  0  0
    9.1280   -1.2090   23.4870 C   0  0  0  0  0  0  0  0  0  0  0  0
    9.0430    0.2380   21.4940 C   0  0  0  0  0  0  0  0  0  0  0  0
    7.5748   -4.8280   28.7278 C   0  0  0  0  0  0  0  0  0  0  0  0
    8.9776   -4.7555   28.1204 C   0  0  0  0  0  0  0  0  0  0  0  0
    6.5554   -4.0713   27.8732 C   0  0  0  0  0  0  0  0  0  0  0  0
    8.9620   -5.1961   26.6568 C   0  0  0  0  0  0  0  0  0  0  0  0
    6.6009   -4.5253   26.4110 C   0  0  0  0  0  0  0  0  0  0  0  0
    8.0950   -0.7700   20.8440 C   0  0  0  0  0  0  0  0  0  0  0  0
   10.7220    0.6590   23.1850 C   0  0  0  0  0  0  0  0  0  0  0  0
    6.7100    0.3850   17.8100 N   0  0  0  0  0  0  0  0  0  0  0  0
    7.9770   -4.4029   25.9162 N   0  0  0  0  0  0  0  0  0  0  0  0
    9.5820   -0.1080   22.7000 N   0  0  0  0  0  0  0  0  0  0  0  0
    9.2950    1.3000   20.9480 O   0  0  0  0  0  0  0  0  0  0  0  0
   13.9416   -1.7050   22.6894 S   0  0  0  0  0  0  0  0  0  0  0  0
    3.6210    2.0713   21.6574 H   0  0  0  0  0  0  0  0  0  0  0  0
    2.9855    2.6924   19.3616 H   0  0  0  0  0  0  0  0  0  0  0  0
    5.6668    0.7411   22.0808 H   0  0  0  0  0  0  0  0  0  0  0  0
    4.3788    2.0100   17.4223 H   0  0  0  0  0  0  0  0  0  0  0  0
    9.5426   -4.5618   23.7797 H   0  0  0  0  0  0  0  0  0  0  0  0
    7.1914   -1.8824   26.1903 H   0  0  0  0  0  0  0  0  0  0  0  0
   10.2669   -2.6745   22.3854 H   0  0  0  0  0  0  0  0  0  0  0  0
    7.8690   -0.0020   24.7587 H   0  0  0  0  0  0  0  0  0  0  0  0
   12.4058    0.0253   25.4623 H   0  0  0  0  0  0  0  0  0  0  0  0
    8.4186   -0.8125   18.0399 H   0  0  0  0  0  0  0  0  0  0  0  0
   14.4923   -1.5245   25.0631 H   0  0  0  0  0  0  0  0  0  0  0  0
   12.2108   -0.8511   21.1948 H   0  0  0  0  0  0  0  0  0  0  0  0
    7.2681   -5.8807   28.8239 H   0  0  0  0  0  0  0  0  0  0  0  0
    7.5891   -4.4101   29.7448 H   0  0  0  0  0  0  0  0  0  0  0  0
    9.3554   -3.7320   28.1920 H   0  0  0  0  0  0  0  0  0  0  0  0
    9.6558   -5.3943   28.6900 H   0  0  0  0  0  0  0  0  0  0  0  0
    5.5496   -4.2322   28.2751 H   0  0  0  0  0  0  0  0  0  0  0  0
    6.7545   -2.9948   27.9293 H   0  0  0  0  0  0  0  0  0  0  0  0
    9.9612   -5.0560   26.2363 H   0  0  0  0  0  0  0  0  0  0  0  0
    8.7097   -6.2583   26.5922 H   0  0  0  0  0  0  0  0  0  0  0  0
    6.2649   -5.5600   26.3335 H   0  0  0  0  0  0  0  0  0  0  0  0
    5.9271   -3.8964   25.8283 H   0  0  0  0  0  0  0  0  0  0  0  0
    7.4659   -1.2025   21.6292 H   0  0  0  0  0  0  0  0  0  0  0  0
    8.6969   -1.5747   20.4087 H   0  0  0  0  0  0  0  0  0  0  0  0
   10.4561    1.0772   24.1620 H   0  0  0  0  0  0  0  0  0  0  0  0
   10.8743    1.5008   22.5014 H   0  0  0  0  0  0  0  0  0  0  0  0
    6.6719    0.4860   16.8043 H   0  0  0  0  0  0  0  0  0  0  0  0
  1  2  1  0  0  0  0
  1  3  2  0  0  0  0
  2  4  2  0  0  0  0
  3 13  1  0  0  0  0
  4 16  1  0  0  0  0
  5  7  2  0  0  0  0
  5 17  1  0  0  0  0
  6  8  1  0  0  0  0
  6 17  2  0  0  0  0
  7 18  1  0  0  0  0
  8 18  2  0  0  0  0
  9 11  2  0  0  0  0
  9 14  1  0  0  0  0
 10 15  2  0  0  0  0
 10 27  1  0  0  0  0
 11 31  1  0  0  0  0
 12 14  2  0  0  0  0
 12 31  1  0  0  0  0
 13 15  1  0  0  0  0
 13 16  2  0  0  0  0
 14 26  1  0  0  0  0
 15 25  1  0  0  0  0
 16 27  1  0  0  0  0
 17 28  1  0  0  0  0
 18 29  1  0  0  0  0
 19 25  1  0  0  0  0
 19 29  1  0  0  0  0
 19 30  2  0  0  0  0
 20 21  1  0  0  0  0
 20 22  1  0  0  0  0
 21 23  1  0  0  0  0
 22 24  1  0  0  0  0
 23 28  1  0  0  0  0
 24 28  1  0  0  0  0
 26 29  1  0  0  0  0
  1 32  1  0  0  0  0
  2 33  1  0  0  0  0
  3 34  1  0  0  0  0
  4 35  1  0  0  0  0
  5 36  1  0  0  0  0
  6 37  1  0  0  0  0
  7 38  1  0  0  0  0
  8 39  1  0  0  0  0
  9 40  1  0  0  0  0
 10 41  1  0  0  0  0
 11 42  1  0  0  0  0
 12 43  1  0  0  0  0
 20 44  1  0  0  0  0
 20 45  1  0  0  0  0
 21 46  1  0  0  0  0
 21 47  1  0  0  0  0
 22 48  1  0  0  0  0
 22 49  1  0  0  0  0
 23 50  1  0  0  0  0
 23 51  1  0  0  0  0
 24 52  1  0  0  0  0
 24 53  1  0  0  0  0
 25 54  1  0  0  0  0
 25 55  1  0  0  0  0
 26 56  1  0  0  0  0
 26 57  1  0  0  0  0
 27 58  1  0  0  0  0
M  END
> <clash_score>
0

> <docking_score>
-9.831575393676758

> <overlap_score>
0.9766672849655151

$$$$
BENZO_461_1
  -OEChem-08222022473D

 49 52  0     0  0  0  0  0  0999 V2000
   14.2641   -1.7450   23.4813 C   0  0  0  0  0  0  0  0  0  0  0  0
    4.2460    1.7520   20.8250 C   0  0  0  0  0  0  0  0  0  0  0  0
   14.0779   -0.6681   24.3480 C   0  0  0  0  0  0  0  0  0  0  0  0
   13.2991   -2.0403   22.5184 C   0  0  0  0  0  0  0  0  0  0  0  0
    3.8860    2.1050   19.5250 C   0  0  0  0  0  0  0  0  0  0  0  0
    5.3890    1.0010   21.0690 C   0  0  0  0  0  0  0  0  0  0  0  0
   12.9266    0.1135   24.2518 C   0  0  0  0  0  0  0  0  0  0  0  0
   12.1478   -1.2587   22.4222 C   0  0  0  0  0  0  0  0  0  0  0  0
    9.1890   -3.5540   24.0140 C   0  0  0  0  0  0  0  0  0  0  0  0
    7.8700   -2.0610   25.3550 C   0  0  0  0  0  0  0  0  0  0  0  0
    4.6610    1.7170   18.4380 C   0  0  0  0  0  0  0  0  0  0  0  0
    9.5890   -2.4950   23.2210 C   0  0  0  0  0  0  0  0  0  0  0  0
    8.2550   -1.0010   24.5520 C   0  0  0  0  0  0  0  0  0  0  0  0
    7.5840   -0.2700   18.5160 C   0  0  0  0  0  0  0  0  0  0  0  0
    6.1460    0.6070   19.9750 C   0  0  0  0  0  0  0  0  0  0  0  0
    8.3450   -3.3440   25.0980 C   0  0  0  0  0  0  0  0  0  0  0  0
   11.9616   -0.1817   23.2889 C   0  0  0  0  0  0  0  0  0  0  0  0
    7.2710   -0.1460   19.8310 C   0  0  0  0  0  0  0  0  0  0  0  0
    5.7970    0.9500   18.6730 C   0  0  0  0  0  0  0  0  0  0  0  0
    9.1280   -1.2090   23.4870 C   0  0  0  0  0  0  0  0  0  0  0  0
    9.0430    0.2380   21.4940 C   0  0  0  0  0  0  0  0  0  0  0  0
    7.9522   -4.4794   25.9764 C   0  0  0  0  0  0  0  0  0  0  0  0
    8.0950   -0.7700   20.8440 C   0  0  0  0  0  0  0  0  0  0  0  0
   10.7220    0.6590   23.1850 C   0  0  0  0  0  0  0  0  0  0  0  0
    6.7100    0.3850   17.8100 N   0  0  0  0  0  0  0  0  0  0  0  0
    9.5820   -0.1080   22.7000 N   0  0  0  0  0  0  0  0  0  0  0  0
    9.2950    1.3000   20.9480 O   0  0  0  0  0  0  0  0  0  0  0  0
   15.1613   -2.3527   23.5555 H   0  0  0  0  0  0  0  0  0  0  0  0
    3.6210    2.0713   21.6574 H   0  0  0  0  0  0  0  0  0  0  0  0
   14.8297   -0.4373   25.0971 H   0  0  0  0  0  0  0  0  0  0  0  0
   13.4443   -2.8780   21.8427 H   0  0  0  0  0  0  0  0  0  0  0  0
    2.9855    2.6924   19.3616 H   0  0  0  0  0  0  0  0  0  0  0  0
    5.6668    0.7411   22.0808 H   0  0  0  0  0  0  0  0  0  0  0  0
   12.7899    0.9506   24.9315 H   0  0  0  0  0  0  0  0  0  0  0  0
   11.4013   -1.4963   21.6690 H   0  0  0  0  0  0  0  0  0  0  0  0
    9.5403   -4.5627   23.7809 H   0  0  0  0  0  0  0  0  0  0  0  0
    7.1911   -1.8848   26.1904 H   0  0  0  0  0  0  0  0  0  0  0  0
    4.3788    2.0100   17.4223 H   0  0  0  0  0  0  0  0  0  0  0  0
   10.2682   -2.6746   22.3865 H   0  0  0  0  0  0  0  0  0  0  0  0
    7.8684   -0.0022   24.7594 H   0  0  0  0  0  0  0  0  0  0  0  0
    8.4186   -0.8125   18.0399 H   0  0  0  0  0  0  0  0  0  0  0  0
    8.6668   -4.5891   26.8013 H   0  0  0  0  0  0  0  0  0  0  0  0
    6.9513   -4.3276   26.4010 H   0  0  0  0  0  0  0  0  0  0  0  0
    7.9196   -5.4231   25.4163 H   0  0  0  0  0  0  0  0  0  0  0  0
    7.4761   -1.2062   21.6405 H   0  0  0  0  0  0  0  0  0  0  0  0
    8.7071   -1.5784   20.4200 H   0  0  0  0  0  0  0  0  0  0  0  0
   10.4561    1.0772   24.1620 H   0  0  0  0  0  0  0  0  0  0  0  0
   10.8743    1.5008   22.5014 H   0  0  0  0  0  0  0  0  0  0  0  0
    6.6719    0.4860   16.8043 H   0  0  0  0  0  0  0  0  0  0  0  0
  1  3  1  0  0  0  0
  1  4  2  0  0  0  0
  2  5  1  0  0  0  0
  2  6  2  0  0  0  0
  3  7  2  0  0  0  0
  4  8  1  0  0  0  0
  5 11  2  0  0  0  0
  6 15  1  0  0  0  0
  7 17  1  0  0  0  0
  8 17  2  0  0  0  0
  9 12  2  0  0  0  0
  9 16  1  0  0  0  0
 10 13  1  0  0  0  0
 10 16  2  0  0  0  0
 11 19  1  0  0  0  0
 12 20  1  0  0  0  0
 13 20  2  0  0  0  0
 14 18  2  0  0  0  0
 14 25  1  0  0  0  0
 15 18  1  0  0  0  0
 15 19  2  0  0  0  0
 16 22  1  0  0  0  0
 17 24  1  0  0  0  0
 18 23  1  0  0  0  0
 19 25  1  0  0  0  0
 20 26  1  0  0  0  0
 21 23  1  0  0  0  0
 21 26  1  0  0  0  0
 21 27  2  0  0  0  0
 24 26  1  0  0  0  0
  1 28  1  0  0  0  0
  2 29  1  0  0  0  0
  3 30  1  0  0  0  0
  4 31  1  0  0  0  0
  5 32  1  0  0  0  0
  6 33  1  0  0  0  0
  7 34  1  0  0  0  0
  8 35  1  0  0  0  0
  9 36  1  0  0  0  0
 10 37  1  0  0  0  0
 11 38  1  0  0  0  0
 12 39  1  0  0  0  0
 13 40  1  0  0  0  0
 14 41  1  0  0  0  0
 22 42  1  0  0  0  0
 22 43  1  0  0  0  0
 22 44  1  0  0  0  0
 23 45  1  0  0  0  0
 23 46  1  0  0  0  0
 24 47  1  0  0  0  0
 24 48  1  0  0  0  0
 25 49  1  0  0  0  0
M  END
> <clash_score>
0

> <docking_score>
-9.489787101745605

> <overlap_score>
0.9021971225738525

$$$$
BENZO_460_1
  -OEChem-08222022473D

 46 49  0     0  0  0  0  0  0999 V2000
    4.2460    1.7520   20.8250 C   0  0  0  0  0  0  0  0  0  0  0  0
    3.8860    2.1050   19.5250 C   0  0  0  0  0  0  0  0  0  0  0  0
    5.3890    1.0010   21.0690 C   0  0  0  0  0  0  0  0  0  0  0  0
    9.1890   -3.5540   24.0140 C   0  0  0  0  0  0  0  0  0  0  0  0
    7.8700   -2.0610   25.3550 C   0  0  0  0  0  0  0  0  0  0  0  0
    4.6610    1.7170   18.4380 C   0  0  0  0  0  0  0  0  0  0  0  0
    9.5890   -2.4950   23.2210 C   0  0  0  0  0  0  0  0  0  0  0  0
    8.2550   -1.0010   24.5520 C   0  0  0  0  0  0  0  0  0  0  0  0
   12.6785   -0.3936   24.5018 C   0  0  0  0  0  0  0  0  0  0  0  0
    7.5840   -0.2700   18.5160 C   0  0  0  0  0  0  0  0  0  0  0  0
   13.7775   -1.2037   24.3186 C   0  0  0  0  0  0  0  0  0  0  0  0
   12.5401   -0.8378   22.2246 C   0  0  0  0  0  0  0  0  0  0  0  0
    6.1460    0.6070   19.9750 C   0  0  0  0  0  0  0  0  0  0  0  0
    8.3450   -3.3440   25.0980 C   0  0  0  0  0  0  0  0  0  0  0  0
   11.9616   -0.1817   23.2889 C   0  0  0  0  0  0  0  0  0  0  0  0
    7.2710   -0.1460   19.8310 C   0  0  0  0  0  0  0  0  0  0  0  0
    5.7970    0.9500   18.6730 C   0  0  0  0  0  0  0  0  0  0  0  0
    9.1280   -1.2090   23.4870 C   0  0  0  0  0  0  0  0  0  0  0  0
    9.0430    0.2380   21.4940 C   0  0  0  0  0  0  0  0  0  0  0  0
    7.9522   -4.4794   25.9764 C   0  0  0  0  0  0  0  0  0  0  0  0
    8.0950   -0.7700   20.8440 C   0  0  0  0  0  0  0  0  0  0  0  0
   10.7220    0.6590   23.1850 C   0  0  0  0  0  0  0  0  0  0  0  0
    6.7100    0.3850   17.8100 N   0  0  0  0  0  0  0  0  0  0  0  0
    9.5820   -0.1080   22.7000 N   0  0  0  0  0  0  0  0  0  0  0  0
    9.2950    1.3000   20.9480 O   0  0  0  0  0  0  0  0  0  0  0  0
   13.9416   -1.7050   22.6894 S   0  0  0  0  0  0  0  0  0  0  0  0
    3.6210    2.0713   21.6574 H   0  0  0  0  0  0  0  0  0  0  0  0
    2.9855    2.6924   19.3616 H   0  0  0  0  0  0  0  0  0  0  0  0
    5.6668    0.7411   22.0808 H   0  0  0  0  0  0  0  0  0  0  0  0
    9.5403   -4.5627   23.7809 H   0  0  0  0  0  0  0  0  0  0  0  0
    7.1911   -1.8848   26.1904 H   0  0  0  0  0  0  0  0  0  0  0  0
    4.3788    2.0100   17.4223 H   0  0  0  0  0  0  0  0  0  0  0  0
   10.2682   -2.6746   22.3865 H   0  0  0  0  0  0  0  0  0  0  0  0
    7.8684   -0.0022   24.7594 H   0  0  0  0  0  0  0  0  0  0  0  0
   12.4058    0.0253   25.4623 H   0  0  0  0  0  0  0  0  0  0  0  0
    8.4186   -0.8125   18.0399 H   0  0  0  0  0  0  0  0  0  0  0  0
   14.4923   -1.5246   25.0631 H   0  0  0  0  0  0  0  0  0  0  0  0
   12.2108   -0.8511   21.1948 H   0  0  0  0  0  0  0  0  0  0  0  0
    8.6668   -4.5891   26.8013 H   0  0  0  0  0  0  0  0  0  0  0  0
    6.9513   -4.3276   26.4010 H   0  0  0  0  0  0  0  0  0  0  0  0
    7.9196   -5.4231   25.4163 H   0  0  0  0  0  0  0  0  0  0  0  0
    7.4761   -1.2062   21.6405 H   0  0  0  0  0  0  0  0  0  0  0  0
    8.7071   -1.5784   20.4200 H   0  0  0  0  0  0  0  0  0  0  0  0
   10.4561    1.0772   24.1620 H   0  0  0  0  0  0  0  0  0  0  0  0
   10.8743    1.5008   22.5014 H   0  0  0  0  0  0  0  0  0  0  0  0
    6.6719    0.4860   16.8043 H   0  0  0  0  0  0  0  0  0  0  0  0
  1  2  1  0  0  0  0
  1  3  2  0  0  0  0
  2  6  2  0  0  0  0
  3 13  1  0  0  0  0
  4  7  2  0  0  0  0
  4 14  1  0  0  0  0
  5  8  1  0  0  0  0
  5 14  2  0  0  0  0
  6 17  1  0  0  0  0
  7 18  1  0  0  0  0
  8 18  2  0  0  0  0
  9 11  2  0  0  0  0
  9 15  1  0  0  0  0
 10 16  2  0  0  0  0
 10 23  1  0  0  0  0
 11 26  1  0  0  0  0
 12 15  2  0  0  0  0
 12 26  1  0  0  0  0
 13 16  1  0  0  0  0
 13 17  2  0  0  0  0
 14 20  1  0  0  0  0
 15 22  1  0  0  0  0
 16 21  1  0  0  0  0
 17 23  1  0  0  0  0
 18 24  1  0  0  0  0
 19 21  1  0  0  0  0
 19 24  1  0  0  0  0
 19 25  2  0  0  0  0
 22 24  1  0  0  0  0
  1 27  1  0  0  0  0
  2 28  1  0  0  0  0
  3 29  1  0  0  0  0
  4 30  1  0  0  0  0
  5 31  1  0  0  0  0
  6 32  1  0  0  0  0
  7 33  1  0  0  0  0
  8 34  1  0  0  0  0
  9 35  1  0  0  0  0
 10 36  1  0  0  0  0
 11 37  1  0  0  0  0
 12 38  1  0  0  0  0
 20 39  1  0  0  0  0
 20 40  1  0  0  0  0
 20 41  1  0  0  0  0
 21 42  1  0  0  0  0
 21 43  1  0  0  0  0
 22 44  1  0  0  0  0
 22 45  1  0  0  0  0
 23 46  1  0  0  0  0
M  END
> <clash_score>
0

> <docking_score>
-8.930464744567871

> <overlap_score>
0.8884325623512268

$$$$
BENZO_459_1
  -OEChem-08222022473D

 61 65  0     0  0  0  0  0  0999 V2000
    4.2460    1.7520   20.8250 C   0  0  0  0  0  0  0  0  0  0  0  0
    3.8860    2.1050   19.5250 C   0  0  0  0  0  0  0  0  0  0  0  0
    5.3890    1.0010   21.0690 C   0  0  0  0  0  0  0  0  0  0  0  0
    4.6610    1.7170   18.4380 C   0  0  0  0  0  0  0  0  0  0  0  0
    9.1890   -3.5540   24.0140 C   0  0  0  0  0  0  0  0  0  0  0  0
    7.8700   -2.0610   25.3550 C   0  0  0  0  0  0  0  0  0  0  0  0
    9.5890   -2.4950   23.2210 C   0  0  0  0  0  0  0  0  0  0  0  0
    8.2550   -1.0010   24.5520 C   0  0  0  0  0  0  0  0  0  0  0  0
   13.3010    0.2819   23.3762 C   0  0  0  0  0  0  0  0  0  0  0  0
    7.5840   -0.2700   18.5160 C   0  0  0  0  0  0  0  0  0  0  0  0
   12.2469   -1.0164   21.9485 C   0  0  0  0  0  0  0  0  0  0  0  0
    6.1460    0.6070   19.9750 C   0  0  0  0  0  0  0  0  0  0  0  0
   12.0277    0.0001   22.8458 C   0  0  0  0  0  0  0  0  0  0  0  0
    7.2710   -0.1460   19.8310 C   0  0  0  0  0  0  0  0  0  0  0  0
    5.7970    0.9500   18.6730 C   0  0  0  0  0  0  0  0  0  0  0  0
    8.3450   -3.3440   25.0980 C   0  0  0  0  0  0  0  0  0  0  0  0
    9.1280   -1.2090   23.4870 C   0  0  0  0  0  0  0  0  0  0  0  0
    9.0430    0.2380   21.4940 C   0  0  0  0  0  0  0  0  0  0  0  0
    7.5748   -4.8280   28.7278 C   0  0  0  0  0  0  0  0  0  0  0  0
    8.9776   -4.7555   28.1204 C   0  0  0  0  0  0  0  0  0  0  0  0
    6.5554   -4.0713   27.8732 C   0  0  0  0  0  0  0  0  0  0  0  0
    8.9620   -5.1961   26.6568 C   0  0  0  0  0  0  0  0  0  0  0  0
    6.6009   -4.5253   26.4110 C   0  0  0  0  0  0  0  0  0  0  0  0
   14.2950   -2.2646   21.2232 C   0  0  0  0  0  0  0  0  0  0  0  0
    8.0950   -0.7700   20.8440 C   0  0  0  0  0  0  0  0  0  0  0  0
   10.7220    0.6590   23.1850 C   0  0  0  0  0  0  0  0  0  0  0  0
   14.2580   -0.4932   22.8591 N   0  0  0  0  0  0  0  0  0  0  0  0
    6.7100    0.3850   17.8100 N   0  0  0  0  0  0  0  0  0  0  0  0
   13.5858   -1.2720   21.9945 N   0  0  0  0  0  0  0  0  0  0  0  0
    7.9770   -4.4029   25.9162 N   0  0  0  0  0  0  0  0  0  0  0  0
    9.5820   -0.1080   22.7000 N   0  0  0  0  0  0  0  0  0  0  0  0
    9.2950    1.3000   20.9480 O   0  0  0  0  0  0  0  0  0  0  0  0
    3.6210    2.0713   21.6574 H   0  0  0  0  0  0  0  0  0  0  0  0
    2.9855    2.6924   19.3616 H   0  0  0  0  0  0  0  0  0  0  0  0
    5.6668    0.7411   22.0808 H   0  0  0  0  0  0  0  0  0  0  0  0
    4.3788    2.0100   17.4223 H   0  0  0  0  0  0  0  0  0  0  0  0
    9.5426   -4.5618   23.7797 H   0  0  0  0  0  0  0  0  0  0  0  0
    7.1914   -1.8824   26.1903 H   0  0  0  0  0  0  0  0  0  0  0  0
   10.2669   -2.6745   22.3854 H   0  0  0  0  0  0  0  0  0  0  0  0
    7.8690   -0.0020   24.7587 H   0  0  0  0  0  0  0  0  0  0  0  0
   13.5736    1.0185   24.1187 H   0  0  0  0  0  0  0  0  0  0  0  0
    8.4186   -0.8125   18.0399 H   0  0  0  0  0  0  0  0  0  0  0  0
   11.5805   -1.5669   21.2983 H   0  0  0  0  0  0  0  0  0  0  0  0
    7.2681   -5.8807   28.8239 H   0  0  0  0  0  0  0  0  0  0  0  0
    7.5891   -4.4101   29.7448 H   0  0  0  0  0  0  0  0  0  0  0  0
    9.3554   -3.7320   28.1920 H   0  0  0  0  0  0  0  0  0  0  0  0
    9.6558   -5.3943   28.6900 H   0  0  0  0  0  0  0  0  0  0  0  0
    5.5496   -4.2322   28.2751 H   0  0  0  0  0  0  0  0  0  0  0  0
    6.7545   -2.9948   27.9293 H   0  0  0  0  0  0  0  0  0  0  0  0
    9.9612   -5.0560   26.2363 H   0  0  0  0  0  0  0  0  0  0  0  0
    8.7097   -6.2583   26.5922 H   0  0  0  0  0  0  0  0  0  0  0  0
    6.2649   -5.5600   26.3335 H   0  0  0  0  0  0  0  0  0  0  0  0
    5.9271   -3.8964   25.8283 H   0  0  0  0  0  0  0  0  0  0  0  0
   14.6200   -1.7975   20.2898 H   0  0  0  0  0  0  0  0  0  0  0  0
   15.1576   -2.6206   21.7932 H   0  0  0  0  0  0  0  0  0  0  0  0
   13.6285   -3.1071   21.0185 H   0  0  0  0  0  0  0  0  0  0  0  0
    7.4659   -1.2025   21.6292 H   0  0  0  0  0  0  0  0  0  0  0  0
    8.6969   -1.5747   20.4087 H   0  0  0  0  0  0  0  0  0  0  0  0
   10.6163    0.7710   24.2696 H   0  0  0  0  0  0  0  0  0  0  0  0
   10.6620    1.6610   22.7472 H   0  0  0  0  0  0  0  0  0  0  0  0
    6.6719    0.4860   16.8043 H   0  0  0  0  0  0  0  0  0  0  0  0
  1  2  1  0  0  0  0
  1  3  2  0  0  0  0
  2  4  2  0  0  0  0
  3 12  1  0  0  0  0
  4 15  1  0  0  0  0
  5  7  2  0  0  0  0
  5 16  1  0  0  0  0
  6  8  1  0  0  0  0
  6 16  2  0  0  0  0
  7 17  1  0  0  0  0
  8 17  2  0  0  0  0
  9 13  1  0  0  0  0
  9 27  2  0  0  0  0
 10 14  2  0  0  0  0
 10 28  1  0  0  0  0
 11 13  2  0  0  0  0
 11 29  1  0  0  0  0
 12 14  1  0  0  0  0
 12 15  2  0  0  0  0
 13 26  1  0  0  0  0
 14 25  1  0  0  0  0
 15 28  1  0  0  0  0
 16 30  1  0  0  0  0
 17 31  1  0  0  0  0
 18 25  1  0  0  0  0
 18 31  1  0  0  0  0
 18 32  2  0  0  0  0
 19 20  1  0  0  0  0
 19 21  1  0  0  0  0
 20 22  1  0  0  0  0
 21 23  1  0  0  0  0
 22 30  1  0  0  0  0
 23 30  1  0  0  0  0
 24 29  1  0  0  0  0
 26 31  1  0  0  0  0
 27 29  1  0  0  0  0
  1 33  1  0  0  0  0
  2 34  1  0  0  0  0
  3 35  1  0  0  0  0
  4 36  1  0  0  0  0
  5 37  1  0  0  0  0
  6 38  1  0  0  0  0
  7 39  1  0  0  0  0
  8 40  1  0  0  0  0
  9 41  1  0  0  0  0
 10 42  1  0  0  0  0
 11 43  1  0  0  0  0
 19 44  1  0  0  0  0
 19 45  1  0  0  0  0
 20 46  1  0  0  0  0
 20 47  1  0  0  0  0
 21 48  1  0  0  0  0
 21 49  1  0  0  0  0
 22 50  1  0  0  0  0
 22 51  1  0  0  0  0
 23 52  1  0  0  0  0
 23 53  1  0  0  0  0
 24 54  1  0  0  0  0
 24 55  1  0  0  0  0
 24 56  1  0  0  0  0
 25 57  1  0  0  0  0
 25 58  1  0  0  0  0
 26 59  1  0  0  0  0
 26 60  1  0  0  0  0
 28 61  1  0  0  0  0
M  END
> <clash_score>
0

> <docking_score>
-9.834851264953613

> <overlap_score>
0.9690293669700623

$$$$
BENZO_458_1
  -OEChem-08222022473D

 61 65  0     0  0  0  0  0  0999 V2000
    4.2460    1.7520   20.8250 C   0  0  0  0  0  0  0  0  0  0  0  0
    3.8860    2.1050   19.5250 C   0  0  0  0  0  0  0  0  0  0  0  0
   13.7501   -1.1157   24.6177 C   0  0  0  0  0  0  0  0  0  0  0  0
    5.3890    1.0010   21.0690 C   0  0  0  0  0  0  0  0  0  0  0  0
   12.5991   -0.3338   24.5202 C   0  0  0  0  0  0  0  0  0  0  0  0
    4.6610    1.7170   18.4380 C   0  0  0  0  0  0  0  0  0  0  0  0
    9.1890   -3.5540   24.0140 C   0  0  0  0  0  0  0  0  0  0  0  0
    7.8700   -2.0610   25.3550 C   0  0  0  0  0  0  0  0  0  0  0  0
    9.5890   -2.4950   23.2210 C   0  0  0  0  0  0  0  0  0  0  0  0
    8.2550   -1.0010   24.5520 C   0  0  0  0  0  0  0  0  0  0  0  0
   14.2636   -1.7454   23.4838 C   0  0  0  0  0  0  0  0  0  0  0  0
   12.4750   -0.8115   22.1551 C   0  0  0  0  0  0  0  0  0  0  0  0
    7.5840   -0.2700   18.5160 C   0  0  0  0  0  0  0  0  0  0  0  0
    6.1460    0.6070   19.9750 C   0  0  0  0  0  0  0  0  0  0  0  0
   11.9616   -0.1817   23.2889 C   0  0  0  0  0  0  0  0  0  0  0  0
    7.2710   -0.1460   19.8310 C   0  0  0  0  0  0  0  0  0  0  0  0
    5.7970    0.9500   18.6730 C   0  0  0  0  0  0  0  0  0  0  0  0
    8.3450   -3.3440   25.0980 C   0  0  0  0  0  0  0  0  0  0  0  0
    9.1280   -1.2090   23.4870 C   0  0  0  0  0  0  0  0  0  0  0  0
   13.6261   -1.5933   22.2526 C   0  0  0  0  0  0  0  0  0  0  0  0
    9.0430    0.2380   21.4940 C   0  0  0  0  0  0  0  0  0  0  0  0
    7.5748   -4.8280   28.7278 C   0  0  0  0  0  0  0  0  0  0  0  0
    8.9776   -4.7555   28.1204 C   0  0  0  0  0  0  0  0  0  0  0  0
    6.5554   -4.0713   27.8732 C   0  0  0  0  0  0  0  0  0  0  0  0
    8.9620   -5.1961   26.6568 C   0  0  0  0  0  0  0  0  0  0  0  0
    6.6009   -4.5253   26.4110 C   0  0  0  0  0  0  0  0  0  0  0  0
    8.0950   -0.7700   20.8440 C   0  0  0  0  0  0  0  0  0  0  0  0
   10.7220    0.6590   23.1850 C   0  0  0  0  0  0  0  0  0  0  0  0
    6.7100    0.3850   17.8100 N   0  0  0  0  0  0  0  0  0  0  0  0
    7.9770   -4.4029   25.9162 N   0  0  0  0  0  0  0  0  0  0  0  0
    9.5820   -0.1080   22.7000 N   0  0  0  0  0  0  0  0  0  0  0  0
    9.2950    1.3000   20.9480 O   0  0  0  0  0  0  0  0  0  0  0  0
   14.2594   -2.3714   20.8543 Cl  0  0  0  0  0  0  0  0  0  0  0  0
    3.6210    2.0713   21.6574 H   0  0  0  0  0  0  0  0  0  0  0  0
    2.9855    2.6924   19.3616 H   0  0  0  0  0  0  0  0  0  0  0  0
   14.2462   -1.2340   25.5766 H   0  0  0  0  0  0  0  0  0  0  0  0
    5.6668    0.7411   22.0808 H   0  0  0  0  0  0  0  0  0  0  0  0
   12.2060    0.1530   25.4088 H   0  0  0  0  0  0  0  0  0  0  0  0
    4.3788    2.0100   17.4223 H   0  0  0  0  0  0  0  0  0  0  0  0
    9.5426   -4.5618   23.7797 H   0  0  0  0  0  0  0  0  0  0  0  0
    7.1914   -1.8824   26.1903 H   0  0  0  0  0  0  0  0  0  0  0  0
   10.2669   -2.6745   22.3854 H   0  0  0  0  0  0  0  0  0  0  0  0
    7.8690   -0.0020   24.7587 H   0  0  0  0  0  0  0  0  0  0  0  0
   15.1613   -2.3520   23.5747 H   0  0  0  0  0  0  0  0  0  0  0  0
   11.9745   -0.6893   21.1973 H   0  0  0  0  0  0  0  0  0  0  0  0
    8.4186   -0.8125   18.0399 H   0  0  0  0  0  0  0  0  0  0  0  0
    7.2681   -5.8807   28.8239 H   0  0  0  0  0  0  0  0  0  0  0  0
    7.5891   -4.4101   29.7448 H   0  0  0  0  0  0  0  0  0  0  0  0
    9.3554   -3.7320   28.1920 H   0  0  0  0  0  0  0  0  0  0  0  0
    9.6558   -5.3943   28.6900 H   0  0  0  0  0  0  0  0  0  0  0  0
    5.5496   -4.2322   28.2751 H   0  0  0  0  0  0  0  0  0  0  0  0
    6.7545   -2.9948   27.9293 H   0  0  0  0  0  0  0  0  0  0  0  0
    9.9612   -5.0560   26.2363 H   0  0  0  0  0  0  0  0  0  0  0  0
    8.7097   -6.2583   26.5922 H   0  0  0  0  0  0  0  0  0  0  0  0
    6.2649   -5.5600   26.3335 H   0  0  0  0  0  0  0  0  0  0  0  0
    5.9271   -3.8964   25.8283 H   0  0  0  0  0  0  0  0  0  0  0  0
    7.4659   -1.2025   21.6292 H   0  0  0  0  0  0  0  0  0  0  0  0
    8.6969   -1.5747   20.4087 H   0  0  0  0  0  0  0  0  0  0  0  0
   10.4561    1.0772   24.1620 H   0  0  0  0  0  0  0  0  0  0  0  0
   10.8743    1.5008   22.5014 H   0  0  0  0  0  0  0  0  0  0  0  0
    6.6719    0.4860   16.8043 H   0  0  0  0  0  0  0  0  0  0  0  0
  1  2  1  0  0  0  0
  1  4  2  0  0  0  0
  2  6  2  0  0  0  0
  3  5  2  0  0  0  0
  3 11  1  0  0  0  0
  4 14  1  0  0  0  0
  5 15  1  0  0  0  0
  6 17  1  0  0  0  0
  7  9  2  0  0  0  0
  7 18  1  0  0  0  0
  8 10  1  0  0  0  0
  8 18  2  0  0  0  0
  9 19  1  0  0  0  0
 10 19  2  0  0  0  0
 11 20  2  0  0  0  0
 12 15  2  0  0  0  0
 12 20  1  0  0  0  0
 13 16  2  0  0  0  0
 13 29  1  0  0  0  0
 14 16  1  0  0  0  0
 14 17  2  0  0  0  0
 15 28  1  0  0  0  0
 16 27  1  0  0  0  0
 17 29  1  0  0  0  0
 18 30  1  0  0  0  0
 19 31  1  0  0  0  0
 20 33  1  0  0  0  0
 21 27  1  0  0  0  0
 21 31  1  0  0  0  0
 21 32  2  0  0  0  0
 22 23  1  0  0  0  0
 22 24  1  0  0  0  0
 23 25  1  0  0  0  0
 24 26  1  0  0  0  0
 25 30  1  0  0  0  0
 26 30  1  0  0  0  0
 28 31  1  0  0  0  0
  1 34  1  0  0  0  0
  2 35  1  0  0  0  0
  3 36  1  0  0  0  0
  4 37  1  0  0  0  0
  5 38  1  0  0  0  0
  6 39  1  0  0  0  0
  7 40  1  0  0  0  0
  8 41  1  0  0  0  0
  9 42  1  0  0  0  0
 10 43  1  0  0  0  0
 11 44  1  0  0  0  0
 12 45  1  0  0  0  0
 13 46  1  0  0  0  0
 22 47  1  0  0  0  0
 22 48  1  0  0  0  0
 23 49  1  0  0  0  0
 23 50  1  0  0  0  0
 24 51  1  0  0  0  0
 24 52  1  0  0  0  0
 25 53  1  0  0  0  0
 25 54  1  0  0  0  0
 26 55  1  0  0  0  0
 26 56  1  0  0  0  0
 27 57  1  0  0  0  0
 27 58  1  0  0  0  0
 28 59  1  0  0  0  0
 28 60  1  0  0  0  0
 29 61  1  0  0  0  0
M  END
> <clash_score>
0

> <docking_score>
-9.344770431518555

> <overlap_score>
0.9978207945823669

$$$$
BENZO_465_1
  -OEChem-08222022483D

 50 53  0     0  0  0  0  0  0999 V2000
   14.2641   -1.7450   23.4813 C   0  0  0  0  0  0  0  0  0  0  0  0
    4.2460    1.7520   20.8250 C   0  0  0  0  0  0  0  0  0  0  0  0
   14.0779   -0.6681   24.3480 C   0  0  0  0  0  0  0  0  0  0  0  0
   13.2991   -2.0403   22.5184 C   0  0  0  0  0  0  0  0  0  0  0  0
    3.8860    2.1050   19.5250 C   0  0  0  0  0  0  0  0  0  0  0  0
    5.3890    1.0010   21.0690 C   0  0  0  0  0  0  0  0  0  0  0  0
   12.9266    0.1135   24.2518 C   0  0  0  0  0  0  0  0  0  0  0  0
   12.1478   -1.2587   22.4222 C   0  0  0  0  0  0  0  0  0  0  0  0
    4.6610    1.7170   18.4380 C   0  0  0  0  0  0  0  0  0  0  0  0
    9.5890   -2.4950   23.2210 C   0  0  0  0  0  0  0  0  0  0  0  0
    8.2550   -1.0010   24.5520 C   0  0  0  0  0  0  0  0  0  0  0  0
    9.1890   -3.5540   24.0140 C   0  0  0  0  0  0  0  0  0  0  0  0
    7.8700   -2.0610   25.3550 C   0  0  0  0  0  0  0  0  0  0  0  0
    7.5840   -0.2700   18.5160 C   0  0  0  0  0  0  0  0  0  0  0  0
    6.1460    0.6070   19.9750 C   0  0  0  0  0  0  0  0  0  0  0  0
   11.9616   -0.1817   23.2889 C   0  0  0  0  0  0  0  0  0  0  0  0
    7.2710   -0.1460   19.8310 C   0  0  0  0  0  0  0  0  0  0  0  0
    5.7970    0.9500   18.6730 C   0  0  0  0  0  0  0  0  0  0  0  0
    9.1280   -1.2090   23.4870 C   0  0  0  0  0  0  0  0  0  0  0  0
    8.3450   -3.3440   25.0980 C   0  0  0  0  0  0  0  0  0  0  0  0
    9.0430    0.2380   21.4940 C   0  0  0  0  0  0  0  0  0  0  0  0
    8.5124   -5.6657   25.5743 C   0  0  0  0  0  0  0  0  0  0  0  0
    8.0950   -0.7700   20.8440 C   0  0  0  0  0  0  0  0  0  0  0  0
   10.7220    0.6590   23.1850 C   0  0  0  0  0  0  0  0  0  0  0  0
    6.7100    0.3850   17.8100 N   0  0  0  0  0  0  0  0  0  0  0  0
    9.5820   -0.1080   22.7000 N   0  0  0  0  0  0  0  0  0  0  0  0
    9.2950    1.3000   20.9480 O   0  0  0  0  0  0  0  0  0  0  0  0
    7.9864   -4.3799   25.8996 O   0  0  0  0  0  0  0  0  0  0  0  0
   15.1613   -2.3527   23.5555 H   0  0  0  0  0  0  0  0  0  0  0  0
    3.6210    2.0713   21.6574 H   0  0  0  0  0  0  0  0  0  0  0  0
   14.8297   -0.4373   25.0971 H   0  0  0  0  0  0  0  0  0  0  0  0
   13.4443   -2.8780   21.8427 H   0  0  0  0  0  0  0  0  0  0  0  0
    2.9855    2.6924   19.3616 H   0  0  0  0  0  0  0  0  0  0  0  0
    5.6668    0.7411   22.0808 H   0  0  0  0  0  0  0  0  0  0  0  0
   12.7899    0.9506   24.9315 H   0  0  0  0  0  0  0  0  0  0  0  0
   11.4013   -1.4963   21.6690 H   0  0  0  0  0  0  0  0  0  0  0  0
    4.3788    2.0100   17.4223 H   0  0  0  0  0  0  0  0  0  0  0  0
   10.2678   -2.6746   22.3862 H   0  0  0  0  0  0  0  0  0  0  0  0
    7.8691   -0.0023   24.7606 H   0  0  0  0  0  0  0  0  0  0  0  0
    9.5404   -4.5633   23.7846 H   0  0  0  0  0  0  0  0  0  0  0  0
    7.1920   -1.8875   26.1914 H   0  0  0  0  0  0  0  0  0  0  0  0
    8.4186   -0.8125   18.0399 H   0  0  0  0  0  0  0  0  0  0  0  0
    8.1469   -6.4023   26.2939 H   0  0  0  0  0  0  0  0  0  0  0  0
    9.6045   -5.6298   25.5962 H   0  0  0  0  0  0  0  0  0  0  0  0
    8.1789   -5.9428   24.5715 H   0  0  0  0  0  0  0  0  0  0  0  0
    7.4761   -1.2062   21.6405 H   0  0  0  0  0  0  0  0  0  0  0  0
    8.7071   -1.5784   20.4200 H   0  0  0  0  0  0  0  0  0  0  0  0
   10.4561    1.0772   24.1620 H   0  0  0  0  0  0  0  0  0  0  0  0
   10.8743    1.5008   22.5014 H   0  0  0  0  0  0  0  0  0  0  0  0
    6.6719    0.4860   16.8043 H   0  0  0  0  0  0  0  0  0  0  0  0
  1  3  1  0  0  0  0
  1  4  2  0  0  0  0
  2  5  1  0  0  0  0
  2  6  2  0  0  0  0
  3  7  2  0  0  0  0
  4  8  1  0  0  0  0
  5  9  2  0  0  0  0
  6 15  1  0  0  0  0
  7 16  1  0  0  0  0
  8 16  2  0  0  0  0
  9 18  1  0  0  0  0
 10 12  2  0  0  0  0
 10 19  1  0  0  0  0
 11 13  1  0  0  0  0
 11 19  2  0  0  0  0
 12 20  1  0  0  0  0
 13 20  2  0  0  0  0
 14 17  2  0  0  0  0
 14 25  1  0  0  0  0
 15 17  1  0  0  0  0
 15 18  2  0  0  0  0
 16 24  1  0  0  0  0
 17 23  1  0  0  0  0
 18 25  1  0  0  0  0
 19 26  1  0  0  0  0
 20 28  1  0  0  0  0
 21 23  1  0  0  0  0
 21 26  1  0  0  0  0
 21 27  2  0  0  0  0
 22 28  1  0  0  0  0
 24 26  1  0  0  0  0
  1 29  1  0  0  0  0
  2 30  1  0  0  0  0
  3 31  1  0  0  0  0
  4 32  1  0  0  0  0
  5 33  1  0  0  0  0
  6 34  1  0  0  0  0
  7 35  1  0  0  0  0
  8 36  1  0  0  0  0
  9 37  1  0  0  0  0
 10 38  1  0  0  0  0
 11 39  1  0  0  0  0
 12 40  1  0  0  0  0
 13 41  1  0  0  0  0
 14 42  1  0  0  0  0
 22 43  1  0  0  0  0
 22 44  1  0  0  0  0
 22 45  1  0  0  0  0
 23 46  1  0  0  0  0
 23 47  1  0  0  0  0
 24 48  1  0  0  0  0
 24 49  1  0  0  0  0
 25 50  1  0  0  0  0
M  END
> <clash_score>
0

> <docking_score>
-9.60998249053955

> <overlap_score>
0.915463387966156

$$$$
BENZO_462_1
  -OEChem-08222022483D

 49 52  0     0  0  0  0  0  0999 V2000
    4.2460    1.7520   20.8250 C   0  0  0  0  0  0  0  0  0  0  0  0
    3.8860    2.1050   19.5250 C   0  0  0  0  0  0  0  0  0  0  0  0
   13.7501   -1.1157   24.6176 C   0  0  0  0  0  0  0  0  0  0  0  0
    5.3890    1.0010   21.0690 C   0  0  0  0  0  0  0  0  0  0  0  0
   12.5991   -0.3339   24.5202 C   0  0  0  0  0  0  0  0  0  0  0  0
    9.1890   -3.5540   24.0140 C   0  0  0  0  0  0  0  0  0  0  0  0
    7.8700   -2.0610   25.3550 C   0  0  0  0  0  0  0  0  0  0  0  0
    4.6610    1.7170   18.4380 C   0  0  0  0  0  0  0  0  0  0  0  0
    9.5890   -2.4950   23.2210 C   0  0  0  0  0  0  0  0  0  0  0  0
    8.2550   -1.0010   24.5520 C   0  0  0  0  0  0  0  0  0  0  0  0
   14.2636   -1.7454   23.4838 C   0  0  0  0  0  0  0  0  0  0  0  0
   12.4750   -0.8115   22.1551 C   0  0  0  0  0  0  0  0  0  0  0  0
    7.5840   -0.2700   18.5160 C   0  0  0  0  0  0  0  0  0  0  0  0
    6.1460    0.6070   19.9750 C   0  0  0  0  0  0  0  0  0  0  0  0
    8.3450   -3.3440   25.0980 C   0  0  0  0  0  0  0  0  0  0  0  0
   11.9616   -0.1817   23.2889 C   0  0  0  0  0  0  0  0  0  0  0  0
    7.2710   -0.1460   19.8310 C   0  0  0  0  0  0  0  0  0  0  0  0
    5.7970    0.9500   18.6730 C   0  0  0  0  0  0  0  0  0  0  0  0
    9.1280   -1.2090   23.4870 C   0  0  0  0  0  0  0  0  0  0  0  0
   13.6260   -1.5933   22.2526 C   0  0  0  0  0  0  0  0  0  0  0  0
    9.0430    0.2380   21.4940 C   0  0  0  0  0  0  0  0  0  0  0  0
    7.9522   -4.4794   25.9764 C   0  0  0  0  0  0  0  0  0  0  0  0
    8.0950   -0.7700   20.8440 C   0  0  0  0  0  0  0  0  0  0  0  0
   10.7220    0.6590   23.1850 C   0  0  0  0  0  0  0  0  0  0  0  0
    6.7100    0.3850   17.8100 N   0  0  0  0  0  0  0  0  0  0  0  0
    9.5820   -0.1080   22.7000 N   0  0  0  0  0  0  0  0  0  0  0  0
    9.2950    1.3000   20.9480 O   0  0  0  0  0  0  0  0  0  0  0  0
   14.2594   -2.3714   20.8543 Cl  0  0  0  0  0  0  0  0  0  0  0  0
    3.6210    2.0713   21.6574 H   0  0  0  0  0  0  0  0  0  0  0  0
    2.9855    2.6924   19.3616 H   0  0  0  0  0  0  0  0  0  0  0  0
   14.2462   -1.2340   25.5766 H   0  0  0  0  0  0  0  0  0  0  0  0
    5.6668    0.7411   22.0808 H   0  0  0  0  0  0  0  0  0  0  0  0
   12.2060    0.1530   25.4088 H   0  0  0  0  0  0  0  0  0  0  0  0
    9.5403   -4.5627   23.7809 H   0  0  0  0  0  0  0  0  0  0  0  0
    7.1911   -1.8848   26.1904 H   0  0  0  0  0  0  0  0  0  0  0  0
    4.3788    2.0100   17.4223 H   0  0  0  0  0  0  0  0  0  0  0  0
   10.2682   -2.6746   22.3865 H   0  0  0  0  0  0  0  0  0  0  0  0
    7.8684   -0.0022   24.7594 H   0  0  0  0  0  0  0  0  0  0  0  0
   15.1613   -2.3520   23.5747 H   0  0  0  0  0  0  0  0  0  0  0  0
   11.9745   -0.6893   21.1973 H   0  0  0  0  0  0  0  0  0  0  0  0
    8.4186   -0.8125   18.0399 H   0  0  0  0  0  0  0  0  0  0  0  0
    8.6668   -4.5891   26.8013 H   0  0  0  0  0  0  0  0  0  0  0  0
    6.9513   -4.3276   26.4010 H   0  0  0  0  0  0  0  0  0  0  0  0
    7.9196   -5.4231   25.4163 H   0  0  0  0  0  0  0  0  0  0  0  0
    7.4761   -1.2062   21.6405 H   0  0  0  0  0  0  0  0  0  0  0  0
    8.7071   -1.5784   20.4200 H   0  0  0  0  0  0  0  0  0  0  0  0
   10.4561    1.0772   24.1620 H   0  0  0  0  0  0  0  0  0  0  0  0
   10.8743    1.5008   22.5014 H   0  0  0  0  0  0  0  0  0  0  0  0
    6.6719    0.4860   16.8043 H   0  0  0  0  0  0  0  0  0  0  0  0
  1  2  1  0  0  0  0
  1  4  2  0  0  0  0
  2  8  2  0  0  0  0
  3  5  2  0  0  0  0
  3 11  1  0  0  0  0
  4 14  1  0  0  0  0
  5 16  1  0  0  0  0
  6  9  2  0  0  0  0
  6 15  1  0  0  0  0
  7 10  1  0  0  0  0
  7 15  2  0  0  0  0
  8 18  1  0  0  0  0
  9 19  1  0  0  0  0
 10 19  2  0  0  0  0
 11 20  2  0  0  0  0
 12 16  2  0  0  0  0
 12 20  1  0  0  0  0
 13 17  2  0  0  0  0
 13 25  1  0  0  0  0
 14 17  1  0  0  0  0
 14 18  2  0  0  0  0
 15 22  1  0  0  0  0
 16 24  1  0  0  0  0
 17 23  1  0  0  0  0
 18 25  1  0  0  0  0
 19 26  1  0  0  0  0
 20 28  1  0  0  0  0
 21 23  1  0  0  0  0
 21 26  1  0  0  0  0
 21 27  2  0  0  0  0
 24 26  1  0  0  0  0
  1 29  1  0  0  0  0
  2 30  1  0  0  0  0
  3 31  1  0  0  0  0
  4 32  1  0  0  0  0
  5 33  1  0  0  0  0
  6 34  1  0  0  0  0
  7 35  1  0  0  0  0
  8 36  1  0  0  0  0
  9 37  1  0  0  0  0
 10 38  1  0  0  0  0
 11 39  1  0  0  0  0
 12 40  1  0  0  0  0
 13 41  1  0  0  0  0
 22 42  1  0  0  0  0
 22 43  1  0  0  0  0
 22 44  1  0  0  0  0
 23 45  1  0  0  0  0
 23 46  1  0  0  0  0
 24 47  1  0  0  0  0
 24 48  1  0  0  0  0
 25 49  1  0  0  0  0
M  END
> <clash_score>
0

> <docking_score>
-8.443660736083984

> <overlap_score>
0.9100707769393921

$$$$
BENZO_463_1
  -OEChem-08222022483D

 49 52  0     0  0  0  0  0  0999 V2000
    4.2460    1.7520   20.8250 C   0  0  0  0  0  0  0  0  0  0  0  0
    3.8860    2.1050   19.5250 C   0  0  0  0  0  0  0  0  0  0  0  0
    5.3890    1.0010   21.0690 C   0  0  0  0  0  0  0  0  0  0  0  0
    9.1890   -3.5540   24.0140 C   0  0  0  0  0  0  0  0  0  0  0  0
    7.8700   -2.0610   25.3550 C   0  0  0  0  0  0  0  0  0  0  0  0
    4.6610    1.7170   18.4380 C   0  0  0  0  0  0  0  0  0  0  0  0
    9.5890   -2.4950   23.2210 C   0  0  0  0  0  0  0  0  0  0  0  0
    8.2550   -1.0010   24.5520 C   0  0  0  0  0  0  0  0  0  0  0  0
   12.7320   -0.4464   24.4370 C   0  0  0  0  0  0  0  0  0  0  0  0
    7.5840   -0.2700   18.5160 C   0  0  0  0  0  0  0  0  0  0  0  0
   12.5970   -0.8682   22.2832 C   0  0  0  0  0  0  0  0  0  0  0  0
    6.1460    0.6070   19.9750 C   0  0  0  0  0  0  0  0  0  0  0  0
    8.3450   -3.3440   25.0980 C   0  0  0  0  0  0  0  0  0  0  0  0
   11.9616   -0.1817   23.2889 C   0  0  0  0  0  0  0  0  0  0  0  0
    7.2710   -0.1460   19.8310 C   0  0  0  0  0  0  0  0  0  0  0  0
    5.7970    0.9500   18.6730 C   0  0  0  0  0  0  0  0  0  0  0  0
    9.1280   -1.2090   23.4870 C   0  0  0  0  0  0  0  0  0  0  0  0
    9.0430    0.2380   21.4940 C   0  0  0  0  0  0  0  0  0  0  0  0
    7.9522   -4.4794   25.9764 C   0  0  0  0  0  0  0  0  0  0  0  0
   14.6393   -2.3180   22.2082 C   0  0  0  0  0  0  0  0  0  0  0  0
    8.0950   -0.7700   20.8440 C   0  0  0  0  0  0  0  0  0  0  0  0
   10.7220    0.6590   23.1850 C   0  0  0  0  0  0  0  0  0  0  0  0
   13.7770   -1.2393   24.1852 N   0  0  0  0  0  0  0  0  0  0  0  0
    6.7100    0.3850   17.8100 N   0  0  0  0  0  0  0  0  0  0  0  0
   13.6676   -1.4788   22.8673 N   0  0  0  0  0  0  0  0  0  0  0  0
    9.5820   -0.1080   22.7000 N   0  0  0  0  0  0  0  0  0  0  0  0
    9.2950    1.3000   20.9480 O   0  0  0  0  0  0  0  0  0  0  0  0
    3.6210    2.0713   21.6574 H   0  0  0  0  0  0  0  0  0  0  0  0
    2.9855    2.6924   19.3616 H   0  0  0  0  0  0  0  0  0  0  0  0
    5.6668    0.7411   22.0808 H   0  0  0  0  0  0  0  0  0  0  0  0
    9.5403   -4.5627   23.7809 H   0  0  0  0  0  0  0  0  0  0  0  0
    7.1911   -1.8848   26.1904 H   0  0  0  0  0  0  0  0  0  0  0  0
    4.3788    2.0100   17.4223 H   0  0  0  0  0  0  0  0  0  0  0  0
   10.2682   -2.6746   22.3865 H   0  0  0  0  0  0  0  0  0  0  0  0
    7.8684   -0.0022   24.7594 H   0  0  0  0  0  0  0  0  0  0  0  0
   12.5771   -0.0965   25.4478 H   0  0  0  0  0  0  0  0  0  0  0  0
    8.4186   -0.8125   18.0399 H   0  0  0  0  0  0  0  0  0  0  0  0
   12.3832   -0.9726   21.2281 H   0  0  0  0  0  0  0  0  0  0  0  0
    8.6668   -4.5891   26.8013 H   0  0  0  0  0  0  0  0  0  0  0  0
    6.9513   -4.3276   26.4010 H   0  0  0  0  0  0  0  0  0  0  0  0
    7.9196   -5.4231   25.4163 H   0  0  0  0  0  0  0  0  0  0  0  0
   15.4522   -1.6787   21.8540 H   0  0  0  0  0  0  0  0  0  0  0  0
   15.0179   -3.0612   22.9154 H   0  0  0  0  0  0  0  0  0  0  0  0
   14.1626   -2.8324   21.3691 H   0  0  0  0  0  0  0  0  0  0  0  0
    7.4761   -1.2062   21.6405 H   0  0  0  0  0  0  0  0  0  0  0  0
    8.7071   -1.5784   20.4200 H   0  0  0  0  0  0  0  0  0  0  0  0
   10.4561    1.0772   24.1620 H   0  0  0  0  0  0  0  0  0  0  0  0
   10.8743    1.5008   22.5014 H   0  0  0  0  0  0  0  0  0  0  0  0
    6.6719    0.4860   16.8043 H   0  0  0  0  0  0  0  0  0  0  0  0
  1  2  1  0  0  0  0
  1  3  2  0  0  0  0
  2  6  2  0  0  0  0
  3 12  1  0  0  0  0
  4  7  2  0  0  0  0
  4 13  1  0  0  0  0
  5  8  1  0  0  0  0
  5 13  2  0  0  0  0
  6 16  1  0  0  0  0
  7 17  1  0  0  0  0
  8 17  2  0  0  0  0
  9 14  1  0  0  0  0
  9 23  2  0  0  0  0
 10 15  2  0  0  0  0
 10 24  1  0  0  0  0
 11 14  2  0  0  0  0
 11 25  1  0  0  0  0
 12 15  1  0  0  0  0
 12 16  2  0  0  0  0
 13 19  1  0  0  0  0
 14 22  1  0  0  0  0
 15 21  1  0  0  0  0
 16 24  1  0  0  0  0
 17 26  1  0  0  0  0
 18 21  1  0  0  0  0
 18 26  1  0  0  0  0
 18 27  2  0  0  0  0
 20 25  1  0  0  0  0
 22 26  1  0  0  0  0
 23 25  1  0  0  0  0
  1 28  1  0  0  0  0
  2 29  1  0  0  0  0
  3 30  1  0  0  0  0
  4 31  1  0  0  0  0
  5 32  1  0  0  0  0
  6 33  1  0  0  0  0
  7 34  1  0  0  0  0
  8 35  1  0  0  0  0
  9 36  1  0  0  0  0
 10 37  1  0  0  0  0
 11 38  1  0  0  0  0
 19 39  1  0  0  0  0
 19 40  1  0  0  0  0
 19 41  1  0  0  0  0
 20 42  1  0  0  0  0
 20 43  1  0  0  0  0
 20 44  1  0  0  0  0
 21 45  1  0  0  0  0
 21 46  1  0  0  0  0
 22 47  1  0  0  0  0
 22 48  1  0  0  0  0
 24 49  1  0  0  0  0
M  END
> <clash_score>
0

> <docking_score>
-7.679679870605469

> <overlap_score>
0.9054274559020996

$$$$
BENZO_464_1
  -OEChem-08222022483D

 47 50  0     0  0  0  0  0  0999 V2000
    4.2460    1.7520   20.8250 C   0  0  0  0  0  0  0  0  0  0  0  0
    3.8860    2.1050   19.5250 C   0  0  0  0  0  0  0  0  0  0  0  0
    5.3890    1.0010   21.0690 C   0  0  0  0  0  0  0  0  0  0  0  0
    4.6610    1.7170   18.4380 C   0  0  0  0  0  0  0  0  0  0  0  0
    9.5890   -2.4950   23.2210 C   0  0  0  0  0  0  0  0  0  0  0  0
    8.2550   -1.0010   24.5520 C   0  0  0  0  0  0  0  0  0  0  0  0
    9.1890   -3.5540   24.0140 C   0  0  0  0  0  0  0  0  0  0  0  0
    7.8700   -2.0610   25.3550 C   0  0  0  0  0  0  0  0  0  0  0  0
   12.5566   -0.8597   22.1860 C   0  0  0  0  0  0  0  0  0  0  0  0
    7.5840   -0.2700   18.5160 C   0  0  0  0  0  0  0  0  0  0  0  0
   13.6839   -1.5596   22.5559 C   0  0  0  0  0  0  0  0  0  0  0  0
   12.6568   -0.3896   24.4600 C   0  0  0  0  0  0  0  0  0  0  0  0
    6.1460    0.6070   19.9750 C   0  0  0  0  0  0  0  0  0  0  0  0
   11.9616   -0.1817   23.2889 C   0  0  0  0  0  0  0  0  0  0  0  0
    7.2710   -0.1460   19.8310 C   0  0  0  0  0  0  0  0  0  0  0  0
    5.7970    0.9500   18.6730 C   0  0  0  0  0  0  0  0  0  0  0  0
    9.1280   -1.2090   23.4870 C   0  0  0  0  0  0  0  0  0  0  0  0
    8.3450   -3.3440   25.0980 C   0  0  0  0  0  0  0  0  0  0  0  0
    9.0430    0.2380   21.4940 C   0  0  0  0  0  0  0  0  0  0  0  0
    8.5124   -5.6657   25.5743 C   0  0  0  0  0  0  0  0  0  0  0  0
    8.0950   -0.7700   20.8440 C   0  0  0  0  0  0  0  0  0  0  0  0
   10.7220    0.6590   23.1850 C   0  0  0  0  0  0  0  0  0  0  0  0
    6.7100    0.3850   17.8100 N   0  0  0  0  0  0  0  0  0  0  0  0
    9.5820   -0.1080   22.7000 N   0  0  0  0  0  0  0  0  0  0  0  0
    9.2950    1.3000   20.9480 O   0  0  0  0  0  0  0  0  0  0  0  0
    7.9864   -4.3799   25.8996 O   0  0  0  0  0  0  0  0  0  0  0  0
   14.0209   -1.3981   24.2270 S   0  0  0  0  0  0  0  0  0  0  0  0
    3.6210    2.0713   21.6574 H   0  0  0  0  0  0  0  0  0  0  0  0
    2.9855    2.6924   19.3616 H   0  0  0  0  0  0  0  0  0  0  0  0
    5.6668    0.7411   22.0808 H   0  0  0  0  0  0  0  0  0  0  0  0
    4.3788    2.0100   17.4223 H   0  0  0  0  0  0  0  0  0  0  0  0
   10.2678   -2.6746   22.3862 H   0  0  0  0  0  0  0  0  0  0  0  0
    7.8691   -0.0023   24.7606 H   0  0  0  0  0  0  0  0  0  0  0  0
    9.5404   -4.5633   23.7846 H   0  0  0  0  0  0  0  0  0  0  0  0
    7.1920   -1.8875   26.1914 H   0  0  0  0  0  0  0  0  0  0  0  0
   12.1799   -0.8381   21.1711 H   0  0  0  0  0  0  0  0  0  0  0  0
    8.4186   -0.8125   18.0399 H   0  0  0  0  0  0  0  0  0  0  0  0
   14.3253   -2.1586   21.9250 H   0  0  0  0  0  0  0  0  0  0  0  0
   12.4317   -0.0003   25.4433 H   0  0  0  0  0  0  0  0  0  0  0  0
    8.1469   -6.4023   26.2939 H   0  0  0  0  0  0  0  0  0  0  0  0
    9.6045   -5.6298   25.5962 H   0  0  0  0  0  0  0  0  0  0  0  0
    8.1789   -5.9428   24.5715 H   0  0  0  0  0  0  0  0  0  0  0  0
    7.4761   -1.2062   21.6405 H   0  0  0  0  0  0  0  0  0  0  0  0
    8.7071   -1.5784   20.4200 H   0  0  0  0  0  0  0  0  0  0  0  0
   10.4561    1.0772   24.1620 H   0  0  0  0  0  0  0  0  0  0  0  0
   10.8743    1.5008   22.5014 H   0  0  0  0  0  0  0  0  0  0  0  0
    6.6719    0.4860   16.8043 H   0  0  0  0  0  0  0  0  0  0  0  0
  1  2  1  0  0  0  0
  1  3  2  0  0  0  0
  2  4  2  0  0  0  0
  3 13  1  0  0  0  0
  4 16  1  0  0  0  0
  5  7  2  0  0  0  0
  5 17  1  0  0  0  0
  6  8  1  0  0  0  0
  6 17  2  0  0  0  0
  7 18  1  0  0  0  0
  8 18  2  0  0  0  0
  9 11  2  0  0  0  0
  9 14  1  0  0  0  0
 10 15  2  0  0  0  0
 10 23  1  0  0  0  0
 11 27  1  0  0  0  0
 12 14  2  0  0  0  0
 12 27  1  0  0  0  0
 13 15  1  0  0  0  0
 13 16  2  0  0  0  0
 14 22  1  0  0  0  0
 15 21  1  0  0  0  0
 16 23  1  0  0  0  0
 17 24  1  0  0  0  0
 18 26  1  0  0  0  0
 19 21  1  0  0  0  0
 19 24  1  0  0  0  0
 19 25  2  0  0  0  0
 20 26  1  0  0  0  0
 22 24  1  0  0  0  0
  1 28  1  0  0  0  0
  2 29  1  0  0  0  0
  3 30  1  0  0  0  0
  4 31  1  0  0  0  0
  5 32  1  0  0  0  0
  6 33  1  0  0  0  0
  7 34  1  0  0  0  0
  8 35  1  0  0  0  0
  9 36  1  0  0  0  0
 10 37  1  0  0  0  0
 11 38  1  0  0  0  0
 12 39  1  0  0  0  0
 20 40  1  0  0  0  0
 20 41  1  0  0  0  0
 20 42  1  0  0  0  0
 21 43  1  0  0  0  0
 21 44  1  0  0  0  0
 22 45  1  0  0  0  0
 22 46  1  0  0  0  0
 23 47  1  0  0  0  0
M  END
> <clash_score>
0

> <docking_score>
-8.998689651489258

> <overlap_score>
0.9034126400947571

$$$$
BENZO_466_1
  -OEChem-08222022483D

 50 53  0     0  0  0  0  0  0999 V2000
    4.2460    1.7520   20.8250 C   0  0  0  0  0  0  0  0  0  0  0  0
    3.8860    2.1050   19.5250 C   0  0  0  0  0  0  0  0  0  0  0  0
   13.7501   -1.1157   24.6176 C   0  0  0  0  0  0  0  0  0  0  0  0
    5.3890    1.0010   21.0690 C   0  0  0  0  0  0  0  0  0  0  0  0
   12.5991   -0.3339   24.5202 C   0  0  0  0  0  0  0  0  0  0  0  0
    4.6610    1.7170   18.4380 C   0  0  0  0  0  0  0  0  0  0  0  0
    9.5890   -2.4950   23.2210 C   0  0  0  0  0  0  0  0  0  0  0  0
    8.2550   -1.0010   24.5520 C   0  0  0  0  0  0  0  0  0  0  0  0
    9.1890   -3.5540   24.0140 C   0  0  0  0  0  0  0  0  0  0  0  0
    7.8700   -2.0610   25.3550 C   0  0  0  0  0  0  0  0  0  0  0  0
   14.2636   -1.7454   23.4838 C   0  0  0  0  0  0  0  0  0  0  0  0
   12.4750   -0.8115   22.1551 C   0  0  0  0  0  0  0  0  0  0  0  0
    7.5840   -0.2700   18.5160 C   0  0  0  0  0  0  0  0  0  0  0  0
    6.1460    0.6070   19.9750 C   0  0  0  0  0  0  0  0  0  0  0  0
   11.9616   -0.1817   23.2889 C   0  0  0  0  0  0  0  0  0  0  0  0
    7.2710   -0.1460   19.8310 C   0  0  0  0  0  0  0  0  0  0  0  0
    5.7970    0.9500   18.6730 C   0  0  0  0  0  0  0  0  0  0  0  0
    9.1280   -1.2090   23.4870 C   0  0  0  0  0  0  0  0  0  0  0  0
    8.3450   -3.3440   25.0980 C   0  0  0  0  0  0  0  0  0  0  0  0
   13.6260   -1.5933   22.2526 C   0  0  0  0  0  0  0  0  0  0  0  0
    9.0430    0.2380   21.4940 C   0  0  0  0  0  0  0  0  0  0  0  0
    8.5124   -5.6657   25.5743 C   0  0  0  0  0  0  0  0  0  0  0  0
    8.0950   -0.7700   20.8440 C   0  0  0  0  0  0  0  0  0  0  0  0
   10.7220    0.6590   23.1850 C   0  0  0  0  0  0  0  0  0  0  0  0
    6.7100    0.3850   17.8100 N   0  0  0  0  0  0  0  0  0  0  0  0
    9.5820   -0.1080   22.7000 N   0  0  0  0  0  0  0  0  0  0  0  0
    9.2950    1.3000   20.9480 O   0  0  0  0  0  0  0  0  0  0  0  0
    7.9864   -4.3799   25.8996 O   0  0  0  0  0  0  0  0  0  0  0  0
   14.2594   -2.3714   20.8543 Cl  0  0  0  0  0  0  0  0  0  0  0  0
    3.6210    2.0713   21.6574 H   0  0  0  0  0  0  0  0  0  0  0  0
    2.9855    2.6924   19.3616 H   0  0  0  0  0  0  0  0  0  0  0  0
   14.2462   -1.2340   25.5766 H   0  0  0  0  0  0  0  0  0  0  0  0
    5.6668    0.7411   22.0808 H   0  0  0  0  0  0  0  0  0  0  0  0
   12.2060    0.1530   25.4088 H   0  0  0  0  0  0  0  0  0  0  0  0
    4.3788    2.0100   17.4223 H   0  0  0  0  0  0  0  0  0  0  0  0
   10.2678   -2.6746   22.3862 H   0  0  0  0  0  0  0  0  0  0  0  0
    7.8691   -0.0023   24.7606 H   0  0  0  0  0  0  0  0  0  0  0  0
    9.5404   -4.5633   23.7846 H   0  0  0  0  0  0  0  0  0  0  0  0
    7.1920   -1.8875   26.1914 H   0  0  0  0  0  0  0  0  0  0  0  0
   15.1613   -2.3520   23.5747 H   0  0  0  0  0  0  0  0  0  0  0  0
   11.9745   -0.6893   21.1973 H   0  0  0  0  0  0  0  0  0  0  0  0
    8.4186   -0.8125   18.0399 H   0  0  0  0  0  0  0  0  0  0  0  0
    8.1469   -6.4023   26.2939 H   0  0  0  0  0  0  0  0  0  0  0  0
    9.6045   -5.6298   25.5962 H   0  0  0  0  0  0  0  0  0  0  0  0
    8.1789   -5.9428   24.5715 H   0  0  0  0  0  0  0  0  0  0  0  0
    7.4761   -1.2062   21.6405 H   0  0  0  0  0  0  0  0  0  0  0  0
    8.7071   -1.5784   20.4200 H   0  0  0  0  0  0  0  0  0  0  0  0
   10.4561    1.0772   24.1620 H   0  0  0  0  0  0  0  0  0  0  0  0
   10.8743    1.5008   22.5014 H   0  0  0  0  0  0  0  0  0  0  0  0
    6.6719    0.4860   16.8043 H   0  0  0  0  0  0  0  0  0  0  0  0
  1  2  1  0  0  0  0
  1  4  2  0  0  0  0
  2  6  2  0  0  0  0
  3  5  2  0  0  0  0
  3 11  1  0  0  0  0
  4 14  1  0  0  0  0
  5 15  1  0  0  0  0
  6 17  1  0  0  0  0
  7  9  2  0  0  0  0
  7 18  1  0  0  0  0
  8 10  1  0  0  0  0
  8 18  2  0  0  0  0
  9 19  1  0  0  0  0
 10 19  2  0  0  0  0
 11 20  2  0  0  0  0
 12 15  2  0  0  0  0
 12 20  1  0  0  0  0
 13 16  2  0  0  0  0
 13 25  1  0  0  0  0
 14 16  1  0  0  0  0
 14 17  2  0  0  0  0
 15 24  1  0  0  0  0
 16 23  1  0  0  0  0
 17 25  1  0  0  0  0
 18 26  1  0  0  0  0
 19 28  1  0  0  0  0
 20 29  1  0  0  0  0
 21 23  1  0  0  0  0
 21 26  1  0  0  0  0
 21 27  2  0  0  0  0
 22 28  1  0  0  0  0
 24 26  1  0  0  0  0
  1 30  1  0  0  0  0
  2 31  1  0  0  0  0
  3 32  1  0  0  0  0
  4 33  1  0  0  0  0
  5 34  1  0  0  0  0
  6 35  1  0  0  0  0
  7 36  1  0  0  0  0
  8 37  1  0  0  0  0
  9 38  1  0  0  0  0
 10 39  1  0  0  0  0
 11 40  1  0  0  0  0
 12 41  1  0  0  0  0
 13 42  1  0  0  0  0
 22 43  1  0  0  0  0
 22 44  1  0  0  0  0
 22 45  1  0  0  0  0
 23 46  1  0  0  0  0
 23 47  1  0  0  0  0
 24 48  1  0  0  0  0
 24 49  1  0  0  0  0
 25 50  1  0  0  0  0
M  END
> <clash_score>
0

> <docking_score>
-8.563857078552246

> <overlap_score>
0.9233067631721497

$$$$
BENZO_467_1
  -OEChem-08222022483D

 50 53  0     0  0  0  0  0  0999 V2000
    4.2460    1.7520   20.8250 C   0  0  0  0  0  0  0  0  0  0  0  0
    3.8860    2.1050   19.5250 C   0  0  0  0  0  0  0  0  0  0  0  0
    5.3890    1.0010   21.0690 C   0  0  0  0  0  0  0  0  0  0  0  0
    4.6610    1.7170   18.4380 C   0  0  0  0  0  0  0  0  0  0  0  0
    9.5890   -2.4950   23.2210 C   0  0  0  0  0  0  0  0  0  0  0  0
    8.2550   -1.0010   24.5520 C   0  0  0  0  0  0  0  0  0  0  0  0
    9.1890   -3.5540   24.0140 C   0  0  0  0  0  0  0  0  0  0  0  0
    7.8700   -2.0610   25.3550 C   0  0  0  0  0  0  0  0  0  0  0  0
   12.7320   -0.4464   24.4370 C   0  0  0  0  0  0  0  0  0  0  0  0
    7.5840   -0.2700   18.5160 C   0  0  0  0  0  0  0  0  0  0  0  0
   12.5970   -0.8682   22.2832 C   0  0  0  0  0  0  0  0  0  0  0  0
    6.1460    0.6070   19.9750 C   0  0  0  0  0  0  0  0  0  0  0  0
   11.9616   -0.1817   23.2889 C   0  0  0  0  0  0  0  0  0  0  0  0
    7.2710   -0.1460   19.8310 C   0  0  0  0  0  0  0  0  0  0  0  0
    5.7970    0.9500   18.6730 C   0  0  0  0  0  0  0  0  0  0  0  0
    9.1280   -1.2090   23.4870 C   0  0  0  0  0  0  0  0  0  0  0  0
    8.3450   -3.3440   25.0980 C   0  0  0  0  0  0  0  0  0  0  0  0
    9.0430    0.2380   21.4940 C   0  0  0  0  0  0  0  0  0  0  0  0
   14.6393   -2.3180   22.2082 C   0  0  0  0  0  0  0  0  0  0  0  0
    8.5124   -5.6657   25.5743 C   0  0  0  0  0  0  0  0  0  0  0  0
    8.0950   -0.7700   20.8440 C   0  0  0  0  0  0  0  0  0  0  0  0
   10.7220    0.6590   23.1850 C   0  0  0  0  0  0  0  0  0  0  0  0
   13.7770   -1.2393   24.1852 N   0  0  0  0  0  0  0  0  0  0  0  0
    6.7100    0.3850   17.8100 N   0  0  0  0  0  0  0  0  0  0  0  0
   13.6676   -1.4788   22.8673 N   0  0  0  0  0  0  0  0  0  0  0  0
    9.5820   -0.1080   22.7000 N   0  0  0  0  0  0  0  0  0  0  0  0
    9.2950    1.3000   20.9480 O   0  0  0  0  0  0  0  0  0  0  0  0
    7.9864   -4.3799   25.8996 O   0  0  0  0  0  0  0  0  0  0  0  0
    3.6210    2.0713   21.6574 H   0  0  0  0  0  0  0  0  0  0  0  0
    2.9855    2.6924   19.3616 H   0  0  0  0  0  0  0  0  0  0  0  0
    5.6668    0.7411   22.0808 H   0  0  0  0  0  0  0  0  0  0  0  0
    4.3788    2.0100   17.4223 H   0  0  0  0  0  0  0  0  0  0  0  0
   10.2678   -2.6746   22.3862 H   0  0  0  0  0  0  0  0  0  0  0  0
    7.8691   -0.0023   24.7606 H   0  0  0  0  0  0  0  0  0  0  0  0
    9.5404   -4.5633   23.7846 H   0  0  0  0  0  0  0  0  0  0  0  0
    7.1920   -1.8875   26.1914 H   0  0  0  0  0  0  0  0  0  0  0  0
   12.5771   -0.0965   25.4478 H   0  0  0  0  0  0  0  0  0  0  0  0
    8.4186   -0.8125   18.0399 H   0  0  0  0  0  0  0  0  0  0  0  0
   12.3832   -0.9726   21.2281 H   0  0  0  0  0  0  0  0  0  0  0  0
   15.4522   -1.6787   21.8540 H   0  0  0  0  0  0  0  0  0  0  0  0
   15.0179   -3.0612   22.9154 H   0  0  0  0  0  0  0  0  0  0  0  0
   14.1626   -2.8324   21.3691 H   0  0  0  0  0  0  0  0  0  0  0  0
    8.1469   -6.4023   26.2939 H   0  0  0  0  0  0  0  0  0  0  0  0
    9.6045   -5.6298   25.5962 H   0  0  0  0  0  0  0  0  0  0  0  0
    8.1789   -5.9428   24.5715 H   0  0  0  0  0  0  0  0  0  0  0  0
    7.4761   -1.2062   21.6405 H   0  0  0  0  0  0  0  0  0  0  0  0
    8.7071   -1.5784   20.4200 H   0  0  0  0  0  0  0  0  0  0  0  0
   10.4561    1.0772   24.1620 H   0  0  0  0  0  0  0  0  0  0  0  0
   10.8743    1.5008   22.5014 H   0  0  0  0  0  0  0  0  0  0  0  0
    6.6719    0.4860   16.8043 H   0  0  0  0  0  0  0  0  0  0  0  0
  1  2  1  0  0  0  0
  1  3  2  0  0  0  0
  2  4  2  0  0  0  0
  3 12  1  0  0  0  0
  4 15  1  0  0  0  0
  5  7  2  0  0  0  0
  5 16  1  0  0  0  0
  6  8  1  0  0  0  0
  6 16  2  0  0  0  0
  7 17  1  0  0  0  0
  8 17  2  0  0  0  0
  9 13  1  0  0  0  0
  9 23  2  0  0  0  0
 10 14  2  0  0  0  0
 10 24  1  0  0  0  0
 11 13  2  0  0  0  0
 11 25  1  0  0  0  0
 12 14  1  0  0  0  0
 12 15  2  0  0  0  0
 13 22  1  0  0  0  0
 14 21  1  0  0  0  0
 15 24  1  0  0  0  0
 16 26  1  0  0  0  0
 17 28  1  0  0  0  0
 18 21  1  0  0  0  0
 18 26  1  0  0  0  0
 18 27  2  0  0  0  0
 19 25  1  0  0  0  0
 20 28  1  0  0  0  0
 22 26  1  0  0  0  0
 23 25  1  0  0  0  0
  1 29  1  0  0  0  0
  2 30  1  0  0  0  0
  3 31  1  0  0  0  0
  4 32  1  0  0  0  0
  5 33  1  0  0  0  0
  6 34  1  0  0  0  0
  7 35  1  0  0  0  0
  8 36  1  0  0  0  0
  9 37  1  0  0  0  0
 10 38  1  0  0  0  0
 11 39  1  0  0  0  0
 19 40  1  0  0  0  0
 19 41  1  0  0  0  0
 19 42  1  0  0  0  0
 20 43  1  0  0  0  0
 20 44  1  0  0  0  0
 20 45  1  0  0  0  0
 21 46  1  0  0  0  0
 21 47  1  0  0  0  0
 22 48  1  0  0  0  0
 22 49  1  0  0  0  0
 24 50  1  0  0  0  0
M  END
> <clash_score>
0

> <docking_score>
-7.799877643585205

> <overlap_score>
0.918684720993042

$$$$
BENZO_469_1
  -OEChem-08222022483D

 60 64  0     0  0  0  0  0  0999 V2000
   14.2641   -1.7450   23.4813 C   0  0  0  0  0  0  0  0  0  0  0  0
    4.2460    1.7520   20.8250 C   0  0  0  0  0  0  0  0  0  0  0  0
   14.0779   -0.6681   24.3480 C   0  0  0  0  0  0  0  0  0  0  0  0
   13.2991   -2.0403   22.5184 C   0  0  0  0  0  0  0  0  0  0  0  0
    3.8860    2.1050   19.5250 C   0  0  0  0  0  0  0  0  0  0  0  0
    5.3890    1.0010   21.0690 C   0  0  0  0  0  0  0  0  0  0  0  0
   12.9266    0.1135   24.2518 C   0  0  0  0  0  0  0  0  0  0  0  0
   12.1478   -1.2587   22.4222 C   0  0  0  0  0  0  0  0  0  0  0  0
    4.6610    1.7170   18.4380 C   0  0  0  0  0  0  0  0  0  0  0  0
    9.1890   -3.5540   24.0140 C   0  0  0  0  0  0  0  0  0  0  0  0
    7.8700   -2.0610   25.3550 C   0  0  0  0  0  0  0  0  0  0  0  0
    9.5890   -2.4950   23.2210 C   0  0  0  0  0  0  0  0  0  0  0  0
    8.2550   -1.0010   24.5520 C   0  0  0  0  0  0  0  0  0  0  0  0
    7.5840   -0.2700   18.5160 C   0  0  0  0  0  0  0  0  0  0  0  0
    6.1460    0.6070   19.9750 C   0  0  0  0  0  0  0  0  0  0  0  0
   11.9616   -0.1817   23.2889 C   0  0  0  0  0  0  0  0  0  0  0  0
    7.2710   -0.1460   19.8310 C   0  0  0  0  0  0  0  0  0  0  0  0
    5.7970    0.9500   18.6730 C   0  0  0  0  0  0  0  0  0  0  0  0
    8.3450   -3.3440   25.0980 C   0  0  0  0  0  0  0  0  0  0  0  0
    9.1280   -1.2090   23.4870 C   0  0  0  0  0  0  0  0  0  0  0  0
    7.8685   -5.7521   25.4390 C   0  0  0  0  0  0  0  0  0  0  0  0
    9.0430    0.2380   21.4940 C   0  0  0  0  0  0  0  0  0  0  0  0
    7.7602   -6.8720   26.4595 C   0  0  0  0  0  0  0  0  0  0  0  0
    6.9986   -6.5082   27.7153 C   0  0  0  0  0  0  0  0  0  0  0  0
    7.6018   -5.2516   28.3030 C   0  0  0  0  0  0  0  0  0  0  0  0
    7.4707   -4.1186   27.2991 C   0  0  0  0  0  0  0  0  0  0  0  0
    8.0950   -0.7700   20.8440 C   0  0  0  0  0  0  0  0  0  0  0  0
   10.7220    0.6590   23.1850 C   0  0  0  0  0  0  0  0  0  0  0  0
    6.7100    0.3850   17.8100 N   0  0  0  0  0  0  0  0  0  0  0  0
    7.9635   -4.4452   25.9501 N   0  0  0  0  0  0  0  0  0  0  0  0
    9.5820   -0.1080   22.7000 N   0  0  0  0  0  0  0  0  0  0  0  0
    7.9250   -6.0599   24.2453 O   0  0  0  0  0  0  0  0  0  0  0  0
    9.2950    1.3000   20.9480 O   0  0  0  0  0  0  0  0  0  0  0  0
   15.1613   -2.3527   23.5555 H   0  0  0  0  0  0  0  0  0  0  0  0
    3.6210    2.0713   21.6574 H   0  0  0  0  0  0  0  0  0  0  0  0
   14.8297   -0.4373   25.0971 H   0  0  0  0  0  0  0  0  0  0  0  0
   13.4443   -2.8780   21.8427 H   0  0  0  0  0  0  0  0  0  0  0  0
    2.9855    2.6924   19.3616 H   0  0  0  0  0  0  0  0  0  0  0  0
    5.6668    0.7411   22.0808 H   0  0  0  0  0  0  0  0  0  0  0  0
   12.7899    0.9506   24.9315 H   0  0  0  0  0  0  0  0  0  0  0  0
   11.4013   -1.4963   21.6690 H   0  0  0  0  0  0  0  0  0  0  0  0
    4.3788    2.0100   17.4223 H   0  0  0  0  0  0  0  0  0  0  0  0
    9.5436   -4.5614   23.7799 H   0  0  0  0  0  0  0  0  0  0  0  0
    7.1918   -1.8823   26.1906 H   0  0  0  0  0  0  0  0  0  0  0  0
   10.2676   -2.6754   22.3861 H   0  0  0  0  0  0  0  0  0  0  0  0
    7.8686   -0.0026   24.7598 H   0  0  0  0  0  0  0  0  0  0  0  0
    8.4186   -0.8125   18.0399 H   0  0  0  0  0  0  0  0  0  0  0  0
    7.2700   -7.7255   25.9772 H   0  0  0  0  0  0  0  0  0  0  0  0
    8.7822   -7.1789   26.7130 H   0  0  0  0  0  0  0  0  0  0  0  0
    5.9390   -6.3460   27.4835 H   0  0  0  0  0  0  0  0  0  0  0  0
    7.0540   -7.3297   28.4378 H   0  0  0  0  0  0  0  0  0  0  0  0
    7.0836   -4.9841   29.2305 H   0  0  0  0  0  0  0  0  0  0  0  0
    8.6566   -5.4128   28.5563 H   0  0  0  0  0  0  0  0  0  0  0  0
    6.4151   -3.8408   27.1931 H   0  0  0  0  0  0  0  0  0  0  0  0
    8.0166   -3.2418   27.6650 H   0  0  0  0  0  0  0  0  0  0  0  0
    7.4761   -1.2062   21.6405 H   0  0  0  0  0  0  0  0  0  0  0  0
    8.7071   -1.5784   20.4200 H   0  0  0  0  0  0  0  0  0  0  0  0
   10.4561    1.0772   24.1620 H   0  0  0  0  0  0  0  0  0  0  0  0
   10.8743    1.5008   22.5014 H   0  0  0  0  0  0  0  0  0  0  0  0
    6.6719    0.4860   16.8043 H   0  0  0  0  0  0  0  0  0  0  0  0
  1  3  1  0  0  0  0
  1  4  2  0  0  0  0
  2  5  1  0  0  0  0
  2  6  2  0  0  0  0
  3  7  2  0  0  0  0
  4  8  1  0  0  0  0
  5  9  2  0  0  0  0
  6 15  1  0  0  0  0
  7 16  1  0  0  0  0
  8 16  2  0  0  0  0
  9 18  1  0  0  0  0
 10 12  2  0  0  0  0
 10 19  1  0  0  0  0
 11 13  1  0  0  0  0
 11 19  2  0  0  0  0
 12 20  1  0  0  0  0
 13 20  2  0  0  0  0
 14 17  2  0  0  0  0
 14 29  1  0  0  0  0
 15 17  1  0  0  0  0
 15 18  2  0  0  0  0
 16 28  1  0  0  0  0
 17 27  1  0  0  0  0
 18 29  1  0  0  0  0
 19 30  1  0  0  0  0
 20 31  1  0  0  0  0
 21 23  1  0  0  0  0
 21 30  1  0  0  0  0
 21 32  2  0  0  0  0
 22 27  1  0  0  0  0
 22 31  1  0  0  0  0
 22 33  2  0  0  0  0
 23 24  1  0  0  0  0
 24 25  1  0  0  0  0
 25 26  1  0  0  0  0
 26 30  1  0  0  0  0
 28 31  1  0  0  0  0
  1 34  1  0  0  0  0
  2 35  1  0  0  0  0
  3 36  1  0  0  0  0
  4 37  1  0  0  0  0
  5 38  1  0  0  0  0
  6 39  1  0  0  0  0
  7 40  1  0  0  0  0
  8 41  1  0  0  0  0
  9 42  1  0  0  0  0
 10 43  1  0  0  0  0
 11 44  1  0  0  0  0
 12 45  1  0  0  0  0
 13 46  1  0  0  0  0
 14 47  1  0  0  0  0
 23 48  1  0  0  0  0
 23 49  1  0  0  0  0
 24 50  1  0  0  0  0
 24 51  1  0  0  0  0
 25 52  1  0  0  0  0
 25 53  1  0  0  0  0
 26 54  1  0  0  0  0
 26 55  1  0  0  0  0
 27 56  1  0  0  0  0
 27 57  1  0  0  0  0
 28 58  1  0  0  0  0
 28 59  1  0  0  0  0
 29 60  1  0  0  0  0
M  END
> <clash_score>
0

> <docking_score>
-8.445451736450195

> <overlap_score>
0.9891623854637146

$$$$
BENZO_468_1
  -OEChem-08222022483D

 57 61  0     0  0  0  0  0  0999 V2000
    4.2460    1.7520   20.8250 C   0  0  0  0  0  0  0  0  0  0  0  0
    3.8860    2.1050   19.5250 C   0  0  0  0  0  0  0  0  0  0  0  0
    5.3890    1.0010   21.0690 C   0  0  0  0  0  0  0  0  0  0  0  0
    4.6610    1.7170   18.4380 C   0  0  0  0  0  0  0  0  0  0  0  0
    9.1890   -3.5540   24.0140 C   0  0  0  0  0  0  0  0  0  0  0  0
    7.8700   -2.0610   25.3550 C   0  0  0  0  0  0  0  0  0  0  0  0
    9.5890   -2.4950   23.2210 C   0  0  0  0  0  0  0  0  0  0  0  0
    8.2550   -1.0010   24.5520 C   0  0  0  0  0  0  0  0  0  0  0  0
   12.6785   -0.3936   24.5018 C   0  0  0  0  0  0  0  0  0  0  0  0
    7.5840   -0.2700   18.5160 C   0  0  0  0  0  0  0  0  0  0  0  0
   13.7775   -1.2037   24.3186 C   0  0  0  0  0  0  0  0  0  0  0  0
   12.5401   -0.8378   22.2246 C   0  0  0  0  0  0  0  0  0  0  0  0
    6.1460    0.6070   19.9750 C   0  0  0  0  0  0  0  0  0  0  0  0
   11.9616   -0.1817   23.2889 C   0  0  0  0  0  0  0  0  0  0  0  0
    7.2710   -0.1460   19.8310 C   0  0  0  0  0  0  0  0  0  0  0  0
    5.7970    0.9500   18.6730 C   0  0  0  0  0  0  0  0  0  0  0  0
    8.3450   -3.3440   25.0980 C   0  0  0  0  0  0  0  0  0  0  0  0
    9.1280   -1.2090   23.4870 C   0  0  0  0  0  0  0  0  0  0  0  0
    7.2752   -5.5551   25.4280 C   0  0  0  0  0  0  0  0  0  0  0  0
    9.0430    0.2380   21.4940 C   0  0  0  0  0  0  0  0  0  0  0  0
    7.1875   -6.7796   26.3225 C   0  0  0  0  0  0  0  0  0  0  0  0
    7.0906   -6.4736   27.8012 C   0  0  0  0  0  0  0  0  0  0  0  0
    8.2353   -5.5623   28.1851 C   0  0  0  0  0  0  0  0  0  0  0  0
    8.1236   -4.2644   27.4031 C   0  0  0  0  0  0  0  0  0  0  0  0
    8.0950   -0.7700   20.8440 C   0  0  0  0  0  0  0  0  0  0  0  0
   10.7220    0.6590   23.1850 C   0  0  0  0  0  0  0  0  0  0  0  0
    6.7100    0.3850   17.8100 N   0  0  0  0  0  0  0  0  0  0  0  0
    7.9635   -4.4452   25.9501 N   0  0  0  0  0  0  0  0  0  0  0  0
    9.5820   -0.1080   22.7000 N   0  0  0  0  0  0  0  0  0  0  0  0
    6.7951   -5.6310   24.2937 O   0  0  0  0  0  0  0  0  0  0  0  0
    9.2950    1.3000   20.9480 O   0  0  0  0  0  0  0  0  0  0  0  0
   13.9416   -1.7050   22.6894 S   0  0  0  0  0  0  0  0  0  0  0  0
    3.6210    2.0713   21.6574 H   0  0  0  0  0  0  0  0  0  0  0  0
    2.9855    2.6924   19.3616 H   0  0  0  0  0  0  0  0  0  0  0  0
    5.6668    0.7411   22.0808 H   0  0  0  0  0  0  0  0  0  0  0  0
    4.3788    2.0100   17.4223 H   0  0  0  0  0  0  0  0  0  0  0  0
    9.5436   -4.5614   23.7799 H   0  0  0  0  0  0  0  0  0  0  0  0
    7.1918   -1.8823   26.1906 H   0  0  0  0  0  0  0  0  0  0  0  0
   10.2676   -2.6754   22.3861 H   0  0  0  0  0  0  0  0  0  0  0  0
    7.8686   -0.0026   24.7598 H   0  0  0  0  0  0  0  0  0  0  0  0
   12.4058    0.0253   25.4623 H   0  0  0  0  0  0  0  0  0  0  0  0
    8.4186   -0.8125   18.0399 H   0  0  0  0  0  0  0  0  0  0  0  0
   14.4923   -1.5246   25.0631 H   0  0  0  0  0  0  0  0  0  0  0  0
   12.2108   -0.8511   21.1948 H   0  0  0  0  0  0  0  0  0  0  0  0
    6.3096   -7.3610   26.0182 H   0  0  0  0  0  0  0  0  0  0  0  0
    8.0746   -7.3921   26.1207 H   0  0  0  0  0  0  0  0  0  0  0  0
    6.1318   -5.9918   28.0276 H   0  0  0  0  0  0  0  0  0  0  0  0
    7.1350   -7.4030   28.3793 H   0  0  0  0  0  0  0  0  0  0  0  0
    8.2022   -5.3494   29.2594 H   0  0  0  0  0  0  0  0  0  0  0  0
    9.1980   -6.0460   27.9804 H   0  0  0  0  0  0  0  0  0  0  0  0
    7.2509   -3.6987   27.7509 H   0  0  0  0  0  0  0  0  0  0  0  0
    9.0158   -3.6535   27.5803 H   0  0  0  0  0  0  0  0  0  0  0  0
    7.4761   -1.2062   21.6405 H   0  0  0  0  0  0  0  0  0  0  0  0
    8.7071   -1.5784   20.4200 H   0  0  0  0  0  0  0  0  0  0  0  0
   10.4561    1.0772   24.1620 H   0  0  0  0  0  0  0  0  0  0  0  0
   10.8743    1.5008   22.5014 H   0  0  0  0  0  0  0  0  0  0  0  0
    6.6719    0.4860   16.8043 H   0  0  0  0  0  0  0  0  0  0  0  0
  1  2  1  0  0  0  0
  1  3  2  0  0  0  0
  2  4  2  0  0  0  0
  3 13  1  0  0  0  0
  4 16  1  0  0  0  0
  5  7  2  0  0  0  0
  5 17  1  0  0  0  0
  6  8  1  0  0  0  0
  6 17  2  0  0  0  0
  7 18  1  0  0  0  0
  8 18  2  0  0  0  0
  9 11  2  0  0  0  0
  9 14  1  0  0  0  0
 10 15  2  0  0  0  0
 10 27  1  0  0  0  0
 11 32  1  0  0  0  0
 12 14  2  0  0  0  0
 12 32  1  0  0  0  0
 13 15  1  0  0  0  0
 13 16  2  0  0  0  0
 14 26  1  0  0  0  0
 15 25  1  0  0  0  0
 16 27  1  0  0  0  0
 17 28  1  0  0  0  0
 18 29  1  0  0  0  0
 19 21  1  0  0  0  0
 19 28  1  0  0  0  0
 19 30  2  0  0  0  0
 20 25  1  0  0  0  0
 20 29  1  0  0  0  0
 20 31  2  0  0  0  0
 21 22  1  0  0  0  0
 22 23  1  0  0  0  0
 23 24  1  0  0  0  0
 24 28  1  0  0  0  0
 26 29  1  0  0  0  0
  1 33  1  0  0  0  0
  2 34  1  0  0  0  0
  3 35  1  0  0  0  0
  4 36  1  0  0  0  0
  5 37  1  0  0  0  0
  6 38  1  0  0  0  0
  7 39  1  0  0  0  0
  8 40  1  0  0  0  0
  9 41  1  0  0  0  0
 10 42  1  0  0  0  0
 11 43  1  0  0  0  0
 12 44  1  0  0  0  0
 21 45  1  0  0  0  0
 21 46  1  0  0  0  0
 22 47  1  0  0  0  0
 22 48  1  0  0  0  0
 23 49  1  0  0  0  0
 23 50  1  0  0  0  0
 24 51  1  0  0  0  0
 24 52  1  0  0  0  0
 25 53  1  0  0  0  0
 25 54  1  0  0  0  0
 26 55  1  0  0  0  0
 26 56  1  0  0  0  0
 27 57  1  0  0  0  0
M  END
> <clash_score>
0

> <docking_score>
-8.845746994018555

> <overlap_score>
0.98291015625

$$$$
BENZO_473_1
  -OEChem-08222022483D

 59 63  0     0  0  0  0  0  0999 V2000
   14.2641   -1.7450   23.4813 C   0  0  0  0  0  0  0  0  0  0  0  0
    4.2460    1.7520   20.8250 C   0  0  0  0  0  0  0  0  0  0  0  0
   14.0779   -0.6681   24.3480 C   0  0  0  0  0  0  0  0  0  0  0  0
   13.2991   -2.0403   22.5184 C   0  0  0  0  0  0  0  0  0  0  0  0
    3.8860    2.1050   19.5250 C   0  0  0  0  0  0  0  0  0  0  0  0
    5.3890    1.0010   21.0690 C   0  0  0  0  0  0  0  0  0  0  0  0
   12.9266    0.1135   24.2518 C   0  0  0  0  0  0  0  0  0  0  0  0
   12.1478   -1.2587   22.4222 C   0  0  0  0  0  0  0  0  0  0  0  0
    4.6610    1.7170   18.4380 C   0  0  0  0  0  0  0  0  0  0  0  0
    9.1890   -3.5540   24.0140 C   0  0  0  0  0  0  0  0  0  0  0  0
    7.8700   -2.0610   25.3550 C   0  0  0  0  0  0  0  0  0  0  0  0
    9.5890   -2.4950   23.2210 C   0  0  0  0  0  0  0  0  0  0  0  0
    8.2550   -1.0010   24.5520 C   0  0  0  0  0  0  0  0  0  0  0  0
    7.5840   -0.2700   18.5160 C   0  0  0  0  0  0  0  0  0  0  0  0
    6.1460    0.6070   19.9750 C   0  0  0  0  0  0  0  0  0  0  0  0
   11.9616   -0.1817   23.2889 C   0  0  0  0  0  0  0  0  0  0  0  0
    7.2710   -0.1460   19.8310 C   0  0  0  0  0  0  0  0  0  0  0  0
    5.7970    0.9500   18.6730 C   0  0  0  0  0  0  0  0  0  0  0  0
    8.3450   -3.3440   25.0980 C   0  0  0  0  0  0  0  0  0  0  0  0
    9.1280   -1.2090   23.4870 C   0  0  0  0  0  0  0  0  0  0  0  0
    9.0430    0.2380   21.4940 C   0  0  0  0  0  0  0  0  0  0  0  0
    7.2567   -5.5372   25.3126 C   0  0  0  0  0  0  0  0  0  0  0  0
    7.6788   -4.1707   27.3377 C   0  0  0  0  0  0  0  0  0  0  0  0
    7.3933   -6.7713   26.1972 C   0  0  0  0  0  0  0  0  0  0  0  0
    7.7923   -5.4779   28.1143 C   0  0  0  0  0  0  0  0  0  0  0  0
    8.0950   -0.7700   20.8440 C   0  0  0  0  0  0  0  0  0  0  0  0
   10.7220    0.6590   23.1850 C   0  0  0  0  0  0  0  0  0  0  0  0
    6.7100    0.3850   17.8100 N   0  0  0  0  0  0  0  0  0  0  0  0
    7.9750   -4.4088   25.9208 N   0  0  0  0  0  0  0  0  0  0  0  0
    9.5820   -0.1080   22.7000 N   0  0  0  0  0  0  0  0  0  0  0  0
    9.2950    1.3000   20.9480 O   0  0  0  0  0  0  0  0  0  0  0  0
    6.9647   -6.4816   27.5276 O   0  0  0  0  0  0  0  0  0  0  0  0
   15.1613   -2.3527   23.5555 H   0  0  0  0  0  0  0  0  0  0  0  0
    3.6210    2.0713   21.6574 H   0  0  0  0  0  0  0  0  0  0  0  0
   14.8297   -0.4373   25.0971 H   0  0  0  0  0  0  0  0  0  0  0  0
   13.4443   -2.8780   21.8427 H   0  0  0  0  0  0  0  0  0  0  0  0
    2.9855    2.6924   19.3616 H   0  0  0  0  0  0  0  0  0  0  0  0
    5.6668    0.7411   22.0808 H   0  0  0  0  0  0  0  0  0  0  0  0
   12.7899    0.9506   24.9315 H   0  0  0  0  0  0  0  0  0  0  0  0
   11.4013   -1.4963   21.6690 H   0  0  0  0  0  0  0  0  0  0  0  0
    4.3788    2.0100   17.4223 H   0  0  0  0  0  0  0  0  0  0  0  0
    9.5426   -4.5618   23.7797 H   0  0  0  0  0  0  0  0  0  0  0  0
    7.1914   -1.8824   26.1903 H   0  0  0  0  0  0  0  0  0  0  0  0
   10.2669   -2.6745   22.3854 H   0  0  0  0  0  0  0  0  0  0  0  0
    7.8690   -0.0020   24.7587 H   0  0  0  0  0  0  0  0  0  0  0  0
    8.4186   -0.8125   18.0399 H   0  0  0  0  0  0  0  0  0  0  0  0
    7.6485   -5.7578   24.3096 H   0  0  0  0  0  0  0  0  0  0  0  0
    6.1939   -5.2722   25.2095 H   0  0  0  0  0  0  0  0  0  0  0  0
    6.6565   -3.7738   27.4297 H   0  0  0  0  0  0  0  0  0  0  0  0
    8.3672   -3.4278   27.7648 H   0  0  0  0  0  0  0  0  0  0  0  0
    6.7588   -7.5754   25.8109 H   0  0  0  0  0  0  0  0  0  0  0  0
    8.4246   -7.1441   26.2118 H   0  0  0  0  0  0  0  0  0  0  0  0
    8.8299   -5.8306   28.1591 H   0  0  0  0  0  0  0  0  0  0  0  0
    7.4523   -5.3264   29.1439 H   0  0  0  0  0  0  0  0  0  0  0  0
    7.4761   -1.2062   21.6405 H   0  0  0  0  0  0  0  0  0  0  0  0
    8.7071   -1.5784   20.4200 H   0  0  0  0  0  0  0  0  0  0  0  0
   10.4561    1.0772   24.1620 H   0  0  0  0  0  0  0  0  0  0  0  0
   10.8743    1.5008   22.5014 H   0  0  0  0  0  0  0  0  0  0  0  0
    6.6719    0.4860   16.8043 H   0  0  0  0  0  0  0  0  0  0  0  0
  1  3  1  0  0  0  0
  1  4  2  0  0  0  0
  2  5  1  0  0  0  0
  2  6  2  0  0  0  0
  3  7  2  0  0  0  0
  4  8  1  0  0  0  0
  5  9  2  0  0  0  0
  6 15  1  0  0  0  0
  7 16  1  0  0  0  0
  8 16  2  0  0  0  0
  9 18  1  0  0  0  0
 10 12  2  0  0  0  0
 10 19  1  0  0  0  0
 11 13  1  0  0  0  0
 11 19  2  0  0  0  0
 12 20  1  0  0  0  0
 13 20  2  0  0  0  0
 14 17  2  0  0  0  0
 14 28  1  0  0  0  0
 15 17  1  0  0  0  0
 15 18  2  0  0  0  0
 16 27  1  0  0  0  0
 17 26  1  0  0  0  0
 18 28  1  0  0  0  0
 19 29  1  0  0  0  0
 20 30  1  0  0  0  0
 21 26  1  0  0  0  0
 21 30  1  0  0  0  0
 21 31  2  0  0  0  0
 22 24  1  0  0  0  0
 22 29  1  0  0  0  0
 23 25  1  0  0  0  0
 23 29  1  0  0  0  0
 24 32  1  0  0  0  0
 25 32  1  0  0  0  0
 27 30  1  0  0  0  0
  1 33  1  0  0  0  0
  2 34  1  0  0  0  0
  3 35  1  0  0  0  0
  4 36  1  0  0  0  0
  5 37  1  0  0  0  0
  6 38  1  0  0  0  0
  7 39  1  0  0  0  0
  8 40  1  0  0  0  0
  9 41  1  0  0  0  0
 10 42  1  0  0  0  0
 11 43  1  0  0  0  0
 12 44  1  0  0  0  0
 13 45  1  0  0  0  0
 14 46  1  0  0  0  0
 22 47  1  0  0  0  0
 22 48  1  0  0  0  0
 23 49  1  0  0  0  0
 23 50  1  0  0  0  0
 24 51  1  0  0  0  0
 24 52  1  0  0  0  0
 25 53  1  0  0  0  0
 25 54  1  0  0  0  0
 26 55  1  0  0  0  0
 26 56  1  0  0  0  0
 27 57  1  0  0  0  0
 27 58  1  0  0  0  0
 28 59  1  0  0  0  0
M  END
> <clash_score>
0

> <docking_score>
-9.707539558410645

> <overlap_score>
0.9890388250350952

$$$$
BENZO_472_1
  -OEChem-08222022483D

 56 60  0     0  0  0  0  0  0999 V2000
    4.2460    1.7520   20.8250 C   0  0  0  0  0  0  0  0  0  0  0  0
    3.8860    2.1050   19.5250 C   0  0  0  0  0  0  0  0  0  0  0  0
    5.3890    1.0010   21.0690 C   0  0  0  0  0  0  0  0  0  0  0  0
    4.6610    1.7170   18.4380 C   0  0  0  0  0  0  0  0  0  0  0  0
    9.1890   -3.5540   24.0140 C   0  0  0  0  0  0  0  0  0  0  0  0
    7.8700   -2.0610   25.3550 C   0  0  0  0  0  0  0  0  0  0  0  0
    9.5890   -2.4950   23.2210 C   0  0  0  0  0  0  0  0  0  0  0  0
    8.2550   -1.0010   24.5520 C   0  0  0  0  0  0  0  0  0  0  0  0
   12.6785   -0.3936   24.5018 C   0  0  0  0  0  0  0  0  0  0  0  0
    7.5840   -0.2700   18.5160 C   0  0  0  0  0  0  0  0  0  0  0  0
   13.7775   -1.2037   24.3186 C   0  0  0  0  0  0  0  0  0  0  0  0
   12.5401   -0.8378   22.2246 C   0  0  0  0  0  0  0  0  0  0  0  0
    6.1460    0.6070   19.9750 C   0  0  0  0  0  0  0  0  0  0  0  0
   11.9616   -0.1817   23.2889 C   0  0  0  0  0  0  0  0  0  0  0  0
    7.2710   -0.1460   19.8310 C   0  0  0  0  0  0  0  0  0  0  0  0
    5.7970    0.9500   18.6730 C   0  0  0  0  0  0  0  0  0  0  0  0
    8.3450   -3.3440   25.0980 C   0  0  0  0  0  0  0  0  0  0  0  0
    9.1280   -1.2090   23.4870 C   0  0  0  0  0  0  0  0  0  0  0  0
    9.0430    0.2380   21.4940 C   0  0  0  0  0  0  0  0  0  0  0  0
    8.9529   -5.2008   26.6597 C   0  0  0  0  0  0  0  0  0  0  0  0
    6.6115   -4.5070   26.4386 C   0  0  0  0  0  0  0  0  0  0  0  0
    8.9048   -4.7837   28.1257 C   0  0  0  0  0  0  0  0  0  0  0  0
    6.6383   -4.1241   27.9190 C   0  0  0  0  0  0  0  0  0  0  0  0
    8.0950   -0.7700   20.8440 C   0  0  0  0  0  0  0  0  0  0  0  0
   10.7220    0.6590   23.1850 C   0  0  0  0  0  0  0  0  0  0  0  0
    6.7100    0.3850   17.8100 N   0  0  0  0  0  0  0  0  0  0  0  0
    7.9775   -4.4014   25.9151 N   0  0  0  0  0  0  0  0  0  0  0  0
    9.5820   -0.1080   22.7000 N   0  0  0  0  0  0  0  0  0  0  0  0
    9.2950    1.3000   20.9480 O   0  0  0  0  0  0  0  0  0  0  0  0
    7.5743   -4.9385   28.6342 O   0  0  0  0  0  0  0  0  0  0  0  0
   13.9416   -1.7050   22.6894 S   0  0  0  0  0  0  0  0  0  0  0  0
    3.6210    2.0713   21.6574 H   0  0  0  0  0  0  0  0  0  0  0  0
    2.9855    2.6924   19.3616 H   0  0  0  0  0  0  0  0  0  0  0  0
    5.6668    0.7411   22.0808 H   0  0  0  0  0  0  0  0  0  0  0  0
    4.3788    2.0100   17.4223 H   0  0  0  0  0  0  0  0  0  0  0  0
    9.5426   -4.5618   23.7797 H   0  0  0  0  0  0  0  0  0  0  0  0
    7.1914   -1.8824   26.1903 H   0  0  0  0  0  0  0  0  0  0  0  0
   10.2669   -2.6745   22.3854 H   0  0  0  0  0  0  0  0  0  0  0  0
    7.8690   -0.0020   24.7587 H   0  0  0  0  0  0  0  0  0  0  0  0
   12.4058    0.0253   25.4623 H   0  0  0  0  0  0  0  0  0  0  0  0
    8.4186   -0.8125   18.0399 H   0  0  0  0  0  0  0  0  0  0  0  0
   14.4923   -1.5245   25.0631 H   0  0  0  0  0  0  0  0  0  0  0  0
   12.2108   -0.8511   21.1948 H   0  0  0  0  0  0  0  0  0  0  0  0
    9.9652   -5.0551   26.2694 H   0  0  0  0  0  0  0  0  0  0  0  0
    8.6947   -6.2622   26.5700 H   0  0  0  0  0  0  0  0  0  0  0  0
    6.2616   -5.5374   26.3317 H   0  0  0  0  0  0  0  0  0  0  0  0
    5.9289   -3.8456   25.9013 H   0  0  0  0  0  0  0  0  0  0  0  0
    9.5612   -5.4265   28.7161 H   0  0  0  0  0  0  0  0  0  0  0  0
    9.2354   -3.7503   28.2628 H   0  0  0  0  0  0  0  0  0  0  0  0
    6.8881   -3.0654   28.0554 H   0  0  0  0  0  0  0  0  0  0  0  0
    5.6506   -4.2892   28.3601 H   0  0  0  0  0  0  0  0  0  0  0  0
    7.4761   -1.2062   21.6405 H   0  0  0  0  0  0  0  0  0  0  0  0
    8.7071   -1.5784   20.4200 H   0  0  0  0  0  0  0  0  0  0  0  0
   10.4561    1.0772   24.1620 H   0  0  0  0  0  0  0  0  0  0  0  0
   10.8743    1.5008   22.5014 H   0  0  0  0  0  0  0  0  0  0  0  0
    6.6719    0.4860   16.8043 H   0  0  0  0  0  0  0  0  0  0  0  0
  1  2  1  0  0  0  0
  1  3  2  0  0  0  0
  2  4  2  0  0  0  0
  3 13  1  0  0  0  0
  4 16  1  0  0  0  0
  5  7  2  0  0  0  0
  5 17  1  0  0  0  0
  6  8  1  0  0  0  0
  6 17  2  0  0  0  0
  7 18  1  0  0  0  0
  8 18  2  0  0  0  0
  9 11  2  0  0  0  0
  9 14  1  0  0  0  0
 10 15  2  0  0  0  0
 10 26  1  0  0  0  0
 11 31  1  0  0  0  0
 12 14  2  0  0  0  0
 12 31  1  0  0  0  0
 13 15  1  0  0  0  0
 13 16  2  0  0  0  0
 14 25  1  0  0  0  0
 15 24  1  0  0  0  0
 16 26  1  0  0  0  0
 17 27  1  0  0  0  0
 18 28  1  0  0  0  0
 19 24  1  0  0  0  0
 19 28  1  0  0  0  0
 19 29  2  0  0  0  0
 20 22  1  0  0  0  0
 20 27  1  0  0  0  0
 21 23  1  0  0  0  0
 21 27  1  0  0  0  0
 22 30  1  0  0  0  0
 23 30  1  0  0  0  0
 25 28  1  0  0  0  0
  1 32  1  0  0  0  0
  2 33  1  0  0  0  0
  3 34  1  0  0  0  0
  4 35  1  0  0  0  0
  5 36  1  0  0  0  0
  6 37  1  0  0  0  0
  7 38  1  0  0  0  0
  8 39  1  0  0  0  0
  9 40  1  0  0  0  0
 10 41  1  0  0  0  0
 11 42  1  0  0  0  0
 12 43  1  0  0  0  0
 20 44  1  0  0  0  0
 20 45  1  0  0  0  0
 21 46  1  0  0  0  0
 21 47  1  0  0  0  0
 22 48  1  0  0  0  0
 22 49  1  0  0  0  0
 23 50  1  0  0  0  0
 23 51  1  0  0  0  0
 24 52  1  0  0  0  0
 24 53  1  0  0  0  0
 25 54  1  0  0  0  0
 25 55  1  0  0  0  0
 26 56  1  0  0  0  0
M  END
> <clash_score>
0

> <docking_score>
-9.982209205627441

> <overlap_score>
0.9805784821510315

$$$$
BENZO_471_1
  -OEChem-08222022483D

 60 64  0     0  0  0  0  0  0999 V2000
    4.2460    1.7520   20.8250 C   0  0  0  0  0  0  0  0  0  0  0  0
    3.8860    2.1050   19.5250 C   0  0  0  0  0  0  0  0  0  0  0  0
    5.3890    1.0010   21.0690 C   0  0  0  0  0  0  0  0  0  0  0  0
    4.6610    1.7170   18.4380 C   0  0  0  0  0  0  0  0  0  0  0  0
    9.1890   -3.5540   24.0140 C   0  0  0  0  0  0  0  0  0  0  0  0
    7.8700   -2.0610   25.3550 C   0  0  0  0  0  0  0  0  0  0  0  0
    9.5890   -2.4950   23.2210 C   0  0  0  0  0  0  0  0  0  0  0  0
    8.2550   -1.0010   24.5520 C   0  0  0  0  0  0  0  0  0  0  0  0
   12.7320   -0.4464   24.4370 C   0  0  0  0  0  0  0  0  0  0  0  0
    7.5840   -0.2700   18.5160 C   0  0  0  0  0  0  0  0  0  0  0  0
   12.5970   -0.8682   22.2832 C   0  0  0  0  0  0  0  0  0  0  0  0
    6.1460    0.6070   19.9750 C   0  0  0  0  0  0  0  0  0  0  0  0
   11.9616   -0.1817   23.2889 C   0  0  0  0  0  0  0  0  0  0  0  0
    7.2710   -0.1460   19.8310 C   0  0  0  0  0  0  0  0  0  0  0  0
    5.7970    0.9500   18.6730 C   0  0  0  0  0  0  0  0  0  0  0  0
    8.3450   -3.3440   25.0980 C   0  0  0  0  0  0  0  0  0  0  0  0
    9.1280   -1.2090   23.4870 C   0  0  0  0  0  0  0  0  0  0  0  0
    7.2752   -5.5551   25.4280 C   0  0  0  0  0  0  0  0  0  0  0  0
    9.0430    0.2380   21.4940 C   0  0  0  0  0  0  0  0  0  0  0  0
    7.1875   -6.7796   26.3225 C   0  0  0  0  0  0  0  0  0  0  0  0
    7.0906   -6.4736   27.8012 C   0  0  0  0  0  0  0  0  0  0  0  0
    8.2353   -5.5623   28.1851 C   0  0  0  0  0  0  0  0  0  0  0  0
    8.1236   -4.2644   27.4031 C   0  0  0  0  0  0  0  0  0  0  0  0
   14.6393   -2.3180   22.2082 C   0  0  0  0  0  0  0  0  0  0  0  0
    8.0950   -0.7700   20.8440 C   0  0  0  0  0  0  0  0  0  0  0  0
   10.7220    0.6590   23.1850 C   0  0  0  0  0  0  0  0  0  0  0  0
   13.7770   -1.2393   24.1852 N   0  0  0  0  0  0  0  0  0  0  0  0
    6.7100    0.3850   17.8100 N   0  0  0  0  0  0  0  0  0  0  0  0
   13.6676   -1.4788   22.8673 N   0  0  0  0  0  0  0  0  0  0  0  0
    7.9635   -4.4452   25.9501 N   0  0  0  0  0  0  0  0  0  0  0  0
    9.5820   -0.1080   22.7000 N   0  0  0  0  0  0  0  0  0  0  0  0
    6.7951   -5.6310   24.2937 O   0  0  0  0  0  0  0  0  0  0  0  0
    9.2950    1.3000   20.9480 O   0  0  0  0  0  0  0  0  0  0  0  0
    3.6210    2.0713   21.6574 H   0  0  0  0  0  0  0  0  0  0  0  0
    2.9855    2.6924   19.3616 H   0  0  0  0  0  0  0  0  0  0  0  0
    5.6668    0.7411   22.0808 H   0  0  0  0  0  0  0  0  0  0  0  0
    4.3788    2.0100   17.4223 H   0  0  0  0  0  0  0  0  0  0  0  0
    9.5436   -4.5614   23.7799 H   0  0  0  0  0  0  0  0  0  0  0  0
    7.1918   -1.8823   26.1906 H   0  0  0  0  0  0  0  0  0  0  0  0
   10.2676   -2.6754   22.3861 H   0  0  0  0  0  0  0  0  0  0  0  0
    7.8686   -0.0026   24.7598 H   0  0  0  0  0  0  0  0  0  0  0  0
   12.5771   -0.0965   25.4478 H   0  0  0  0  0  0  0  0  0  0  0  0
    8.4186   -0.8125   18.0399 H   0  0  0  0  0  0  0  0  0  0  0  0
   12.3832   -0.9726   21.2281 H   0  0  0  0  0  0  0  0  0  0  0  0
    6.3096   -7.3610   26.0182 H   0  0  0  0  0  0  0  0  0  0  0  0
    8.0746   -7.3921   26.1207 H   0  0  0  0  0  0  0  0  0  0  0  0
    6.1318   -5.9918   28.0276 H   0  0  0  0  0  0  0  0  0  0  0  0
    7.1350   -7.4030   28.3793 H   0  0  0  0  0  0  0  0  0  0  0  0
    8.2022   -5.3494   29.2594 H   0  0  0  0  0  0  0  0  0  0  0  0
    9.1980   -6.0460   27.9804 H   0  0  0  0  0  0  0  0  0  0  0  0
    7.2509   -3.6987   27.7509 H   0  0  0  0  0  0  0  0  0  0  0  0
    9.0158   -3.6535   27.5803 H   0  0  0  0  0  0  0  0  0  0  0  0
   15.4522   -1.6787   21.8540 H   0  0  0  0  0  0  0  0  0  0  0  0
   15.0179   -3.0612   22.9154 H   0  0  0  0  0  0  0  0  0  0  0  0
   14.1626   -2.8324   21.3691 H   0  0  0  0  0  0  0  0  0  0  0  0
    7.4761   -1.2062   21.6405 H   0  0  0  0  0  0  0  0  0  0  0  0
    8.7071   -1.5784   20.4200 H   0  0  0  0  0  0  0  0  0  0  0  0
   10.4561    1.0772   24.1620 H   0  0  0  0  0  0  0  0  0  0  0  0
   10.8743    1.5008   22.5014 H   0  0  0  0  0  0  0  0  0  0  0  0
    6.6719    0.4860   16.8043 H   0  0  0  0  0  0  0  0  0  0  0  0
  1  2  1  0  0  0  0
  1  3  2  0  0  0  0
  2  4  2  0  0  0  0
  3 12  1  0  0  0  0
  4 15  1  0  0  0  0
  5  7  2  0  0  0  0
  5 16  1  0  0  0  0
  6  8  1  0  0  0  0
  6 16  2  0  0  0  0
  7 17  1  0  0  0  0
  8 17  2  0  0  0  0
  9 13  1  0  0  0  0
  9 27  2  0  0  0  0
 10 14  2  0  0  0  0
 10 28  1  0  0  0  0
 11 13  2  0  0  0  0
 11 29  1  0  0  0  0
 12 14  1  0  0  0  0
 12 15  2  0  0  0  0
 13 26  1  0  0  0  0
 14 25  1  0  0  0  0
 15 28  1  0  0  0  0
 16 30  1  0  0  0  0
 17 31  1  0  0  0  0
 18 20  1  0  0  0  0
 18 30  1  0  0  0  0
 18 32  2  0  0  0  0
 19 25  1  0  0  0  0
 19 31  1  0  0  0  0
 19 33  2  0  0  0  0
 20 21  1  0  0  0  0
 21 22  1  0  0  0  0
 22 23  1  0  0  0  0
 23 30  1  0  0  0  0
 24 29  1  0  0  0  0
 26 31  1  0  0  0  0
 27 29  1  0  0  0  0
  1 34  1  0  0  0  0
  2 35  1  0  0  0  0
  3 36  1  0  0  0  0
  4 37  1  0  0  0  0
  5 38  1  0  0  0  0
  6 39  1  0  0  0  0
  7 40  1  0  0  0  0
  8 41  1  0  0  0  0
  9 42  1  0  0  0  0
 10 43  1  0  0  0  0
 11 44  1  0  0  0  0
 20 45  1  0  0  0  0
 20 46  1  0  0  0  0
 21 47  1  0  0  0  0
 21 48  1  0  0  0  0
 22 49  1  0  0  0  0
 22 50  1  0  0  0  0
 23 51  1  0  0  0  0
 23 52  1  0  0  0  0
 24 53  1  0  0  0  0
 24 54  1  0  0  0  0
 24 55  1  0  0  0  0
 25 56  1  0  0  0  0
 25 57  1  0  0  0  0
 26 58  1  0  0  0  0
 26 59  1  0  0  0  0
 28 60  1  0  0  0  0
M  END
> <clash_score>
0

> <docking_score>
-7.594969749450684

> <overlap_score>
0.9995002150535583

$$$$
BENZO_470_1
  -OEChem-08222022483D

 60 64  0     0  0  0  0  0  0999 V2000
    4.2460    1.7520   20.8250 C   0  0  0  0  0  0  0  0  0  0  0  0
    3.8860    2.1050   19.5250 C   0  0  0  0  0  0  0  0  0  0  0  0
   13.7501   -1.1157   24.6177 C   0  0  0  0  0  0  0  0  0  0  0  0
    5.3890    1.0010   21.0690 C   0  0  0  0  0  0  0  0  0  0  0  0
   12.5991   -0.3339   24.5202 C   0  0  0  0  0  0  0  0  0  0  0  0
    4.6610    1.7170   18.4380 C   0  0  0  0  0  0  0  0  0  0  0  0
    9.1890   -3.5540   24.0140 C   0  0  0  0  0  0  0  0  0  0  0  0
    7.8700   -2.0610   25.3550 C   0  0  0  0  0  0  0  0  0  0  0  0
    9.5890   -2.4950   23.2210 C   0  0  0  0  0  0  0  0  0  0  0  0
    8.2550   -1.0010   24.5520 C   0  0  0  0  0  0  0  0  0  0  0  0
   14.2636   -1.7454   23.4838 C   0  0  0  0  0  0  0  0  0  0  0  0
   12.4750   -0.8115   22.1551 C   0  0  0  0  0  0  0  0  0  0  0  0
    7.5840   -0.2700   18.5160 C   0  0  0  0  0  0  0  0  0  0  0  0
    6.1460    0.6070   19.9750 C   0  0  0  0  0  0  0  0  0  0  0  0
   11.9616   -0.1817   23.2889 C   0  0  0  0  0  0  0  0  0  0  0  0
    7.2710   -0.1460   19.8310 C   0  0  0  0  0  0  0  0  0  0  0  0
    5.7970    0.9500   18.6730 C   0  0  0  0  0  0  0  0  0  0  0  0
    8.3450   -3.3440   25.0980 C   0  0  0  0  0  0  0  0  0  0  0  0
    9.1280   -1.2090   23.4870 C   0  0  0  0  0  0  0  0  0  0  0  0
   13.6261   -1.5933   22.2526 C   0  0  0  0  0  0  0  0  0  0  0  0
    7.2757   -5.5627   25.4482 C   0  0  0  0  0  0  0  0  0  0  0  0
    9.0430    0.2380   21.4940 C   0  0  0  0  0  0  0  0  0  0  0  0
    6.9618   -6.6001   26.5116 C   0  0  0  0  0  0  0  0  0  0  0  0
    6.3751   -5.9428   27.7484 C   0  0  0  0  0  0  0  0  0  0  0  0
    7.2646   -4.8269   28.2875 C   0  0  0  0  0  0  0  0  0  0  0  0
    8.4090   -4.4632   27.3429 C   0  0  0  0  0  0  0  0  0  0  0  0
    8.0950   -0.7700   20.8440 C   0  0  0  0  0  0  0  0  0  0  0  0
   10.7220    0.6590   23.1850 C   0  0  0  0  0  0  0  0  0  0  0  0
    6.7100    0.3850   17.8100 N   0  0  0  0  0  0  0  0  0  0  0  0
    7.9658   -4.4384   25.9449 N   0  0  0  0  0  0  0  0  0  0  0  0
    9.5820   -0.1080   22.7000 N   0  0  0  0  0  0  0  0  0  0  0  0
    6.9864   -5.7897   24.2740 O   0  0  0  0  0  0  0  0  0  0  0  0
    9.2950    1.3000   20.9480 O   0  0  0  0  0  0  0  0  0  0  0  0
   14.2594   -2.3714   20.8543 Cl  0  0  0  0  0  0  0  0  0  0  0  0
    3.6210    2.0713   21.6574 H   0  0  0  0  0  0  0  0  0  0  0  0
    2.9855    2.6924   19.3616 H   0  0  0  0  0  0  0  0  0  0  0  0
   14.2462   -1.2340   25.5767 H   0  0  0  0  0  0  0  0  0  0  0  0
    5.6668    0.7411   22.0808 H   0  0  0  0  0  0  0  0  0  0  0  0
   12.2060    0.1530   25.4088 H   0  0  0  0  0  0  0  0  0  0  0  0
    4.3788    2.0100   17.4223 H   0  0  0  0  0  0  0  0  0  0  0  0
    9.5436   -4.5614   23.7799 H   0  0  0  0  0  0  0  0  0  0  0  0
    7.1918   -1.8823   26.1906 H   0  0  0  0  0  0  0  0  0  0  0  0
   10.2676   -2.6754   22.3861 H   0  0  0  0  0  0  0  0  0  0  0  0
    7.8686   -0.0026   24.7598 H   0  0  0  0  0  0  0  0  0  0  0  0
   15.1613   -2.3520   23.5748 H   0  0  0  0  0  0  0  0  0  0  0  0
   11.9745   -0.6893   21.1973 H   0  0  0  0  0  0  0  0  0  0  0  0
    8.4186   -0.8125   18.0399 H   0  0  0  0  0  0  0  0  0  0  0  0
    6.2492   -7.3024   26.1072 H   0  0  0  0  0  0  0  0  0  0  0  0
    7.8827   -7.1082   26.7559 H   0  0  0  0  0  0  0  0  0  0  0  0
    5.3678   -5.5366   27.5194 H   0  0  0  0  0  0  0  0  0  0  0  0
    6.2158   -6.7064   28.5362 H   0  0  0  0  0  0  0  0  0  0  0  0
    6.6485   -3.9235   28.4802 H   0  0  0  0  0  0  0  0  0  0  0  0
    7.6744   -5.1155   29.2798 H   0  0  0  0  0  0  0  0  0  0  0  0
    8.7785   -3.4721   27.5842 H   0  0  0  0  0  0  0  0  0  0  0  0
    9.2081   -5.1876   27.4485 H   0  0  0  0  0  0  0  0  0  0  0  0
    7.4761   -1.2062   21.6405 H   0  0  0  0  0  0  0  0  0  0  0  0
    8.7071   -1.5784   20.4200 H   0  0  0  0  0  0  0  0  0  0  0  0
   10.4561    1.0772   24.1620 H   0  0  0  0  0  0  0  0  0  0  0  0
   10.8743    1.5008   22.5014 H   0  0  0  0  0  0  0  0  0  0  0  0
    6.6719    0.4860   16.8043 H   0  0  0  0  0  0  0  0  0  0  0  0
  1  2  1  0  0  0  0
  1  4  2  0  0  0  0
  2  6  2  0  0  0  0
  3  5  2  0  0  0  0
  3 11  1  0  0  0  0
  4 14  1  0  0  0  0
  5 15  1  0  0  0  0
  6 17  1  0  0  0  0
  7  9  2  0  0  0  0
  7 18  1  0  0  0  0
  8 10  1  0  0  0  0
  8 18  2  0  0  0  0
  9 19  1  0  0  0  0
 10 19  2  0  0  0  0
 11 20  2  0  0  0  0
 12 15  2  0  0  0  0
 12 20  1  0  0  0  0
 13 16  2  0  0  0  0
 13 29  1  0  0  0  0
 14 16  1  0  0  0  0
 14 17  2  0  0  0  0
 15 28  1  0  0  0  0
 16 27  1  0  0  0  0
 17 29  1  0  0  0  0
 18 30  1  0  0  0  0
 19 31  1  0  0  0  0
 20 34  1  0  0  0  0
 21 23  1  0  0  0  0
 21 30  1  0  0  0  0
 21 32  2  0  0  0  0
 22 27  1  0  0  0  0
 22 31  1  0  0  0  0
 22 33  2  0  0  0  0
 23 24  1  0  0  0  0
 24 25  1  0  0  0  0
 25 26  1  0  0  0  0
 26 30  1  0  0  0  0
 28 31  1  0  0  0  0
  1 35  1  0  0  0  0
  2 36  1  0  0  0  0
  3 37  1  0  0  0  0
  4 38  1  0  0  0  0
  5 39  1  0  0  0  0
  6 40  1  0  0  0  0
  7 41  1  0  0  0  0
  8 42  1  0  0  0  0
  9 43  1  0  0  0  0
 10 44  1  0  0  0  0
 11 45  1  0  0  0  0
 12 46  1  0  0  0  0
 13 47  1  0  0  0  0
 23 48  1  0  0  0  0
 23 49  1  0  0  0  0
 24 50  1  0  0  0  0
 24 51  1  0  0  0  0
 25 52  1  0  0  0  0
 25 53  1  0  0  0  0
 26 54  1  0  0  0  0
 26 55  1  0  0  0  0
 27 56  1  0  0  0  0
 27 57  1  0  0  0  0
 28 58  1  0  0  0  0
 28 59  1  0  0  0  0
 29 60  1  0  0  0  0
M  END
> <clash_score>
0

> <docking_score>
-8.435844421386719

> <overlap_score>
0.9983844757080078

$$$$
BENZO_476_1
  -OEChem-08222022483D

 49 52  0     0  0  0  0  0  0999 V2000
    9.5890   -2.4950   23.2210 C   0  0  0  0  0  0  0  0  0  0  0  0
    8.2550   -1.0010   24.5520 C   0  0  0  0  0  0  0  0  0  0  0  0
    9.1890   -3.5540   24.0140 C   0  0  0  0  0  0  0  0  0  0  0  0
    7.8700   -2.0610   25.3550 C   0  0  0  0  0  0  0  0  0  0  0  0
   12.6785   -0.3936   24.5019 C   0  0  0  0  0  0  0  0  0  0  0  0
   13.7775   -1.2037   24.3186 C   0  0  0  0  0  0  0  0  0  0  0  0
   12.5401   -0.8378   22.2246 C   0  0  0  0  0  0  0  0  0  0  0  0
   11.9616   -0.1817   23.2889 C   0  0  0  0  0  0  0  0  0  0  0  0
    9.1280   -1.2090   23.4870 C   0  0  0  0  0  0  0  0  0  0  0  0
    8.3450   -3.3440   25.0980 C   0  0  0  0  0  0  0  0  0  0  0  0
    5.7970    0.9500   18.6730 C   0  0  0  0  0  0  0  0  0  0  0  0
    7.2710   -0.1460   19.8310 C   0  0  0  0  0  0  0  0  0  0  0  0
    4.6610    1.7170   18.4380 C   0  0  0  0  0  0  0  0  0  0  0  0
    3.8860    2.1050   19.5250 C   0  0  0  0  0  0  0  0  0  0  0  0
    4.2460    1.7520   20.8250 C   0  0  0  0  0  0  0  0  0  0  0  0
    5.3890    1.0010   21.0690 C   0  0  0  0  0  0  0  0  0  0  0  0
    9.0430    0.2380   21.4940 C   0  0  0  0  0  0  0  0  0  0  0  0
    7.2639   -5.5569   25.3796 C   0  0  0  0  0  0  0  0  0  0  0  0
    8.3060   -4.4058   27.3385 C   0  0  0  0  0  0  0  0  0  0  0  0
   10.7220    0.6590   23.1850 C   0  0  0  0  0  0  0  0  0  0  0  0
    8.0950   -0.7700   20.8440 C   0  0  0  0  0  0  0  0  0  0  0  0
    6.7100    0.3850   17.8100 N   0  0  0  0  0  0  0  0  0  0  0  0
    7.5840   -0.2700   18.5160 N   0  0  0  0  0  0  0  0  0  0  0  0
    6.1460    0.6070   19.9750 N   0  0  0  0  0  0  0  0  0  0  0  0
    9.5820   -0.1080   22.7000 N   0  0  0  0  0  0  0  0  0  0  0  0
    7.9731   -4.4180   25.9279 N   0  0  0  0  0  0  0  0  0  0  0  0
    9.2950    1.3000   20.9480 O   0  0  0  0  0  0  0  0  0  0  0  0
   13.9416   -1.7051   22.6894 S   0  0  0  0  0  0  0  0  0  0  0  0
   10.2682   -2.6746   22.3864 H   0  0  0  0  0  0  0  0  0  0  0  0
    7.8692   -0.0022   24.7600 H   0  0  0  0  0  0  0  0  0  0  0  0
    9.5433   -4.5619   23.7809 H   0  0  0  0  0  0  0  0  0  0  0  0
    7.1923   -1.8829   26.1908 H   0  0  0  0  0  0  0  0  0  0  0  0
   12.4058    0.0253   25.4623 H   0  0  0  0  0  0  0  0  0  0  0  0
   14.4923   -1.5246   25.0631 H   0  0  0  0  0  0  0  0  0  0  0  0
   12.2108   -0.8511   21.1948 H   0  0  0  0  0  0  0  0  0  0  0  0
    4.3709    2.0154   17.4453 H   0  0  0  0  0  0  0  0  0  0  0  0
    2.9937    2.6903   19.3398 H   0  0  0  0  0  0  0  0  0  0  0  0
    3.6324    2.0591   21.6820 H   0  0  0  0  0  0  0  0  0  0  0  0
    5.6875    0.7279   22.0567 H   0  0  0  0  0  0  0  0  0  0  0  0
    7.0639   -6.2849   26.1797 H   0  0  0  0  0  0  0  0  0  0  0  0
    6.3116   -5.2206   24.9437 H   0  0  0  0  0  0  0  0  0  0  0  0
    7.8778   -6.0298   24.5989 H   0  0  0  0  0  0  0  0  0  0  0  0
    7.9323   -5.3256   27.8120 H   0  0  0  0  0  0  0  0  0  0  0  0
    9.3983   -4.3503   27.4568 H   0  0  0  0  0  0  0  0  0  0  0  0
    7.8405   -3.5318   27.8175 H   0  0  0  0  0  0  0  0  0  0  0  0
   10.4561    1.0772   24.1620 H   0  0  0  0  0  0  0  0  0  0  0  0
   10.8743    1.5008   22.5014 H   0  0  0  0  0  0  0  0  0  0  0  0
    7.4766   -1.2063   21.6410 H   0  0  0  0  0  0  0  0  0  0  0  0
    8.7076   -1.5785   20.4206 H   0  0  0  0  0  0  0  0  0  0  0  0
  1  3  2  0  0  0  0
  1  9  1  0  0  0  0
  2  4  1  0  0  0  0
  2  9  2  0  0  0  0
  3 10  1  0  0  0  0
  4 10  2  0  0  0  0
  5  6  2  0  0  0  0
  5  8  1  0  0  0  0
  6 28  1  0  0  0  0
  7  8  2  0  0  0  0
  7 28  1  0  0  0  0
  8 20  1  0  0  0  0
  9 25  1  0  0  0  0
 10 26  1  0  0  0  0
 11 13  1  0  0  0  0
 11 22  2  0  0  0  0
 11 24  1  0  0  0  0
 12 21  1  0  0  0  0
 12 23  2  0  0  0  0
 12 24  1  0  0  0  0
 13 14  2  0  0  0  0
 14 15  1  0  0  0  0
 15 16  2  0  0  0  0
 16 24  1  0  0  0  0
 17 21  1  0  0  0  0
 17 25  1  0  0  0  0
 17 27  2  0  0  0  0
 18 26  1  0  0  0  0
 19 26  1  0  0  0  0
 20 25  1  0  0  0  0
 22 23  1  0  0  0  0
  1 29  1  0  0  0  0
  2 30  1  0  0  0  0
  3 31  1  0  0  0  0
  4 32  1  0  0  0  0
  5 33  1  0  0  0  0
  6 34  1  0  0  0  0
  7 35  1  0  0  0  0
 13 36  1  0  0  0  0
 14 37  1  0  0  0  0
 15 38  1  0  0  0  0
 16 39  1  0  0  0  0
 18 40  1  0  0  0  0
 18 41  1  0  0  0  0
 18 42  1  0  0  0  0
 19 43  1  0  0  0  0
 19 44  1  0  0  0  0
 19 45  1  0  0  0  0
 20 46  1  0  0  0  0
 20 47  1  0  0  0  0
 21 48  1  0  0  0  0
 21 49  1  0  0  0  0
M  END
> <clash_score>
0

> <docking_score>
-9.60871410369873

> <overlap_score>
0.9331531524658203

$$$$
BENZO_477_1
  -OEChem-08222022483D

 52 55  0     0  0  0  0  0  0999 V2000
   14.2641   -1.7450   23.4813 C   0  0  0  0  0  0  0  0  0  0  0  0
   14.0779   -0.6681   24.3480 C   0  0  0  0  0  0  0  0  0  0  0  0
   13.2991   -2.0403   22.5184 C   0  0  0  0  0  0  0  0  0  0  0  0
   12.9266    0.1135   24.2518 C   0  0  0  0  0  0  0  0  0  0  0  0
   12.1478   -1.2587   22.4222 C   0  0  0  0  0  0  0  0  0  0  0  0
    9.5890   -2.4950   23.2210 C   0  0  0  0  0  0  0  0  0  0  0  0
    8.2550   -1.0010   24.5520 C   0  0  0  0  0  0  0  0  0  0  0  0
    9.1890   -3.5540   24.0140 C   0  0  0  0  0  0  0  0  0  0  0  0
    7.8700   -2.0610   25.3550 C   0  0  0  0  0  0  0  0  0  0  0  0
   11.9616   -0.1817   23.2889 C   0  0  0  0  0  0  0  0  0  0  0  0
    9.1280   -1.2090   23.4870 C   0  0  0  0  0  0  0  0  0  0  0  0
    8.3450   -3.3440   25.0980 C   0  0  0  0  0  0  0  0  0  0  0  0
    5.7970    0.9500   18.6730 C   0  0  0  0  0  0  0  0  0  0  0  0
    7.2710   -0.1460   19.8310 C   0  0  0  0  0  0  0  0  0  0  0  0
    4.6610    1.7170   18.4380 C   0  0  0  0  0  0  0  0  0  0  0  0
    3.8860    2.1050   19.5250 C   0  0  0  0  0  0  0  0  0  0  0  0
    4.2460    1.7520   20.8250 C   0  0  0  0  0  0  0  0  0  0  0  0
    5.3890    1.0010   21.0690 C   0  0  0  0  0  0  0  0  0  0  0  0
    9.0430    0.2380   21.4940 C   0  0  0  0  0  0  0  0  0  0  0  0
    8.4656   -5.7549   25.6620 C   0  0  0  0  0  0  0  0  0  0  0  0
    7.1039   -4.1993   27.0671 C   0  0  0  0  0  0  0  0  0  0  0  0
   10.7220    0.6590   23.1850 C   0  0  0  0  0  0  0  0  0  0  0  0
    8.0950   -0.7700   20.8440 C   0  0  0  0  0  0  0  0  0  0  0  0
    6.7100    0.3850   17.8100 N   0  0  0  0  0  0  0  0  0  0  0  0
    7.5840   -0.2700   18.5160 N   0  0  0  0  0  0  0  0  0  0  0  0
    6.1460    0.6070   19.9750 N   0  0  0  0  0  0  0  0  0  0  0  0
    9.5820   -0.1080   22.7000 N   0  0  0  0  0  0  0  0  0  0  0  0
    7.9731   -4.4180   25.9279 N   0  0  0  0  0  0  0  0  0  0  0  0
    9.2950    1.3000   20.9480 O   0  0  0  0  0  0  0  0  0  0  0  0
   15.1613   -2.3527   23.5555 H   0  0  0  0  0  0  0  0  0  0  0  0
   14.8297   -0.4373   25.0971 H   0  0  0  0  0  0  0  0  0  0  0  0
   13.4443   -2.8780   21.8427 H   0  0  0  0  0  0  0  0  0  0  0  0
   12.7899    0.9506   24.9315 H   0  0  0  0  0  0  0  0  0  0  0  0
   11.4013   -1.4963   21.6690 H   0  0  0  0  0  0  0  0  0  0  0  0
   10.2682   -2.6746   22.3864 H   0  0  0  0  0  0  0  0  0  0  0  0
    7.8692   -0.0022   24.7600 H   0  0  0  0  0  0  0  0  0  0  0  0
    9.5433   -4.5619   23.7809 H   0  0  0  0  0  0  0  0  0  0  0  0
    7.1923   -1.8829   26.1908 H   0  0  0  0  0  0  0  0  0  0  0  0
    4.3709    2.0154   17.4453 H   0  0  0  0  0  0  0  0  0  0  0  0
    2.9937    2.6903   19.3398 H   0  0  0  0  0  0  0  0  0  0  0  0
    3.6324    2.0591   21.6820 H   0  0  0  0  0  0  0  0  0  0  0  0
    5.6875    0.7279   22.0567 H   0  0  0  0  0  0  0  0  0  0  0  0
    8.0658   -6.4501   26.4149 H   0  0  0  0  0  0  0  0  0  0  0  0
    8.1404   -6.0728   24.6604 H   0  0  0  0  0  0  0  0  0  0  0  0
    9.5646   -5.7567   25.7084 H   0  0  0  0  0  0  0  0  0  0  0  0
    6.9312   -5.1538   27.5858 H   0  0  0  0  0  0  0  0  0  0  0  0
    7.5780   -3.4870   27.7584 H   0  0  0  0  0  0  0  0  0  0  0  0
    6.1428   -3.7906   26.7217 H   0  0  0  0  0  0  0  0  0  0  0  0
   10.4561    1.0772   24.1620 H   0  0  0  0  0  0  0  0  0  0  0  0
   10.8743    1.5008   22.5014 H   0  0  0  0  0  0  0  0  0  0  0  0
    7.4766   -1.2063   21.6410 H   0  0  0  0  0  0  0  0  0  0  0  0
    8.7076   -1.5785   20.4206 H   0  0  0  0  0  0  0  0  0  0  0  0
  1  2  1  0  0  0  0
  1  3  2  0  0  0  0
  2  4  2  0  0  0  0
  3  5  1  0  0  0  0
  4 10  1  0  0  0  0
  5 10  2  0  0  0  0
  6  8  2  0  0  0  0
  6 11  1  0  0  0  0
  7  9  1  0  0  0  0
  7 11  2  0  0  0  0
  8 12  1  0  0  0  0
  9 12  2  0  0  0  0
 10 22  1  0  0  0  0
 11 27  1  0  0  0  0
 12 28  1  0  0  0  0
 13 15  1  0  0  0  0
 13 24  2  0  0  0  0
 13 26  1  0  0  0  0
 14 23  1  0  0  0  0
 14 25  2  0  0  0  0
 14 26  1  0  0  0  0
 15 16  2  0  0  0  0
 16 17  1  0  0  0  0
 17 18  2  0  0  0  0
 18 26  1  0  0  0  0
 19 23  1  0  0  0  0
 19 27  1  0  0  0  0
 19 29  2  0  0  0  0
 20 28  1  0  0  0  0
 21 28  1  0  0  0  0
 22 27  1  0  0  0  0
 24 25  1  0  0  0  0
  1 30  1  0  0  0  0
  2 31  1  0  0  0  0
  3 32  1  0  0  0  0
  4 33  1  0  0  0  0
  5 34  1  0  0  0  0
  6 35  1  0  0  0  0
  7 36  1  0  0  0  0
  8 37  1  0  0  0  0
  9 38  1  0  0  0  0
 15 39  1  0  0  0  0
 16 40  1  0  0  0  0
 17 41  1  0  0  0  0
 18 42  1  0  0  0  0
 20 43  1  0  0  0  0
 20 44  1  0  0  0  0
 20 45  1  0  0  0  0
 21 46  1  0  0  0  0
 21 47  1  0  0  0  0
 21 48  1  0  0  0  0
 22 49  1  0  0  0  0
 22 50  1  0  0  0  0
 23 51  1  0  0  0  0
 23 52  1  0  0  0  0
M  END
> <clash_score>
0

> <docking_score>
-10.036223411560059

> <overlap_score>
0.9344949722290039

$$$$
BENZO_474_1
  -OEChem-08222022483D

 59 63  0     0  0  0  0  0  0999 V2000
    4.2460    1.7520   20.8250 C   0  0  0  0  0  0  0  0  0  0  0  0
    3.8860    2.1050   19.5250 C   0  0  0  0  0  0  0  0  0  0  0  0
   13.7501   -1.1157   24.6176 C   0  0  0  0  0  0  0  0  0  0  0  0
    5.3890    1.0010   21.0690 C   0  0  0  0  0  0  0  0  0  0  0  0
   12.5991   -0.3339   24.5202 C   0  0  0  0  0  0  0  0  0  0  0  0
    4.6610    1.7170   18.4380 C   0  0  0  0  0  0  0  0  0  0  0  0
    9.1890   -3.5540   24.0140 C   0  0  0  0  0  0  0  0  0  0  0  0
    7.8700   -2.0610   25.3550 C   0  0  0  0  0  0  0  0  0  0  0  0
    9.5890   -2.4950   23.2210 C   0  0  0  0  0  0  0  0  0  0  0  0
    8.2550   -1.0010   24.5520 C   0  0  0  0  0  0  0  0  0  0  0  0
   14.2636   -1.7454   23.4838 C   0  0  0  0  0  0  0  0  0  0  0  0
   12.4750   -0.8115   22.1551 C   0  0  0  0  0  0  0  0  0  0  0  0
    7.5840   -0.2700   18.5160 C   0  0  0  0  0  0  0  0  0  0  0  0
    6.1460    0.6070   19.9750 C   0  0  0  0  0  0  0  0  0  0  0  0
   11.9616   -0.1817   23.2889 C   0  0  0  0  0  0  0  0  0  0  0  0
    7.2710   -0.1460   19.8310 C   0  0  0  0  0  0  0  0  0  0  0  0
    5.7970    0.9500   18.6730 C   0  0  0  0  0  0  0  0  0  0  0  0
    8.3450   -3.3440   25.0980 C   0  0  0  0  0  0  0  0  0  0  0  0
    9.1280   -1.2090   23.4870 C   0  0  0  0  0  0  0  0  0  0  0  0
   13.6260   -1.5933   22.2526 C   0  0  0  0  0  0  0  0  0  0  0  0
    9.0430    0.2380   21.4940 C   0  0  0  0  0  0  0  0  0  0  0  0
    8.9529   -5.2008   26.6597 C   0  0  0  0  0  0  0  0  0  0  0  0
    6.6115   -4.5070   26.4386 C   0  0  0  0  0  0  0  0  0  0  0  0
    8.9048   -4.7837   28.1257 C   0  0  0  0  0  0  0  0  0  0  0  0
    6.6383   -4.1241   27.9190 C   0  0  0  0  0  0  0  0  0  0  0  0
    8.0950   -0.7700   20.8440 C   0  0  0  0  0  0  0  0  0  0  0  0
   10.7220    0.6590   23.1850 C   0  0  0  0  0  0  0  0  0  0  0  0
    6.7100    0.3850   17.8100 N   0  0  0  0  0  0  0  0  0  0  0  0
    7.9775   -4.4014   25.9151 N   0  0  0  0  0  0  0  0  0  0  0  0
    9.5820   -0.1080   22.7000 N   0  0  0  0  0  0  0  0  0  0  0  0
    9.2950    1.3000   20.9480 O   0  0  0  0  0  0  0  0  0  0  0  0
    7.5743   -4.9385   28.6342 O   0  0  0  0  0  0  0  0  0  0  0  0
   14.2594   -2.3714   20.8543 Cl  0  0  0  0  0  0  0  0  0  0  0  0
    3.6210    2.0713   21.6574 H   0  0  0  0  0  0  0  0  0  0  0  0
    2.9855    2.6924   19.3616 H   0  0  0  0  0  0  0  0  0  0  0  0
   14.2462   -1.2340   25.5766 H   0  0  0  0  0  0  0  0  0  0  0  0
    5.6668    0.7411   22.0808 H   0  0  0  0  0  0  0  0  0  0  0  0
   12.2060    0.1530   25.4088 H   0  0  0  0  0  0  0  0  0  0  0  0
    4.3788    2.0100   17.4223 H   0  0  0  0  0  0  0  0  0  0  0  0
    9.5426   -4.5618   23.7797 H   0  0  0  0  0  0  0  0  0  0  0  0
    7.1914   -1.8824   26.1903 H   0  0  0  0  0  0  0  0  0  0  0  0
   10.2669   -2.6745   22.3854 H   0  0  0  0  0  0  0  0  0  0  0  0
    7.8690   -0.0020   24.7587 H   0  0  0  0  0  0  0  0  0  0  0  0
   15.1613   -2.3520   23.5747 H   0  0  0  0  0  0  0  0  0  0  0  0
   11.9745   -0.6893   21.1973 H   0  0  0  0  0  0  0  0  0  0  0  0
    8.4186   -0.8125   18.0399 H   0  0  0  0  0  0  0  0  0  0  0  0
    9.9652   -5.0551   26.2694 H   0  0  0  0  0  0  0  0  0  0  0  0
    8.6947   -6.2622   26.5700 H   0  0  0  0  0  0  0  0  0  0  0  0
    6.2616   -5.5374   26.3317 H   0  0  0  0  0  0  0  0  0  0  0  0
    5.9289   -3.8456   25.9013 H   0  0  0  0  0  0  0  0  0  0  0  0
    9.5612   -5.4265   28.7161 H   0  0  0  0  0  0  0  0  0  0  0  0
    9.2354   -3.7503   28.2628 H   0  0  0  0  0  0  0  0  0  0  0  0
    6.8881   -3.0654   28.0554 H   0  0  0  0  0  0  0  0  0  0  0  0
    5.6506   -4.2892   28.3601 H   0  0  0  0  0  0  0  0  0  0  0  0
    7.4761   -1.2062   21.6405 H   0  0  0  0  0  0  0  0  0  0  0  0
    8.7071   -1.5784   20.4200 H   0  0  0  0  0  0  0  0  0  0  0  0
   10.4561    1.0772   24.1620 H   0  0  0  0  0  0  0  0  0  0  0  0
   10.8743    1.5008   22.5014 H   0  0  0  0  0  0  0  0  0  0  0  0
    6.6719    0.4860   16.8043 H   0  0  0  0  0  0  0  0  0  0  0  0
  1  2  1  0  0  0  0
  1  4  2  0  0  0  0
  2  6  2  0  0  0  0
  3  5  2  0  0  0  0
  3 11  1  0  0  0  0
  4 14  1  0  0  0  0
  5 15  1  0  0  0  0
  6 17  1  0  0  0  0
  7  9  2  0  0  0  0
  7 18  1  0  0  0  0
  8 10  1  0  0  0  0
  8 18  2  0  0  0  0
  9 19  1  0  0  0  0
 10 19  2  0  0  0  0
 11 20  2  0  0  0  0
 12 15  2  0  0  0  0
 12 20  1  0  0  0  0
 13 16  2  0  0  0  0
 13 28  1  0  0  0  0
 14 16  1  0  0  0  0
 14 17  2  0  0  0  0
 15 27  1  0  0  0  0
 16 26  1  0  0  0  0
 17 28  1  0  0  0  0
 18 29  1  0  0  0  0
 19 30  1  0  0  0  0
 20 33  1  0  0  0  0
 21 26  1  0  0  0  0
 21 30  1  0  0  0  0
 21 31  2  0  0  0  0
 22 24  1  0  0  0  0
 22 29  1  0  0  0  0
 23 25  1  0  0  0  0
 23 29  1  0  0  0  0
 24 32  1  0  0  0  0
 25 32  1  0  0  0  0
 27 30  1  0  0  0  0
  1 34  1  0  0  0  0
  2 35  1  0  0  0  0
  3 36  1  0  0  0  0
  4 37  1  0  0  0  0
  5 38  1  0  0  0  0
  6 39  1  0  0  0  0
  7 40  1  0  0  0  0
  8 41  1  0  0  0  0
  9 42  1  0  0  0  0
 10 43  1  0  0  0  0
 11 44  1  0  0  0  0
 12 45  1  0  0  0  0
 13 46  1  0  0  0  0
 22 47  1  0  0  0  0
 22 48  1  0  0  0  0
 23 49  1  0  0  0  0
 23 50  1  0  0  0  0
 24 51  1  0  0  0  0
 24 52  1  0  0  0  0
 25 53  1  0  0  0  0
 25 54  1  0  0  0  0
 26 55  1  0  0  0  0
 26 56  1  0  0  0  0
 27 57  1  0  0  0  0
 27 58  1  0  0  0  0
 28 59  1  0  0  0  0
M  END
> <clash_score>
0

> <docking_score>
-9.495408058166504

> <overlap_score>
1.0017129182815552

$$$$
BENZO_475_1
  -OEChem-08222022483D

 59 63  0     0  0  0  0  0  0999 V2000
    4.2460    1.7520   20.8250 C   0  0  0  0  0  0  0  0  0  0  0  0
    3.8860    2.1050   19.5250 C   0  0  0  0  0  0  0  0  0  0  0  0
    5.3890    1.0010   21.0690 C   0  0  0  0  0  0  0  0  0  0  0  0
    4.6610    1.7170   18.4380 C   0  0  0  0  0  0  0  0  0  0  0  0
    9.1890   -3.5540   24.0140 C   0  0  0  0  0  0  0  0  0  0  0  0
    7.8700   -2.0610   25.3550 C   0  0  0  0  0  0  0  0  0  0  0  0
    9.5890   -2.4950   23.2210 C   0  0  0  0  0  0  0  0  0  0  0  0
    8.2550   -1.0010   24.5520 C   0  0  0  0  0  0  0  0  0  0  0  0
   12.7320   -0.4464   24.4370 C   0  0  0  0  0  0  0  0  0  0  0  0
    7.5840   -0.2700   18.5160 C   0  0  0  0  0  0  0  0  0  0  0  0
   12.5970   -0.8682   22.2832 C   0  0  0  0  0  0  0  0  0  0  0  0
    6.1460    0.6070   19.9750 C   0  0  0  0  0  0  0  0  0  0  0  0
   11.9616   -0.1817   23.2889 C   0  0  0  0  0  0  0  0  0  0  0  0
    7.2710   -0.1460   19.8310 C   0  0  0  0  0  0  0  0  0  0  0  0
    5.7970    0.9500   18.6730 C   0  0  0  0  0  0  0  0  0  0  0  0
    8.3450   -3.3440   25.0980 C   0  0  0  0  0  0  0  0  0  0  0  0
    9.1280   -1.2090   23.4870 C   0  0  0  0  0  0  0  0  0  0  0  0
    9.0430    0.2380   21.4940 C   0  0  0  0  0  0  0  0  0  0  0  0
    8.9529   -5.2008   26.6597 C   0  0  0  0  0  0  0  0  0  0  0  0
    6.6115   -4.5070   26.4386 C   0  0  0  0  0  0  0  0  0  0  0  0
    8.9048   -4.7837   28.1257 C   0  0  0  0  0  0  0  0  0  0  0  0
    6.6383   -4.1241   27.9190 C   0  0  0  0  0  0  0  0  0  0  0  0
   14.6393   -2.3180   22.2082 C   0  0  0  0  0  0  0  0  0  0  0  0
    8.0950   -0.7700   20.8440 C   0  0  0  0  0  0  0  0  0  0  0  0
   10.7220    0.6590   23.1850 C   0  0  0  0  0  0  0  0  0  0  0  0
   13.7770   -1.2393   24.1852 N   0  0  0  0  0  0  0  0  0  0  0  0
    6.7100    0.3850   17.8100 N   0  0  0  0  0  0  0  0  0  0  0  0
   13.6676   -1.4788   22.8673 N   0  0  0  0  0  0  0  0  0  0  0  0
    7.9775   -4.4014   25.9151 N   0  0  0  0  0  0  0  0  0  0  0  0
    9.5820   -0.1080   22.7000 N   0  0  0  0  0  0  0  0  0  0  0  0
    9.2950    1.3000   20.9480 O   0  0  0  0  0  0  0  0  0  0  0  0
    7.5743   -4.9385   28.6342 O   0  0  0  0  0  0  0  0  0  0  0  0
    3.6210    2.0713   21.6574 H   0  0  0  0  0  0  0  0  0  0  0  0
    2.9855    2.6924   19.3616 H   0  0  0  0  0  0  0  0  0  0  0  0
    5.6668    0.7411   22.0808 H   0  0  0  0  0  0  0  0  0  0  0  0
    4.3788    2.0100   17.4223 H   0  0  0  0  0  0  0  0  0  0  0  0
    9.5426   -4.5618   23.7797 H   0  0  0  0  0  0  0  0  0  0  0  0
    7.1914   -1.8824   26.1903 H   0  0  0  0  0  0  0  0  0  0  0  0
   10.2669   -2.6745   22.3854 H   0  0  0  0  0  0  0  0  0  0  0  0
    7.8690   -0.0020   24.7587 H   0  0  0  0  0  0  0  0  0  0  0  0
   12.5771   -0.0965   25.4478 H   0  0  0  0  0  0  0  0  0  0  0  0
    8.4186   -0.8125   18.0399 H   0  0  0  0  0  0  0  0  0  0  0  0
   12.3832   -0.9726   21.2281 H   0  0  0  0  0  0  0  0  0  0  0  0
    9.9652   -5.0551   26.2694 H   0  0  0  0  0  0  0  0  0  0  0  0
    8.6947   -6.2622   26.5700 H   0  0  0  0  0  0  0  0  0  0  0  0
    6.2616   -5.5374   26.3317 H   0  0  0  0  0  0  0  0  0  0  0  0
    5.9289   -3.8456   25.9013 H   0  0  0  0  0  0  0  0  0  0  0  0
    9.5612   -5.4265   28.7161 H   0  0  0  0  0  0  0  0  0  0  0  0
    9.2354   -3.7503   28.2628 H   0  0  0  0  0  0  0  0  0  0  0  0
    6.8881   -3.0654   28.0554 H   0  0  0  0  0  0  0  0  0  0  0  0
    5.6506   -4.2892   28.3601 H   0  0  0  0  0  0  0  0  0  0  0  0
   15.4522   -1.6787   21.8540 H   0  0  0  0  0  0  0  0  0  0  0  0
   15.0179   -3.0612   22.9154 H   0  0  0  0  0  0  0  0  0  0  0  0
   14.1626   -2.8324   21.3691 H   0  0  0  0  0  0  0  0  0  0  0  0
    7.4761   -1.2062   21.6405 H   0  0  0  0  0  0  0  0  0  0  0  0
    8.7071   -1.5784   20.4200 H   0  0  0  0  0  0  0  0  0  0  0  0
   10.4561    1.0772   24.1620 H   0  0  0  0  0  0  0  0  0  0  0  0
   10.8743    1.5008   22.5014 H   0  0  0  0  0  0  0  0  0  0  0  0
    6.6719    0.4860   16.8043 H   0  0  0  0  0  0  0  0  0  0  0  0
  1  2  1  0  0  0  0
  1  3  2  0  0  0  0
  2  4  2  0  0  0  0
  3 12  1  0  0  0  0
  4 15  1  0  0  0  0
  5  7  2  0  0  0  0
  5 16  1  0  0  0  0
  6  8  1  0  0  0  0
  6 16  2  0  0  0  0
  7 17  1  0  0  0  0
  8 17  2  0  0  0  0
  9 13  1  0  0  0  0
  9 26  2  0  0  0  0
 10 14  2  0  0  0  0
 10 27  1  0  0  0  0
 11 13  2  0  0  0  0
 11 28  1  0  0  0  0
 12 14  1  0  0  0  0
 12 15  2  0  0  0  0
 13 25  1  0  0  0  0
 14 24  1  0  0  0  0
 15 27  1  0  0  0  0
 16 29  1  0  0  0  0
 17 30  1  0  0  0  0
 18 24  1  0  0  0  0
 18 30  1  0  0  0  0
 18 31  2  0  0  0  0
 19 21  1  0  0  0  0
 19 29  1  0  0  0  0
 20 22  1  0  0  0  0
 20 29  1  0  0  0  0
 21 32  1  0  0  0  0
 22 32  1  0  0  0  0
 23 28  1  0  0  0  0
 25 30  1  0  0  0  0
 26 28  1  0  0  0  0
  1 33  1  0  0  0  0
  2 34  1  0  0  0  0
  3 35  1  0  0  0  0
  4 36  1  0  0  0  0
  5 37  1  0  0  0  0
  6 38  1  0  0  0  0
  7 39  1  0  0  0  0
  8 40  1  0  0  0  0
  9 41  1  0  0  0  0
 10 42  1  0  0  0  0
 11 43  1  0  0  0  0
 19 44  1  0  0  0  0
 19 45  1  0  0  0  0
 20 46  1  0  0  0  0
 20 47  1  0  0  0  0
 21 48  1  0  0  0  0
 21 49  1  0  0  0  0
 22 50  1  0  0  0  0
 22 51  1  0  0  0  0
 23 52  1  0  0  0  0
 23 53  1  0  0  0  0
 23 54  1  0  0  0  0
 24 55  1  0  0  0  0
 24 56  1  0  0  0  0
 25 57  1  0  0  0  0
 25 58  1  0  0  0  0
 27 59  1  0  0  0  0
M  END
> <clash_score>
0

> <docking_score>
-8.731425285339355

> <overlap_score>
0.9972005486488342

$$$$
BENZO_479_1
  -OEChem-08222022483D

 52 55  0     0  0  0  0  0  0999 V2000
    9.5890   -2.4950   23.2210 C   0  0  0  0  0  0  0  0  0  0  0  0
    8.2550   -1.0010   24.5520 C   0  0  0  0  0  0  0  0  0  0  0  0
    9.1890   -3.5540   24.0140 C   0  0  0  0  0  0  0  0  0  0  0  0
    7.8700   -2.0610   25.3550 C   0  0  0  0  0  0  0  0  0  0  0  0
   12.7320   -0.4464   24.4370 C   0  0  0  0  0  0  0  0  0  0  0  0
   12.5970   -0.8682   22.2832 C   0  0  0  0  0  0  0  0  0  0  0  0
   11.9616   -0.1817   23.2889 C   0  0  0  0  0  0  0  0  0  0  0  0
    9.1280   -1.2090   23.4870 C   0  0  0  0  0  0  0  0  0  0  0  0
    8.3450   -3.3440   25.0980 C   0  0  0  0  0  0  0  0  0  0  0  0
    5.7970    0.9500   18.6730 C   0  0  0  0  0  0  0  0  0  0  0  0
    7.2710   -0.1460   19.8310 C   0  0  0  0  0  0  0  0  0  0  0  0
    4.6610    1.7170   18.4380 C   0  0  0  0  0  0  0  0  0  0  0  0
    3.8860    2.1050   19.5250 C   0  0  0  0  0  0  0  0  0  0  0  0
    4.2460    1.7520   20.8250 C   0  0  0  0  0  0  0  0  0  0  0  0
    5.3890    1.0010   21.0690 C   0  0  0  0  0  0  0  0  0  0  0  0
    9.0430    0.2380   21.4940 C   0  0  0  0  0  0  0  0  0  0  0  0
   14.6393   -2.3180   22.2082 C   0  0  0  0  0  0  0  0  0  0  0  0
    7.2639   -5.5569   25.3796 C   0  0  0  0  0  0  0  0  0  0  0  0
    8.3060   -4.4058   27.3385 C   0  0  0  0  0  0  0  0  0  0  0  0
   10.7220    0.6590   23.1850 C   0  0  0  0  0  0  0  0  0  0  0  0
    8.0950   -0.7700   20.8440 C   0  0  0  0  0  0  0  0  0  0  0  0
   13.7770   -1.2393   24.1852 N   0  0  0  0  0  0  0  0  0  0  0  0
    6.7100    0.3850   17.8100 N   0  0  0  0  0  0  0  0  0  0  0  0
    7.5840   -0.2700   18.5160 N   0  0  0  0  0  0  0  0  0  0  0  0
   13.6676   -1.4788   22.8673 N   0  0  0  0  0  0  0  0  0  0  0  0
    6.1460    0.6070   19.9750 N   0  0  0  0  0  0  0  0  0  0  0  0
    9.5820   -0.1080   22.7000 N   0  0  0  0  0  0  0  0  0  0  0  0
    7.9731   -4.4180   25.9279 N   0  0  0  0  0  0  0  0  0  0  0  0
    9.2950    1.3000   20.9480 O   0  0  0  0  0  0  0  0  0  0  0  0
   10.2682   -2.6746   22.3864 H   0  0  0  0  0  0  0  0  0  0  0  0
    7.8692   -0.0022   24.7600 H   0  0  0  0  0  0  0  0  0  0  0  0
    9.5433   -4.5619   23.7809 H   0  0  0  0  0  0  0  0  0  0  0  0
    7.1923   -1.8829   26.1908 H   0  0  0  0  0  0  0  0  0  0  0  0
   12.5771   -0.0965   25.4478 H   0  0  0  0  0  0  0  0  0  0  0  0
   12.3832   -0.9726   21.2281 H   0  0  0  0  0  0  0  0  0  0  0  0
    4.3709    2.0154   17.4453 H   0  0  0  0  0  0  0  0  0  0  0  0
    2.9937    2.6903   19.3398 H   0  0  0  0  0  0  0  0  0  0  0  0
    3.6324    2.0591   21.6820 H   0  0  0  0  0  0  0  0  0  0  0  0
    5.6875    0.7279   22.0567 H   0  0  0  0  0  0  0  0  0  0  0  0
   15.4522   -1.6787   21.8540 H   0  0  0  0  0  0  0  0  0  0  0  0
   15.0179   -3.0613   22.9154 H   0  0  0  0  0  0  0  0  0  0  0  0
   14.1626   -2.8324   21.3691 H   0  0  0  0  0  0  0  0  0  0  0  0
    7.0639   -6.2849   26.1797 H   0  0  0  0  0  0  0  0  0  0  0  0
    6.3116   -5.2206   24.9437 H   0  0  0  0  0  0  0  0  0  0  0  0
    7.8778   -6.0298   24.5989 H   0  0  0  0  0  0  0  0  0  0  0  0
    7.9323   -5.3256   27.8120 H   0  0  0  0  0  0  0  0  0  0  0  0
    9.3983   -4.3503   27.4568 H   0  0  0  0  0  0  0  0  0  0  0  0
    7.8405   -3.5318   27.8175 H   0  0  0  0  0  0  0  0  0  0  0  0
   10.4561    1.0772   24.1620 H   0  0  0  0  0  0  0  0  0  0  0  0
   10.8743    1.5008   22.5014 H   0  0  0  0  0  0  0  0  0  0  0  0
    7.4766   -1.2063   21.6410 H   0  0  0  0  0  0  0  0  0  0  0  0
    8.7076   -1.5785   20.4206 H   0  0  0  0  0  0  0  0  0  0  0  0
  1  3  2  0  0  0  0
  1  8  1  0  0  0  0
  2  4  1  0  0  0  0
  2  8  2  0  0  0  0
  3  9  1  0  0  0  0
  4  9  2  0  0  0  0
  5  7  1  0  0  0  0
  5 22  2  0  0  0  0
  6  7  2  0  0  0  0
  6 25  1  0  0  0  0
  7 20  1  0  0  0  0
  8 27  1  0  0  0  0
  9 28  1  0  0  0  0
 10 12  1  0  0  0  0
 10 23  2  0  0  0  0
 10 26  1  0  0  0  0
 11 21  1  0  0  0  0
 11 24  2  0  0  0  0
 11 26  1  0  0  0  0
 12 13  2  0  0  0  0
 13 14  1  0  0  0  0
 14 15  2  0  0  0  0
 15 26  1  0  0  0  0
 16 21  1  0  0  0  0
 16 27  1  0  0  0  0
 16 29  2  0  0  0  0
 17 25  1  0  0  0  0
 18 28  1  0  0  0  0
 19 28  1  0  0  0  0
 20 27  1  0  0  0  0
 22 25  1  0  0  0  0
 23 24  1  0  0  0  0
  1 30  1  0  0  0  0
  2 31  1  0  0  0  0
  3 32  1  0  0  0  0
  4 33  1  0  0  0  0
  5 34  1  0  0  0  0
  6 35  1  0  0  0  0
 12 36  1  0  0  0  0
 13 37  1  0  0  0  0
 14 38  1  0  0  0  0
 15 39  1  0  0  0  0
 17 40  1  0  0  0  0
 17 41  1  0  0  0  0
 17 42  1  0  0  0  0
 18 43  1  0  0  0  0
 18 44  1  0  0  0  0
 18 45  1  0  0  0  0
 19 46  1  0  0  0  0
 19 47  1  0  0  0  0
 19 48  1  0  0  0  0
 20 49  1  0  0  0  0
 20 50  1  0  0  0  0
 21 51  1  0  0  0  0
 21 52  1  0  0  0  0
M  END
> <clash_score>
0

> <docking_score>
-8.357939720153809

> <overlap_score>
0.9499828815460205

$$$$
BENZO_478_1
  -OEChem-08222022483D

 52 55  0     0  0  0  0  0  0999 V2000
   13.7501   -1.1157   24.6177 C   0  0  0  0  0  0  0  0  0  0  0  0
   12.5991   -0.3339   24.5202 C   0  0  0  0  0  0  0  0  0  0  0  0
    9.5890   -2.4950   23.2210 C   0  0  0  0  0  0  0  0  0  0  0  0
    8.2550   -1.0010   24.5520 C   0  0  0  0  0  0  0  0  0  0  0  0
    9.1890   -3.5540   24.0140 C   0  0  0  0  0  0  0  0  0  0  0  0
    7.8700   -2.0610   25.3550 C   0  0  0  0  0  0  0  0  0  0  0  0
   14.2636   -1.7454   23.4838 C   0  0  0  0  0  0  0  0  0  0  0  0
   12.4750   -0.8115   22.1551 C   0  0  0  0  0  0  0  0  0  0  0  0
   11.9616   -0.1817   23.2889 C   0  0  0  0  0  0  0  0  0  0  0  0
    9.1280   -1.2090   23.4870 C   0  0  0  0  0  0  0  0  0  0  0  0
    8.3450   -3.3440   25.0980 C   0  0  0  0  0  0  0  0  0  0  0  0
   13.6260   -1.5933   22.2526 C   0  0  0  0  0  0  0  0  0  0  0  0
    5.7970    0.9500   18.6730 C   0  0  0  0  0  0  0  0  0  0  0  0
    7.2710   -0.1460   19.8310 C   0  0  0  0  0  0  0  0  0  0  0  0
    4.6610    1.7170   18.4380 C   0  0  0  0  0  0  0  0  0  0  0  0
    3.8860    2.1050   19.5250 C   0  0  0  0  0  0  0  0  0  0  0  0
    4.2460    1.7520   20.8250 C   0  0  0  0  0  0  0  0  0  0  0  0
    5.3890    1.0010   21.0690 C   0  0  0  0  0  0  0  0  0  0  0  0
    9.0430    0.2380   21.4940 C   0  0  0  0  0  0  0  0  0  0  0  0
    7.2639   -5.5569   25.3796 C   0  0  0  0  0  0  0  0  0  0  0  0
    8.3060   -4.4058   27.3385 C   0  0  0  0  0  0  0  0  0  0  0  0
   10.7220    0.6590   23.1850 C   0  0  0  0  0  0  0  0  0  0  0  0
    8.0950   -0.7700   20.8440 C   0  0  0  0  0  0  0  0  0  0  0  0
    6.7100    0.3850   17.8100 N   0  0  0  0  0  0  0  0  0  0  0  0
    7.5840   -0.2700   18.5160 N   0  0  0  0  0  0  0  0  0  0  0  0
    6.1460    0.6070   19.9750 N   0  0  0  0  0  0  0  0  0  0  0  0
    9.5820   -0.1080   22.7000 N   0  0  0  0  0  0  0  0  0  0  0  0
    7.9731   -4.4180   25.9279 N   0  0  0  0  0  0  0  0  0  0  0  0
    9.2950    1.3000   20.9480 O   0  0  0  0  0  0  0  0  0  0  0  0
   14.2594   -2.3714   20.8543 Cl  0  0  0  0  0  0  0  0  0  0  0  0
   14.2462   -1.2340   25.5767 H   0  0  0  0  0  0  0  0  0  0  0  0
   12.2060    0.1530   25.4088 H   0  0  0  0  0  0  0  0  0  0  0  0
   10.2682   -2.6746   22.3864 H   0  0  0  0  0  0  0  0  0  0  0  0
    7.8692   -0.0022   24.7600 H   0  0  0  0  0  0  0  0  0  0  0  0
    9.5433   -4.5619   23.7809 H   0  0  0  0  0  0  0  0  0  0  0  0
    7.1923   -1.8829   26.1908 H   0  0  0  0  0  0  0  0  0  0  0  0
   15.1613   -2.3520   23.5748 H   0  0  0  0  0  0  0  0  0  0  0  0
   11.9745   -0.6893   21.1973 H   0  0  0  0  0  0  0  0  0  0  0  0
    4.3709    2.0154   17.4453 H   0  0  0  0  0  0  0  0  0  0  0  0
    2.9937    2.6903   19.3398 H   0  0  0  0  0  0  0  0  0  0  0  0
    3.6324    2.0591   21.6820 H   0  0  0  0  0  0  0  0  0  0  0  0
    5.6875    0.7279   22.0567 H   0  0  0  0  0  0  0  0  0  0  0  0
    7.0639   -6.2849   26.1797 H   0  0  0  0  0  0  0  0  0  0  0  0
    6.3116   -5.2206   24.9437 H   0  0  0  0  0  0  0  0  0  0  0  0
    7.8778   -6.0298   24.5989 H   0  0  0  0  0  0  0  0  0  0  0  0
    7.9323   -5.3256   27.8120 H   0  0  0  0  0  0  0  0  0  0  0  0
    9.3983   -4.3503   27.4568 H   0  0  0  0  0  0  0  0  0  0  0  0
    7.8405   -3.5318   27.8175 H   0  0  0  0  0  0  0  0  0  0  0  0
   10.4561    1.0772   24.1620 H   0  0  0  0  0  0  0  0  0  0  0  0
   10.8743    1.5008   22.5014 H   0  0  0  0  0  0  0  0  0  0  0  0
    7.4766   -1.2063   21.6410 H   0  0  0  0  0  0  0  0  0  0  0  0
    8.7076   -1.5785   20.4206 H   0  0  0  0  0  0  0  0  0  0  0  0
  1  2  2  0  0  0  0
  1  7  1  0  0  0  0
  2  9  1  0  0  0  0
  3  5  2  0  0  0  0
  3 10  1  0  0  0  0
  4  6  1  0  0  0  0
  4 10  2  0  0  0  0
  5 11  1  0  0  0  0
  6 11  2  0  0  0  0
  7 12  2  0  0  0  0
  8  9  2  0  0  0  0
  8 12  1  0  0  0  0
  9 22  1  0  0  0  0
 10 27  1  0  0  0  0
 11 28  1  0  0  0  0
 12 30  1  0  0  0  0
 13 15  1  0  0  0  0
 13 24  2  0  0  0  0
 13 26  1  0  0  0  0
 14 23  1  0  0  0  0
 14 25  2  0  0  0  0
 14 26  1  0  0  0  0
 15 16  2  0  0  0  0
 16 17  1  0  0  0  0
 17 18  2  0  0  0  0
 18 26  1  0  0  0  0
 19 23  1  0  0  0  0
 19 27  1  0  0  0  0
 19 29  2  0  0  0  0
 20 28  1  0  0  0  0
 21 28  1  0  0  0  0
 22 27  1  0  0  0  0
 24 25  1  0  0  0  0
  1 31  1  0  0  0  0
  2 32  1  0  0  0  0
  3 33  1  0  0  0  0
  4 34  1  0  0  0  0
  5 35  1  0  0  0  0
  6 36  1  0  0  0  0
  7 37  1  0  0  0  0
  8 38  1  0  0  0  0
 15 39  1  0  0  0  0
 16 40  1  0  0  0  0
 17 41  1  0  0  0  0
 18 42  1  0  0  0  0
 20 43  1  0  0  0  0
 20 44  1  0  0  0  0
 20 45  1  0  0  0  0
 21 46  1  0  0  0  0
 21 47  1  0  0  0  0
 21 48  1  0  0  0  0
 22 49  1  0  0  0  0
 22 50  1  0  0  0  0
 23 51  1  0  0  0  0
 23 52  1  0  0  0  0
M  END
> <clash_score>
0

> <docking_score>
-9.12191104888916

> <overlap_score>
0.9545668959617615

$$$$
BENZO_481_1
  -OEChem-08222022483D

 54 57  0     0  0  0  0  0  0999 V2000
   14.2641   -1.7450   23.4813 C   0  0  0  0  0  0  0  0  0  0  0  0
   14.0779   -0.6681   24.3480 C   0  0  0  0  0  0  0  0  0  0  0  0
   13.2991   -2.0403   22.5184 C   0  0  0  0  0  0  0  0  0  0  0  0
   12.9266    0.1135   24.2518 C   0  0  0  0  0  0  0  0  0  0  0  0
   12.1478   -1.2587   22.4222 C   0  0  0  0  0  0  0  0  0  0  0  0
    9.1890   -3.5540   24.0140 C   0  0  0  0  0  0  0  0  0  0  0  0
    7.8700   -2.0610   25.3550 C   0  0  0  0  0  0  0  0  0  0  0  0
    9.5890   -2.4950   23.2210 C   0  0  0  0  0  0  0  0  0  0  0  0
    8.2550   -1.0010   24.5520 C   0  0  0  0  0  0  0  0  0  0  0  0
   11.9616   -0.1817   23.2889 C   0  0  0  0  0  0  0  0  0  0  0  0
    8.3450   -3.3440   25.0980 C   0  0  0  0  0  0  0  0  0  0  0  0
    9.1280   -1.2090   23.4870 C   0  0  0  0  0  0  0  0  0  0  0  0
    5.7970    0.9500   18.6730 C   0  0  0  0  0  0  0  0  0  0  0  0
    7.2710   -0.1460   19.8310 C   0  0  0  0  0  0  0  0  0  0  0  0
    4.6610    1.7170   18.4380 C   0  0  0  0  0  0  0  0  0  0  0  0
    3.8860    2.1050   19.5250 C   0  0  0  0  0  0  0  0  0  0  0  0
    4.2460    1.7520   20.8250 C   0  0  0  0  0  0  0  0  0  0  0  0
    5.3890    1.0010   21.0690 C   0  0  0  0  0  0  0  0  0  0  0  0
    9.0430    0.2380   21.4940 C   0  0  0  0  0  0  0  0  0  0  0  0
    7.1418   -4.3825   27.0483 C   0  0  0  0  0  0  0  0  0  0  0  0
    8.0793   -6.0704   28.6847 C   0  0  0  0  0  0  0  0  0  0  0  0
   10.7220    0.6590   23.1850 C   0  0  0  0  0  0  0  0  0  0  0  0
    8.0950   -0.7700   20.8440 C   0  0  0  0  0  0  0  0  0  0  0  0
    7.0024   -5.7696   27.6577 C   0  0  0  0  0  0  0  0  0  0  0  0
    6.7100    0.3850   17.8100 N   0  0  0  0  0  0  0  0  0  0  0  0
    7.5840   -0.2700   18.5160 N   0  0  0  0  0  0  0  0  0  0  0  0
    6.1460    0.6070   19.9750 N   0  0  0  0  0  0  0  0  0  0  0  0
    7.9771   -4.4058   25.9196 N   0  0  0  0  0  0  0  0  0  0  0  0
    9.5820   -0.1080   22.7000 N   0  0  0  0  0  0  0  0  0  0  0  0
    9.2950    1.3000   20.9480 O   0  0  0  0  0  0  0  0  0  0  0  0
    6.5747   -3.4037   27.5223 O   0  0  0  0  0  0  0  0  0  0  0  0
   15.1613   -2.3527   23.5555 H   0  0  0  0  0  0  0  0  0  0  0  0
   14.8297   -0.4373   25.0971 H   0  0  0  0  0  0  0  0  0  0  0  0
   13.4443   -2.8780   21.8427 H   0  0  0  0  0  0  0  0  0  0  0  0
   12.7899    0.9506   24.9315 H   0  0  0  0  0  0  0  0  0  0  0  0
   11.4013   -1.4963   21.6690 H   0  0  0  0  0  0  0  0  0  0  0  0
    9.5436   -4.5614   23.7799 H   0  0  0  0  0  0  0  0  0  0  0  0
    7.1918   -1.8823   26.1906 H   0  0  0  0  0  0  0  0  0  0  0  0
   10.2676   -2.6754   22.3861 H   0  0  0  0  0  0  0  0  0  0  0  0
    7.8686   -0.0026   24.7598 H   0  0  0  0  0  0  0  0  0  0  0  0
    4.3709    2.0154   17.4453 H   0  0  0  0  0  0  0  0  0  0  0  0
    2.9937    2.6903   19.3398 H   0  0  0  0  0  0  0  0  0  0  0  0
    3.6324    2.0591   21.6820 H   0  0  0  0  0  0  0  0  0  0  0  0
    5.6875    0.7279   22.0567 H   0  0  0  0  0  0  0  0  0  0  0  0
    9.0773   -6.0031   28.2393 H   0  0  0  0  0  0  0  0  0  0  0  0
    7.9515   -7.0804   29.0862 H   0  0  0  0  0  0  0  0  0  0  0  0
    8.0356   -5.3626   29.5190 H   0  0  0  0  0  0  0  0  0  0  0  0
   10.4561    1.0772   24.1620 H   0  0  0  0  0  0  0  0  0  0  0  0
   10.8743    1.5008   22.5014 H   0  0  0  0  0  0  0  0  0  0  0  0
    7.4766   -1.2063   21.6410 H   0  0  0  0  0  0  0  0  0  0  0  0
    8.7076   -1.5785   20.4206 H   0  0  0  0  0  0  0  0  0  0  0  0
    6.0161   -5.8441   28.1300 H   0  0  0  0  0  0  0  0  0  0  0  0
    7.0494   -6.5101   26.8510 H   0  0  0  0  0  0  0  0  0  0  0  0
    8.3624   -5.3252   25.6741 H   0  0  0  0  0  0  0  0  0  0  0  0
  1  2  1  0  0  0  0
  1  3  2  0  0  0  0
  2  4  2  0  0  0  0
  3  5  1  0  0  0  0
  4 10  1  0  0  0  0
  5 10  2  0  0  0  0
  6  8  2  0  0  0  0
  6 11  1  0  0  0  0
  7  9  1  0  0  0  0
  7 11  2  0  0  0  0
  8 12  1  0  0  0  0
  9 12  2  0  0  0  0
 10 22  1  0  0  0  0
 11 28  1  0  0  0  0
 12 29  1  0  0  0  0
 13 15  1  0  0  0  0
 13 25  2  0  0  0  0
 13 27  1  0  0  0  0
 14 23  1  0  0  0  0
 14 26  2  0  0  0  0
 14 27  1  0  0  0  0
 15 16  2  0  0  0  0
 16 17  1  0  0  0  0
 17 18  2  0  0  0  0
 18 27  1  0  0  0  0
 19 23  1  0  0  0  0
 19 29  1  0  0  0  0
 19 30  2  0  0  0  0
 20 24  1  0  0  0  0
 20 28  1  0  0  0  0
 20 31  2  0  0  0  0
 21 24  1  0  0  0  0
 22 29  1  0  0  0  0
 25 26  1  0  0  0  0
  1 32  1  0  0  0  0
  2 33  1  0  0  0  0
  3 34  1  0  0  0  0
  4 35  1  0  0  0  0
  5 36  1  0  0  0  0
  6 37  1  0  0  0  0
  7 38  1  0  0  0  0
  8 39  1  0  0  0  0
  9 40  1  0  0  0  0
 15 41  1  0  0  0  0
 16 42  1  0  0  0  0
 17 43  1  0  0  0  0
 18 44  1  0  0  0  0
 21 45  1  0  0  0  0
 21 46  1  0  0  0  0
 21 47  1  0  0  0  0
 22 48  1  0  0  0  0
 22 49  1  0  0  0  0
 23 50  1  0  0  0  0
 23 51  1  0  0  0  0
 24 52  1  0  0  0  0
 24 53  1  0  0  0  0
 28 54  1  0  0  0  0
M  END
> <clash_score>
0

> <docking_score>
-9.596546173095703

> <overlap_score>
0.9713271260261536

$$$$
BENZO_480_1
  -OEChem-08222022483D

 51 54  0     0  0  0  0  0  0999 V2000
    9.1890   -3.5540   24.0140 C   0  0  0  0  0  0  0  0  0  0  0  0
    7.8700   -2.0610   25.3550 C   0  0  0  0  0  0  0  0  0  0  0  0
    9.5890   -2.4950   23.2210 C   0  0  0  0  0  0  0  0  0  0  0  0
    8.2550   -1.0010   24.5520 C   0  0  0  0  0  0  0  0  0  0  0  0
   12.6785   -0.3936   24.5019 C   0  0  0  0  0  0  0  0  0  0  0  0
   13.7775   -1.2037   24.3186 C   0  0  0  0  0  0  0  0  0  0  0  0
   12.5401   -0.8378   22.2246 C   0  0  0  0  0  0  0  0  0  0  0  0
   11.9616   -0.1817   23.2889 C   0  0  0  0  0  0  0  0  0  0  0  0
    8.3450   -3.3440   25.0980 C   0  0  0  0  0  0  0  0  0  0  0  0
    9.1280   -1.2090   23.4870 C   0  0  0  0  0  0  0  0  0  0  0  0
    5.7970    0.9500   18.6730 C   0  0  0  0  0  0  0  0  0  0  0  0
    7.2710   -0.1460   19.8310 C   0  0  0  0  0  0  0  0  0  0  0  0
    4.6610    1.7170   18.4380 C   0  0  0  0  0  0  0  0  0  0  0  0
    3.8860    2.1050   19.5250 C   0  0  0  0  0  0  0  0  0  0  0  0
    4.2460    1.7520   20.8250 C   0  0  0  0  0  0  0  0  0  0  0  0
    5.3890    1.0010   21.0690 C   0  0  0  0  0  0  0  0  0  0  0  0
    9.0430    0.2380   21.4940 C   0  0  0  0  0  0  0  0  0  0  0  0
    8.2020   -4.5570   27.2975 C   0  0  0  0  0  0  0  0  0  0  0  0
    7.8877   -6.0892   29.2873 C   0  0  0  0  0  0  0  0  0  0  0  0
   10.7220    0.6590   23.1850 C   0  0  0  0  0  0  0  0  0  0  0  0
    8.0950   -0.7700   20.8440 C   0  0  0  0  0  0  0  0  0  0  0  0
    7.6337   -5.8735   27.8062 C   0  0  0  0  0  0  0  0  0  0  0  0
    6.7100    0.3850   17.8100 N   0  0  0  0  0  0  0  0  0  0  0  0
    7.5840   -0.2700   18.5160 N   0  0  0  0  0  0  0  0  0  0  0  0
    6.1460    0.6070   19.9750 N   0  0  0  0  0  0  0  0  0  0  0  0
    7.9771   -4.4058   25.9196 N   0  0  0  0  0  0  0  0  0  0  0  0
    9.5820   -0.1080   22.7000 N   0  0  0  0  0  0  0  0  0  0  0  0
    9.2950    1.3000   20.9480 O   0  0  0  0  0  0  0  0  0  0  0  0
    8.7738   -3.7653   28.0397 O   0  0  0  0  0  0  0  0  0  0  0  0
   13.9416   -1.7051   22.6894 S   0  0  0  0  0  0  0  0  0  0  0  0
    9.5436   -4.5614   23.7799 H   0  0  0  0  0  0  0  0  0  0  0  0
    7.1918   -1.8823   26.1906 H   0  0  0  0  0  0  0  0  0  0  0  0
   10.2676   -2.6754   22.3861 H   0  0  0  0  0  0  0  0  0  0  0  0
    7.8686   -0.0026   24.7598 H   0  0  0  0  0  0  0  0  0  0  0  0
   12.4058    0.0253   25.4623 H   0  0  0  0  0  0  0  0  0  0  0  0
   14.4923   -1.5246   25.0631 H   0  0  0  0  0  0  0  0  0  0  0  0
   12.2108   -0.8511   21.1948 H   0  0  0  0  0  0  0  0  0  0  0  0
    4.3709    2.0154   17.4453 H   0  0  0  0  0  0  0  0  0  0  0  0
    2.9937    2.6903   19.3398 H   0  0  0  0  0  0  0  0  0  0  0  0
    3.6324    2.0591   21.6820 H   0  0  0  0  0  0  0  0  0  0  0  0
    5.6875    0.7279   22.0567 H   0  0  0  0  0  0  0  0  0  0  0  0
    8.9603   -6.0845   29.5072 H   0  0  0  0  0  0  0  0  0  0  0  0
    7.4771   -7.0515   29.6082 H   0  0  0  0  0  0  0  0  0  0  0  0
    7.4190   -5.3008   29.8855 H   0  0  0  0  0  0  0  0  0  0  0  0
   10.4561    1.0772   24.1620 H   0  0  0  0  0  0  0  0  0  0  0  0
   10.8743    1.5008   22.5014 H   0  0  0  0  0  0  0  0  0  0  0  0
    7.4766   -1.2063   21.6410 H   0  0  0  0  0  0  0  0  0  0  0  0
    8.7076   -1.5785   20.4206 H   0  0  0  0  0  0  0  0  0  0  0  0
    6.5544   -5.8829   27.6153 H   0  0  0  0  0  0  0  0  0  0  0  0
    8.0868   -6.6917   27.2346 H   0  0  0  0  0  0  0  0  0  0  0  0
    7.4775   -5.1796   25.4660 H   0  0  0  0  0  0  0  0  0  0  0  0
  1  3  2  0  0  0  0
  1  9  1  0  0  0  0
  2  4  1  0  0  0  0
  2  9  2  0  0  0  0
  3 10  1  0  0  0  0
  4 10  2  0  0  0  0
  5  6  2  0  0  0  0
  5  8  1  0  0  0  0
  6 30  1  0  0  0  0
  7  8  2  0  0  0  0
  7 30  1  0  0  0  0
  8 20  1  0  0  0  0
  9 26  1  0  0  0  0
 10 27  1  0  0  0  0
 11 13  1  0  0  0  0
 11 23  2  0  0  0  0
 11 25  1  0  0  0  0
 12 21  1  0  0  0  0
 12 24  2  0  0  0  0
 12 25  1  0  0  0  0
 13 14  2  0  0  0  0
 14 15  1  0  0  0  0
 15 16  2  0  0  0  0
 16 25  1  0  0  0  0
 17 21  1  0  0  0  0
 17 27  1  0  0  0  0
 17 28  2  0  0  0  0
 18 22  1  0  0  0  0
 18 26  1  0  0  0  0
 18 29  2  0  0  0  0
 19 22  1  0  0  0  0
 20 27  1  0  0  0  0
 23 24  1  0  0  0  0
  1 31  1  0  0  0  0
  2 32  1  0  0  0  0
  3 33  1  0  0  0  0
  4 34  1  0  0  0  0
  5 35  1  0  0  0  0
  6 36  1  0  0  0  0
  7 37  1  0  0  0  0
 13 38  1  0  0  0  0
 14 39  1  0  0  0  0
 15 40  1  0  0  0  0
 16 41  1  0  0  0  0
 19 42  1  0  0  0  0
 19 43  1  0  0  0  0
 19 44  1  0  0  0  0
 20 45  1  0  0  0  0
 20 46  1  0  0  0  0
 21 47  1  0  0  0  0
 21 48  1  0  0  0  0
 22 49  1  0  0  0  0
 22 50  1  0  0  0  0
 26 51  1  0  0  0  0
M  END
> <clash_score>
0

> <docking_score>
-9.887105941772461

> <overlap_score>
0.9895525574684143

$$$$
BENZO_485_1
  -OEChem-08222022483D

 59 63  0     0  0  0  0  0  0999 V2000
   14.2642   -1.7450   23.4813 C   0  0  0  0  0  0  0  0  0  0  0  0
   14.0779   -0.6681   24.3480 C   0  0  0  0  0  0  0  0  0  0  0  0
   13.2991   -2.0403   22.5184 C   0  0  0  0  0  0  0  0  0  0  0  0
   12.9266    0.1135   24.2518 C   0  0  0  0  0  0  0  0  0  0  0  0
   12.1478   -1.2587   22.4222 C   0  0  0  0  0  0  0  0  0  0  0  0
    9.1890   -3.5540   24.0140 C   0  0  0  0  0  0  0  0  0  0  0  0
    7.8700   -2.0610   25.3550 C   0  0  0  0  0  0  0  0  0  0  0  0
    9.5890   -2.4950   23.2210 C   0  0  0  0  0  0  0  0  0  0  0  0
    8.2550   -1.0010   24.5520 C   0  0  0  0  0  0  0  0  0  0  0  0
   11.9616   -0.1817   23.2889 C   0  0  0  0  0  0  0  0  0  0  0  0
    8.3450   -3.3440   25.0980 C   0  0  0  0  0  0  0  0  0  0  0  0
    9.1280   -1.2090   23.4870 C   0  0  0  0  0  0  0  0  0  0  0  0
    5.7970    0.9500   18.6730 C   0  0  0  0  0  0  0  0  0  0  0  0
    7.2710   -0.1460   19.8310 C   0  0  0  0  0  0  0  0  0  0  0  0
    4.6610    1.7170   18.4380 C   0  0  0  0  0  0  0  0  0  0  0  0
    3.8860    2.1050   19.5250 C   0  0  0  0  0  0  0  0  0  0  0  0
    4.2460    1.7520   20.8250 C   0  0  0  0  0  0  0  0  0  0  0  0
    5.3890    1.0010   21.0690 C   0  0  0  0  0  0  0  0  0  0  0  0
    9.0430    0.2380   21.4940 C   0  0  0  0  0  0  0  0  0  0  0  0
    7.3495   -6.6199   27.6701 C   0  0  0  0  0  0  0  0  0  0  0  0
    6.9542   -6.6348   26.1986 C   0  0  0  0  0  0  0  0  0  0  0  0
    7.3959   -5.1872   28.1871 C   0  0  0  0  0  0  0  0  0  0  0  0
    7.8834   -5.7613   25.3569 C   0  0  0  0  0  0  0  0  0  0  0  0
    8.3297   -4.3204   27.3453 C   0  0  0  0  0  0  0  0  0  0  0  0
   10.7220    0.6590   23.1850 C   0  0  0  0  0  0  0  0  0  0  0  0
    8.0950   -0.7700   20.8440 C   0  0  0  0  0  0  0  0  0  0  0  0
    6.7100    0.3850   17.8100 N   0  0  0  0  0  0  0  0  0  0  0  0
    7.5840   -0.2700   18.5160 N   0  0  0  0  0  0  0  0  0  0  0  0
    6.1460    0.6070   19.9750 N   0  0  0  0  0  0  0  0  0  0  0  0
    7.9745   -4.4101   25.9218 N   0  0  0  0  0  0  0  0  0  0  0  0
    9.5820   -0.1080   22.7000 N   0  0  0  0  0  0  0  0  0  0  0  0
    9.2950    1.3000   20.9480 O   0  0  0  0  0  0  0  0  0  0  0  0
   15.1613   -2.3527   23.5555 H   0  0  0  0  0  0  0  0  0  0  0  0
   14.8297   -0.4373   25.0971 H   0  0  0  0  0  0  0  0  0  0  0  0
   13.4443   -2.8780   21.8427 H   0  0  0  0  0  0  0  0  0  0  0  0
   12.7899    0.9506   24.9315 H   0  0  0  0  0  0  0  0  0  0  0  0
   11.4013   -1.4963   21.6690 H   0  0  0  0  0  0  0  0  0  0  0  0
    9.5426   -4.5618   23.7797 H   0  0  0  0  0  0  0  0  0  0  0  0
    7.1914   -1.8824   26.1903 H   0  0  0  0  0  0  0  0  0  0  0  0
   10.2669   -2.6745   22.3854 H   0  0  0  0  0  0  0  0  0  0  0  0
    7.8690   -0.0020   24.7587 H   0  0  0  0  0  0  0  0  0  0  0  0
    4.3709    2.0154   17.4453 H   0  0  0  0  0  0  0  0  0  0  0  0
    2.9937    2.6903   19.3398 H   0  0  0  0  0  0  0  0  0  0  0  0
    3.6324    2.0591   21.6820 H   0  0  0  0  0  0  0  0  0  0  0  0
    5.6875    0.7279   22.0567 H   0  0  0  0  0  0  0  0  0  0  0  0
    6.6275   -7.2030   28.2544 H   0  0  0  0  0  0  0  0  0  0  0  0
    8.3286   -7.0944   27.7981 H   0  0  0  0  0  0  0  0  0  0  0  0
    6.9785   -7.6646   25.8205 H   0  0  0  0  0  0  0  0  0  0  0  0
    5.9224   -6.2815   26.0912 H   0  0  0  0  0  0  0  0  0  0  0  0
    6.3874   -4.7586   28.1744 H   0  0  0  0  0  0  0  0  0  0  0  0
    7.7314   -5.1812   29.2316 H   0  0  0  0  0  0  0  0  0  0  0  0
    8.8752   -6.2297   25.3260 H   0  0  0  0  0  0  0  0  0  0  0  0
    7.5092   -5.7078   24.3260 H   0  0  0  0  0  0  0  0  0  0  0  0
    8.2703   -3.2761   27.6782 H   0  0  0  0  0  0  0  0  0  0  0  0
    9.3614   -4.6600   27.5015 H   0  0  0  0  0  0  0  0  0  0  0  0
   10.4561    1.0772   24.1620 H   0  0  0  0  0  0  0  0  0  0  0  0
   10.8743    1.5008   22.5014 H   0  0  0  0  0  0  0  0  0  0  0  0
    7.4659   -1.2025   21.6292 H   0  0  0  0  0  0  0  0  0  0  0  0
    8.6969   -1.5747   20.4087 H   0  0  0  0  0  0  0  0  0  0  0  0
  1  2  1  0  0  0  0
  1  3  2  0  0  0  0
  2  4  2  0  0  0  0
  3  5  1  0  0  0  0
  4 10  1  0  0  0  0
  5 10  2  0  0  0  0
  6  8  2  0  0  0  0
  6 11  1  0  0  0  0
  7  9  1  0  0  0  0
  7 11  2  0  0  0  0
  8 12  1  0  0  0  0
  9 12  2  0  0  0  0
 10 25  1  0  0  0  0
 11 30  1  0  0  0  0
 12 31  1  0  0  0  0
 13 15  1  0  0  0  0
 13 27  2  0  0  0  0
 13 29  1  0  0  0  0
 14 26  1  0  0  0  0
 14 28  2  0  0  0  0
 14 29  1  0  0  0  0
 15 16  2  0  0  0  0
 16 17  1  0  0  0  0
 17 18  2  0  0  0  0
 18 29  1  0  0  0  0
 19 26  1  0  0  0  0
 19 31  1  0  0  0  0
 19 32  2  0  0  0  0
 20 21  1  0  0  0  0
 20 22  1  0  0  0  0
 21 23  1  0  0  0  0
 22 24  1  0  0  0  0
 23 30  1  0  0  0  0
 24 30  1  0  0  0  0
 25 31  1  0  0  0  0
 27 28  1  0  0  0  0
  1 33  1  0  0  0  0
  2 34  1  0  0  0  0
  3 35  1  0  0  0  0
  4 36  1  0  0  0  0
  5 37  1  0  0  0  0
  6 38  1  0  0  0  0
  7 39  1  0  0  0  0
  8 40  1  0  0  0  0
  9 41  1  0  0  0  0
 15 42  1  0  0  0  0
 16 43  1  0  0  0  0
 17 44  1  0  0  0  0
 18 45  1  0  0  0  0
 20 46  1  0  0  0  0
 20 47  1  0  0  0  0
 21 48  1  0  0  0  0
 21 49  1  0  0  0  0
 22 50  1  0  0  0  0
 22 51  1  0  0  0  0
 23 52  1  0  0  0  0
 23 53  1  0  0  0  0
 24 54  1  0  0  0  0
 24 55  1  0  0  0  0
 25 56  1  0  0  0  0
 25 57  1  0  0  0  0
 26 58  1  0  0  0  0
 26 59  1  0  0  0  0
M  END
> <clash_score>
0

> <docking_score>
-9.681991577148438

> <overlap_score>
0.9952272772789001

$$$$
BENZO_484_1
  -OEChem-08222022483D

 56 60  0     0  0  0  0  0  0999 V2000
    9.1890   -3.5540   24.0140 C   0  0  0  0  0  0  0  0  0  0  0  0
    7.8700   -2.0610   25.3550 C   0  0  0  0  0  0  0  0  0  0  0  0
    9.5890   -2.4950   23.2210 C   0  0  0  0  0  0  0  0  0  0  0  0
    8.2550   -1.0010   24.5520 C   0  0  0  0  0  0  0  0  0  0  0  0
   12.6785   -0.3936   24.5018 C   0  0  0  0  0  0  0  0  0  0  0  0
   13.7775   -1.2037   24.3186 C   0  0  0  0  0  0  0  0  0  0  0  0
   12.5401   -0.8378   22.2246 C   0  0  0  0  0  0  0  0  0  0  0  0
   11.9616   -0.1817   23.2889 C   0  0  0  0  0  0  0  0  0  0  0  0
    8.3450   -3.3440   25.0980 C   0  0  0  0  0  0  0  0  0  0  0  0
    9.1280   -1.2090   23.4870 C   0  0  0  0  0  0  0  0  0  0  0  0
    5.7970    0.9500   18.6730 C   0  0  0  0  0  0  0  0  0  0  0  0
    7.2710   -0.1460   19.8310 C   0  0  0  0  0  0  0  0  0  0  0  0
    4.6610    1.7170   18.4380 C   0  0  0  0  0  0  0  0  0  0  0  0
    3.8860    2.1050   19.5250 C   0  0  0  0  0  0  0  0  0  0  0  0
    4.2460    1.7520   20.8250 C   0  0  0  0  0  0  0  0  0  0  0  0
    5.3890    1.0010   21.0690 C   0  0  0  0  0  0  0  0  0  0  0  0
    9.0430    0.2380   21.4940 C   0  0  0  0  0  0  0  0  0  0  0  0
    7.5748   -4.8280   28.7278 C   0  0  0  0  0  0  0  0  0  0  0  0
    8.9776   -4.7555   28.1204 C   0  0  0  0  0  0  0  0  0  0  0  0
    6.5554   -4.0713   27.8732 C   0  0  0  0  0  0  0  0  0  0  0  0
    8.9620   -5.1961   26.6568 C   0  0  0  0  0  0  0  0  0  0  0  0
    6.6009   -4.5253   26.4110 C   0  0  0  0  0  0  0  0  0  0  0  0
   10.7220    0.6590   23.1850 C   0  0  0  0  0  0  0  0  0  0  0  0
    8.0950   -0.7700   20.8440 C   0  0  0  0  0  0  0  0  0  0  0  0
    6.7100    0.3850   17.8100 N   0  0  0  0  0  0  0  0  0  0  0  0
    7.5840   -0.2700   18.5160 N   0  0  0  0  0  0  0  0  0  0  0  0
    6.1460    0.6070   19.9750 N   0  0  0  0  0  0  0  0  0  0  0  0
    7.9770   -4.4029   25.9162 N   0  0  0  0  0  0  0  0  0  0  0  0
    9.5820   -0.1080   22.7000 N   0  0  0  0  0  0  0  0  0  0  0  0
    9.2950    1.3000   20.9480 O   0  0  0  0  0  0  0  0  0  0  0  0
   13.9416   -1.7050   22.6894 S   0  0  0  0  0  0  0  0  0  0  0  0
    9.5426   -4.5618   23.7797 H   0  0  0  0  0  0  0  0  0  0  0  0
    7.1914   -1.8824   26.1903 H   0  0  0  0  0  0  0  0  0  0  0  0
   10.2669   -2.6745   22.3854 H   0  0  0  0  0  0  0  0  0  0  0  0
    7.8690   -0.0020   24.7587 H   0  0  0  0  0  0  0  0  0  0  0  0
   12.4058    0.0253   25.4623 H   0  0  0  0  0  0  0  0  0  0  0  0
   14.4923   -1.5245   25.0631 H   0  0  0  0  0  0  0  0  0  0  0  0
   12.2108   -0.8511   21.1948 H   0  0  0  0  0  0  0  0  0  0  0  0
    4.3709    2.0154   17.4453 H   0  0  0  0  0  0  0  0  0  0  0  0
    2.9937    2.6903   19.3398 H   0  0  0  0  0  0  0  0  0  0  0  0
    3.6324    2.0591   21.6820 H   0  0  0  0  0  0  0  0  0  0  0  0
    5.6875    0.7279   22.0567 H   0  0  0  0  0  0  0  0  0  0  0  0
    7.2681   -5.8807   28.8239 H   0  0  0  0  0  0  0  0  0  0  0  0
    7.5891   -4.4101   29.7448 H   0  0  0  0  0  0  0  0  0  0  0  0
    9.3554   -3.7320   28.1920 H   0  0  0  0  0  0  0  0  0  0  0  0
    9.6558   -5.3943   28.6900 H   0  0  0  0  0  0  0  0  0  0  0  0
    5.5496   -4.2322   28.2751 H   0  0  0  0  0  0  0  0  0  0  0  0
    6.7545   -2.9948   27.9293 H   0  0  0  0  0  0  0  0  0  0  0  0
    9.9612   -5.0560   26.2363 H   0  0  0  0  0  0  0  0  0  0  0  0
    8.7097   -6.2583   26.5922 H   0  0  0  0  0  0  0  0  0  0  0  0
    6.2649   -5.5600   26.3335 H   0  0  0  0  0  0  0  0  0  0  0  0
    5.9271   -3.8964   25.8283 H   0  0  0  0  0  0  0  0  0  0  0  0
   10.4561    1.0772   24.1620 H   0  0  0  0  0  0  0  0  0  0  0  0
   10.8743    1.5008   22.5014 H   0  0  0  0  0  0  0  0  0  0  0  0
    7.4659   -1.2025   21.6292 H   0  0  0  0  0  0  0  0  0  0  0  0
    8.6969   -1.5747   20.4087 H   0  0  0  0  0  0  0  0  0  0  0  0
  1  3  2  0  0  0  0
  1  9  1  0  0  0  0
  2  4  1  0  0  0  0
  2  9  2  0  0  0  0
  3 10  1  0  0  0  0
  4 10  2  0  0  0  0
  5  6  2  0  0  0  0
  5  8  1  0  0  0  0
  6 31  1  0  0  0  0
  7  8  2  0  0  0  0
  7 31  1  0  0  0  0
  8 23  1  0  0  0  0
  9 28  1  0  0  0  0
 10 29  1  0  0  0  0
 11 13  1  0  0  0  0
 11 25  2  0  0  0  0
 11 27  1  0  0  0  0
 12 24  1  0  0  0  0
 12 26  2  0  0  0  0
 12 27  1  0  0  0  0
 13 14  2  0  0  0  0
 14 15  1  0  0  0  0
 15 16  2  0  0  0  0
 16 27  1  0  0  0  0
 17 24  1  0  0  0  0
 17 29  1  0  0  0  0
 17 30  2  0  0  0  0
 18 19  1  0  0  0  0
 18 20  1  0  0  0  0
 19 21  1  0  0  0  0
 20 22  1  0  0  0  0
 21 28  1  0  0  0  0
 22 28  1  0  0  0  0
 23 29  1  0  0  0  0
 25 26  1  0  0  0  0
  1 32  1  0  0  0  0
  2 33  1  0  0  0  0
  3 34  1  0  0  0  0
  4 35  1  0  0  0  0
  5 36  1  0  0  0  0
  6 37  1  0  0  0  0
  7 38  1  0  0  0  0
 13 39  1  0  0  0  0
 14 40  1  0  0  0  0
 15 41  1  0  0  0  0
 16 42  1  0  0  0  0
 18 43  1  0  0  0  0
 18 44  1  0  0  0  0
 19 45  1  0  0  0  0
 19 46  1  0  0  0  0
 20 47  1  0  0  0  0
 20 48  1  0  0  0  0
 21 49  1  0  0  0  0
 21 50  1  0  0  0  0
 22 51  1  0  0  0  0
 22 52  1  0  0  0  0
 23 53  1  0  0  0  0
 23 54  1  0  0  0  0
 24 55  1  0  0  0  0
 24 56  1  0  0  0  0
M  END
> <clash_score>
0

> <docking_score>
-10.247760772705078

> <overlap_score>
0.9766672849655151

$$$$
BENZO_483_1
  -OEChem-08222022483D

 54 57  0     0  0  0  0  0  0999 V2000
    9.1890   -3.5540   24.0140 C   0  0  0  0  0  0  0  0  0  0  0  0
    7.8700   -2.0610   25.3550 C   0  0  0  0  0  0  0  0  0  0  0  0
    9.5890   -2.4950   23.2210 C   0  0  0  0  0  0  0  0  0  0  0  0
    8.2550   -1.0010   24.5520 C   0  0  0  0  0  0  0  0  0  0  0  0
   12.7320   -0.4464   24.4370 C   0  0  0  0  0  0  0  0  0  0  0  0
   12.5970   -0.8682   22.2832 C   0  0  0  0  0  0  0  0  0  0  0  0
   11.9616   -0.1817   23.2889 C   0  0  0  0  0  0  0  0  0  0  0  0
    8.3450   -3.3440   25.0980 C   0  0  0  0  0  0  0  0  0  0  0  0
    9.1280   -1.2090   23.4870 C   0  0  0  0  0  0  0  0  0  0  0  0
    5.7970    0.9500   18.6730 C   0  0  0  0  0  0  0  0  0  0  0  0
    7.2710   -0.1460   19.8310 C   0  0  0  0  0  0  0  0  0  0  0  0
    4.6610    1.7170   18.4380 C   0  0  0  0  0  0  0  0  0  0  0  0
    3.8860    2.1050   19.5250 C   0  0  0  0  0  0  0  0  0  0  0  0
    4.2460    1.7520   20.8250 C   0  0  0  0  0  0  0  0  0  0  0  0
    5.3890    1.0010   21.0690 C   0  0  0  0  0  0  0  0  0  0  0  0
    9.0430    0.2380   21.4940 C   0  0  0  0  0  0  0  0  0  0  0  0
    8.2020   -4.5570   27.2975 C   0  0  0  0  0  0  0  0  0  0  0  0
    7.8877   -6.0892   29.2873 C   0  0  0  0  0  0  0  0  0  0  0  0
   14.6393   -2.3180   22.2082 C   0  0  0  0  0  0  0  0  0  0  0  0
   10.7220    0.6590   23.1850 C   0  0  0  0  0  0  0  0  0  0  0  0
    8.0950   -0.7700   20.8440 C   0  0  0  0  0  0  0  0  0  0  0  0
    7.6337   -5.8735   27.8062 C   0  0  0  0  0  0  0  0  0  0  0  0
   13.7770   -1.2393   24.1852 N   0  0  0  0  0  0  0  0  0  0  0  0
    6.7100    0.3850   17.8100 N   0  0  0  0  0  0  0  0  0  0  0  0
    7.5840   -0.2700   18.5160 N   0  0  0  0  0  0  0  0  0  0  0  0
   13.6676   -1.4788   22.8673 N   0  0  0  0  0  0  0  0  0  0  0  0
    6.1460    0.6070   19.9750 N   0  0  0  0  0  0  0  0  0  0  0  0
    7.9771   -4.4058   25.9196 N   0  0  0  0  0  0  0  0  0  0  0  0
    9.5820   -0.1080   22.7000 N   0  0  0  0  0  0  0  0  0  0  0  0
    9.2950    1.3000   20.9480 O   0  0  0  0  0  0  0  0  0  0  0  0
    8.7738   -3.7653   28.0397 O   0  0  0  0  0  0  0  0  0  0  0  0
    9.5436   -4.5614   23.7799 H   0  0  0  0  0  0  0  0  0  0  0  0
    7.1918   -1.8823   26.1906 H   0  0  0  0  0  0  0  0  0  0  0  0
   10.2676   -2.6754   22.3861 H   0  0  0  0  0  0  0  0  0  0  0  0
    7.8686   -0.0026   24.7598 H   0  0  0  0  0  0  0  0  0  0  0  0
   12.5771   -0.0965   25.4478 H   0  0  0  0  0  0  0  0  0  0  0  0
   12.3832   -0.9726   21.2281 H   0  0  0  0  0  0  0  0  0  0  0  0
    4.3709    2.0154   17.4453 H   0  0  0  0  0  0  0  0  0  0  0  0
    2.9937    2.6903   19.3398 H   0  0  0  0  0  0  0  0  0  0  0  0
    3.6324    2.0591   21.6820 H   0  0  0  0  0  0  0  0  0  0  0  0
    5.6875    0.7279   22.0567 H   0  0  0  0  0  0  0  0  0  0  0  0
    8.9603   -6.0845   29.5072 H   0  0  0  0  0  0  0  0  0  0  0  0
    7.4771   -7.0515   29.6082 H   0  0  0  0  0  0  0  0  0  0  0  0
    7.4190   -5.3008   29.8855 H   0  0  0  0  0  0  0  0  0  0  0  0
   15.4522   -1.6787   21.8540 H   0  0  0  0  0  0  0  0  0  0  0  0
   15.0179   -3.0613   22.9154 H   0  0  0  0  0  0  0  0  0  0  0  0
   14.1626   -2.8324   21.3691 H   0  0  0  0  0  0  0  0  0  0  0  0
   10.4561    1.0772   24.1620 H   0  0  0  0  0  0  0  0  0  0  0  0
   10.8743    1.5008   22.5014 H   0  0  0  0  0  0  0  0  0  0  0  0
    7.4766   -1.2063   21.6410 H   0  0  0  0  0  0  0  0  0  0  0  0
    8.7076   -1.5785   20.4206 H   0  0  0  0  0  0  0  0  0  0  0  0
    6.5544   -5.8829   27.6153 H   0  0  0  0  0  0  0  0  0  0  0  0
    8.0868   -6.6917   27.2346 H   0  0  0  0  0  0  0  0  0  0  0  0
    7.4775   -5.1796   25.4660 H   0  0  0  0  0  0  0  0  0  0  0  0
  1  3  2  0  0  0  0
  1  8  1  0  0  0  0
  2  4  1  0  0  0  0
  2  8  2  0  0  0  0
  3  9  1  0  0  0  0
  4  9  2  0  0  0  0
  5  7  1  0  0  0  0
  5 23  2  0  0  0  0
  6  7  2  0  0  0  0
  6 26  1  0  0  0  0
  7 20  1  0  0  0  0
  8 28  1  0  0  0  0
  9 29  1  0  0  0  0
 10 12  1  0  0  0  0
 10 24  2  0  0  0  0
 10 27  1  0  0  0  0
 11 21  1  0  0  0  0
 11 25  2  0  0  0  0
 11 27  1  0  0  0  0
 12 13  2  0  0  0  0
 13 14  1  0  0  0  0
 14 15  2  0  0  0  0
 15 27  1  0  0  0  0
 16 21  1  0  0  0  0
 16 29  1  0  0  0  0
 16 30  2  0  0  0  0
 17 22  1  0  0  0  0
 17 28  1  0  0  0  0
 17 31  2  0  0  0  0
 18 22  1  0  0  0  0
 19 26  1  0  0  0  0
 20 29  1  0  0  0  0
 23 26  1  0  0  0  0
 24 25  1  0  0  0  0
  1 32  1  0  0  0  0
  2 33  1  0  0  0  0
  3 34  1  0  0  0  0
  4 35  1  0  0  0  0
  5 36  1  0  0  0  0
  6 37  1  0  0  0  0
 12 38  1  0  0  0  0
 13 39  1  0  0  0  0
 14 40  1  0  0  0  0
 15 41  1  0  0  0  0
 18 42  1  0  0  0  0
 18 43  1  0  0  0  0
 18 44  1  0  0  0  0
 19 45  1  0  0  0  0
 19 46  1  0  0  0  0
 19 47  1  0  0  0  0
 20 48  1  0  0  0  0
 20 49  1  0  0  0  0
 21 50  1  0  0  0  0
 21 51  1  0  0  0  0
 22 52  1  0  0  0  0
 22 53  1  0  0  0  0
 28 54  1  0  0  0  0
M  END
> <clash_score>
0

> <docking_score>
-8.636329650878906

> <overlap_score>
1.0061898231506348

$$$$
BENZO_482_1
  -OEChem-08222022483D

 54 57  0     0  0  0  0  0  0999 V2000
   13.7501   -1.1157   24.6177 C   0  0  0  0  0  0  0  0  0  0  0  0
   12.5991   -0.3339   24.5202 C   0  0  0  0  0  0  0  0  0  0  0  0
    9.1890   -3.5540   24.0140 C   0  0  0  0  0  0  0  0  0  0  0  0
    7.8700   -2.0610   25.3550 C   0  0  0  0  0  0  0  0  0  0  0  0
    9.5890   -2.4950   23.2210 C   0  0  0  0  0  0  0  0  0  0  0  0
    8.2550   -1.0010   24.5520 C   0  0  0  0  0  0  0  0  0  0  0  0
   14.2636   -1.7454   23.4838 C   0  0  0  0  0  0  0  0  0  0  0  0
   12.4750   -0.8115   22.1551 C   0  0  0  0  0  0  0  0  0  0  0  0
   11.9616   -0.1817   23.2889 C   0  0  0  0  0  0  0  0  0  0  0  0
    8.3450   -3.3440   25.0980 C   0  0  0  0  0  0  0  0  0  0  0  0
    9.1280   -1.2090   23.4870 C   0  0  0  0  0  0  0  0  0  0  0  0
   13.6260   -1.5933   22.2526 C   0  0  0  0  0  0  0  0  0  0  0  0
    5.7970    0.9500   18.6730 C   0  0  0  0  0  0  0  0  0  0  0  0
    7.2710   -0.1460   19.8310 C   0  0  0  0  0  0  0  0  0  0  0  0
    4.6610    1.7170   18.4380 C   0  0  0  0  0  0  0  0  0  0  0  0
    3.8860    2.1050   19.5250 C   0  0  0  0  0  0  0  0  0  0  0  0
    4.2460    1.7520   20.8250 C   0  0  0  0  0  0  0  0  0  0  0  0
    5.3890    1.0010   21.0690 C   0  0  0  0  0  0  0  0  0  0  0  0
    9.0430    0.2380   21.4940 C   0  0  0  0  0  0  0  0  0  0  0  0
    8.2020   -4.5570   27.2975 C   0  0  0  0  0  0  0  0  0  0  0  0
    7.8877   -6.0892   29.2873 C   0  0  0  0  0  0  0  0  0  0  0  0
   10.7220    0.6590   23.1850 C   0  0  0  0  0  0  0  0  0  0  0  0
    8.0950   -0.7700   20.8440 C   0  0  0  0  0  0  0  0  0  0  0  0
    7.6337   -5.8735   27.8062 C   0  0  0  0  0  0  0  0  0  0  0  0
    6.7100    0.3850   17.8100 N   0  0  0  0  0  0  0  0  0  0  0  0
    7.5840   -0.2700   18.5160 N   0  0  0  0  0  0  0  0  0  0  0  0
    6.1460    0.6070   19.9750 N   0  0  0  0  0  0  0  0  0  0  0  0
    7.9771   -4.4058   25.9196 N   0  0  0  0  0  0  0  0  0  0  0  0
    9.5820   -0.1080   22.7000 N   0  0  0  0  0  0  0  0  0  0  0  0
    9.2950    1.3000   20.9480 O   0  0  0  0  0  0  0  0  0  0  0  0
    8.7738   -3.7653   28.0397 O   0  0  0  0  0  0  0  0  0  0  0  0
   14.2594   -2.3714   20.8543 Cl  0  0  0  0  0  0  0  0  0  0  0  0
   14.2462   -1.2340   25.5767 H   0  0  0  0  0  0  0  0  0  0  0  0
   12.2060    0.1530   25.4088 H   0  0  0  0  0  0  0  0  0  0  0  0
    9.5436   -4.5614   23.7799 H   0  0  0  0  0  0  0  0  0  0  0  0
    7.1918   -1.8823   26.1906 H   0  0  0  0  0  0  0  0  0  0  0  0
   10.2676   -2.6754   22.3861 H   0  0  0  0  0  0  0  0  0  0  0  0
    7.8686   -0.0026   24.7598 H   0  0  0  0  0  0  0  0  0  0  0  0
   15.1613   -2.3520   23.5748 H   0  0  0  0  0  0  0  0  0  0  0  0
   11.9745   -0.6893   21.1973 H   0  0  0  0  0  0  0  0  0  0  0  0
    4.3709    2.0154   17.4453 H   0  0  0  0  0  0  0  0  0  0  0  0
    2.9937    2.6903   19.3398 H   0  0  0  0  0  0  0  0  0  0  0  0
    3.6324    2.0591   21.6820 H   0  0  0  0  0  0  0  0  0  0  0  0
    5.6875    0.7279   22.0567 H   0  0  0  0  0  0  0  0  0  0  0  0
    8.9603   -6.0845   29.5072 H   0  0  0  0  0  0  0  0  0  0  0  0
    7.4771   -7.0515   29.6082 H   0  0  0  0  0  0  0  0  0  0  0  0
    7.4190   -5.3008   29.8855 H   0  0  0  0  0  0  0  0  0  0  0  0
   10.4561    1.0772   24.1620 H   0  0  0  0  0  0  0  0  0  0  0  0
   10.8743    1.5008   22.5014 H   0  0  0  0  0  0  0  0  0  0  0  0
    7.4766   -1.2063   21.6410 H   0  0  0  0  0  0  0  0  0  0  0  0
    8.7076   -1.5785   20.4206 H   0  0  0  0  0  0  0  0  0  0  0  0
    6.5544   -5.8829   27.6153 H   0  0  0  0  0  0  0  0  0  0  0  0
    8.0868   -6.6917   27.2346 H   0  0  0  0  0  0  0  0  0  0  0  0
    7.4775   -5.1796   25.4660 H   0  0  0  0  0  0  0  0  0  0  0  0
  1  2  2  0  0  0  0
  1  7  1  0  0  0  0
  2  9  1  0  0  0  0
  3  5  2  0  0  0  0
  3 10  1  0  0  0  0
  4  6  1  0  0  0  0
  4 10  2  0  0  0  0
  5 11  1  0  0  0  0
  6 11  2  0  0  0  0
  7 12  2  0  0  0  0
  8  9  2  0  0  0  0
  8 12  1  0  0  0  0
  9 22  1  0  0  0  0
 10 28  1  0  0  0  0
 11 29  1  0  0  0  0
 12 32  1  0  0  0  0
 13 15  1  0  0  0  0
 13 25  2  0  0  0  0
 13 27  1  0  0  0  0
 14 23  1  0  0  0  0
 14 26  2  0  0  0  0
 14 27  1  0  0  0  0
 15 16  2  0  0  0  0
 16 17  1  0  0  0  0
 17 18  2  0  0  0  0
 18 27  1  0  0  0  0
 19 23  1  0  0  0  0
 19 29  1  0  0  0  0
 19 30  2  0  0  0  0
 20 24  1  0  0  0  0
 20 28  1  0  0  0  0
 20 31  2  0  0  0  0
 21 24  1  0  0  0  0
 22 29  1  0  0  0  0
 25 26  1  0  0  0  0
  1 33  1  0  0  0  0
  2 34  1  0  0  0  0
  3 35  1  0  0  0  0
  4 36  1  0  0  0  0
  5 37  1  0  0  0  0
  6 38  1  0  0  0  0
  7 39  1  0  0  0  0
  8 40  1  0  0  0  0
 15 41  1  0  0  0  0
 16 42  1  0  0  0  0
 17 43  1  0  0  0  0
 18 44  1  0  0  0  0
 21 45  1  0  0  0  0
 21 46  1  0  0  0  0
 21 47  1  0  0  0  0
 22 48  1  0  0  0  0
 22 49  1  0  0  0  0
 23 50  1  0  0  0  0
 23 51  1  0  0  0  0
 24 52  1  0  0  0  0
 24 53  1  0  0  0  0
 28 54  1  0  0  0  0
M  END
> <clash_score>
0

> <docking_score>
-9.400303840637207

> <overlap_score>
1.0107033252716064

$$$$
BENZO_489_1
  -OEChem-08222022483D

 47 50  0     0  0  0  0  0  0999 V2000
   14.2641   -1.7450   23.4813 C   0  0  0  0  0  0  0  0  0  0  0  0
   14.0779   -0.6681   24.3480 C   0  0  0  0  0  0  0  0  0  0  0  0
   13.2991   -2.0403   22.5184 C   0  0  0  0  0  0  0  0  0  0  0  0
   12.9266    0.1135   24.2518 C   0  0  0  0  0  0  0  0  0  0  0  0
   12.1478   -1.2587   22.4222 C   0  0  0  0  0  0  0  0  0  0  0  0
    9.1890   -3.5540   24.0140 C   0  0  0  0  0  0  0  0  0  0  0  0
    7.8700   -2.0610   25.3550 C   0  0  0  0  0  0  0  0  0  0  0  0
    9.5890   -2.4950   23.2210 C   0  0  0  0  0  0  0  0  0  0  0  0
    8.2550   -1.0010   24.5520 C   0  0  0  0  0  0  0  0  0  0  0  0
    8.3450   -3.3440   25.0980 C   0  0  0  0  0  0  0  0  0  0  0  0
   11.9616   -0.1817   23.2889 C   0  0  0  0  0  0  0  0  0  0  0  0
    9.1280   -1.2090   23.4870 C   0  0  0  0  0  0  0  0  0  0  0  0
    5.7970    0.9500   18.6730 C   0  0  0  0  0  0  0  0  0  0  0  0
    7.2710   -0.1460   19.8310 C   0  0  0  0  0  0  0  0  0  0  0  0
    4.6610    1.7170   18.4380 C   0  0  0  0  0  0  0  0  0  0  0  0
    3.8860    2.1050   19.5250 C   0  0  0  0  0  0  0  0  0  0  0  0
    4.2460    1.7520   20.8250 C   0  0  0  0  0  0  0  0  0  0  0  0
    5.3890    1.0010   21.0690 C   0  0  0  0  0  0  0  0  0  0  0  0
    9.0430    0.2380   21.4940 C   0  0  0  0  0  0  0  0  0  0  0  0
    7.9522   -4.4794   25.9764 C   0  0  0  0  0  0  0  0  0  0  0  0
   10.7220    0.6590   23.1850 C   0  0  0  0  0  0  0  0  0  0  0  0
    8.0950   -0.7700   20.8440 C   0  0  0  0  0  0  0  0  0  0  0  0
    6.7100    0.3850   17.8100 N   0  0  0  0  0  0  0  0  0  0  0  0
    7.5840   -0.2700   18.5160 N   0  0  0  0  0  0  0  0  0  0  0  0
    6.1460    0.6070   19.9750 N   0  0  0  0  0  0  0  0  0  0  0  0
    9.5820   -0.1080   22.7000 N   0  0  0  0  0  0  0  0  0  0  0  0
    9.2950    1.3000   20.9480 O   0  0  0  0  0  0  0  0  0  0  0  0
   15.1613   -2.3527   23.5555 H   0  0  0  0  0  0  0  0  0  0  0  0
   14.8297   -0.4373   25.0971 H   0  0  0  0  0  0  0  0  0  0  0  0
   13.4443   -2.8780   21.8427 H   0  0  0  0  0  0  0  0  0  0  0  0
   12.7899    0.9506   24.9315 H   0  0  0  0  0  0  0  0  0  0  0  0
   11.4013   -1.4963   21.6690 H   0  0  0  0  0  0  0  0  0  0  0  0
    9.5403   -4.5627   23.7809 H   0  0  0  0  0  0  0  0  0  0  0  0
    7.1911   -1.8848   26.1904 H   0  0  0  0  0  0  0  0  0  0  0  0
   10.2682   -2.6746   22.3865 H   0  0  0  0  0  0  0  0  0  0  0  0
    7.8684   -0.0022   24.7594 H   0  0  0  0  0  0  0  0  0  0  0  0
    4.3709    2.0154   17.4453 H   0  0  0  0  0  0  0  0  0  0  0  0
    2.9937    2.6903   19.3398 H   0  0  0  0  0  0  0  0  0  0  0  0
    3.6324    2.0591   21.6820 H   0  0  0  0  0  0  0  0  0  0  0  0
    5.6875    0.7279   22.0567 H   0  0  0  0  0  0  0  0  0  0  0  0
    8.6668   -4.5891   26.8013 H   0  0  0  0  0  0  0  0  0  0  0  0
    6.9513   -4.3276   26.4010 H   0  0  0  0  0  0  0  0  0  0  0  0
    7.9196   -5.4231   25.4163 H   0  0  0  0  0  0  0  0  0  0  0  0
   10.4561    1.0772   24.1620 H   0  0  0  0  0  0  0  0  0  0  0  0
   10.8743    1.5008   22.5014 H   0  0  0  0  0  0  0  0  0  0  0  0
    7.4766   -1.2063   21.6410 H   0  0  0  0  0  0  0  0  0  0  0  0
    8.7076   -1.5785   20.4206 H   0  0  0  0  0  0  0  0  0  0  0  0
  1  2  1  0  0  0  0
  1  3  2  0  0  0  0
  2  4  2  0  0  0  0
  3  5  1  0  0  0  0
  4 11  1  0  0  0  0
  5 11  2  0  0  0  0
  6  8  2  0  0  0  0
  6 10  1  0  0  0  0
  7  9  1  0  0  0  0
  7 10  2  0  0  0  0
  8 12  1  0  0  0  0
  9 12  2  0  0  0  0
 10 20  1  0  0  0  0
 11 21  1  0  0  0  0
 12 26  1  0  0  0  0
 13 15  1  0  0  0  0
 13 23  2  0  0  0  0
 13 25  1  0  0  0  0
 14 22  1  0  0  0  0
 14 24  2  0  0  0  0
 14 25  1  0  0  0  0
 15 16  2  0  0  0  0
 16 17  1  0  0  0  0
 17 18  2  0  0  0  0
 18 25  1  0  0  0  0
 19 22  1  0  0  0  0
 19 26  1  0  0  0  0
 19 27  2  0  0  0  0
 21 26  1  0  0  0  0
 23 24  1  0  0  0  0
  1 28  1  0  0  0  0
  2 29  1  0  0  0  0
  3 30  1  0  0  0  0
  4 31  1  0  0  0  0
  5 32  1  0  0  0  0
  6 33  1  0  0  0  0
  7 34  1  0  0  0  0
  8 35  1  0  0  0  0
  9 36  1  0  0  0  0
 15 37  1  0  0  0  0
 16 38  1  0  0  0  0
 17 39  1  0  0  0  0
 18 40  1  0  0  0  0
 20 41  1  0  0  0  0
 20 42  1  0  0  0  0
 20 43  1  0  0  0  0
 21 44  1  0  0  0  0
 21 45  1  0  0  0  0
 22 46  1  0  0  0  0
 22 47  1  0  0  0  0
M  END
> <clash_score>
0

> <docking_score>
-9.905974388122559

> <overlap_score>
0.9021970629692078

$$$$
BENZO_488_1
  -OEChem-08222022483D

 44 47  0     0  0  0  0  0  0999 V2000
    9.1890   -3.5540   24.0140 C   0  0  0  0  0  0  0  0  0  0  0  0
    7.8700   -2.0610   25.3550 C   0  0  0  0  0  0  0  0  0  0  0  0
    9.5890   -2.4950   23.2210 C   0  0  0  0  0  0  0  0  0  0  0  0
    8.2550   -1.0010   24.5520 C   0  0  0  0  0  0  0  0  0  0  0  0
   12.6785   -0.3936   24.5019 C   0  0  0  0  0  0  0  0  0  0  0  0
   13.7775   -1.2037   24.3186 C   0  0  0  0  0  0  0  0  0  0  0  0
   12.5401   -0.8378   22.2246 C   0  0  0  0  0  0  0  0  0  0  0  0
    8.3450   -3.3440   25.0980 C   0  0  0  0  0  0  0  0  0  0  0  0
   11.9616   -0.1817   23.2889 C   0  0  0  0  0  0  0  0  0  0  0  0
    9.1280   -1.2090   23.4870 C   0  0  0  0  0  0  0  0  0  0  0  0
    5.7970    0.9500   18.6730 C   0  0  0  0  0  0  0  0  0  0  0  0
    7.2710   -0.1460   19.8310 C   0  0  0  0  0  0  0  0  0  0  0  0
    4.6610    1.7170   18.4380 C   0  0  0  0  0  0  0  0  0  0  0  0
    3.8860    2.1050   19.5250 C   0  0  0  0  0  0  0  0  0  0  0  0
    4.2460    1.7520   20.8250 C   0  0  0  0  0  0  0  0  0  0  0  0
    5.3890    1.0010   21.0690 C   0  0  0  0  0  0  0  0  0  0  0  0
    9.0430    0.2380   21.4940 C   0  0  0  0  0  0  0  0  0  0  0  0
    7.9522   -4.4794   25.9764 C   0  0  0  0  0  0  0  0  0  0  0  0
   10.7220    0.6590   23.1850 C   0  0  0  0  0  0  0  0  0  0  0  0
    8.0950   -0.7700   20.8440 C   0  0  0  0  0  0  0  0  0  0  0  0
    6.7100    0.3850   17.8100 N   0  0  0  0  0  0  0  0  0  0  0  0
    7.5840   -0.2700   18.5160 N   0  0  0  0  0  0  0  0  0  0  0  0
    6.1460    0.6070   19.9750 N   0  0  0  0  0  0  0  0  0  0  0  0
    9.5820   -0.1080   22.7000 N   0  0  0  0  0  0  0  0  0  0  0  0
    9.2950    1.3000   20.9480 O   0  0  0  0  0  0  0  0  0  0  0  0
   13.9416   -1.7051   22.6894 S   0  0  0  0  0  0  0  0  0  0  0  0
    9.5403   -4.5627   23.7809 H   0  0  0  0  0  0  0  0  0  0  0  0
    7.1911   -1.8848   26.1904 H   0  0  0  0  0  0  0  0  0  0  0  0
   10.2682   -2.6746   22.3865 H   0  0  0  0  0  0  0  0  0  0  0  0
    7.8684   -0.0022   24.7594 H   0  0  0  0  0  0  0  0  0  0  0  0
   12.4058    0.0253   25.4623 H   0  0  0  0  0  0  0  0  0  0  0  0
   14.4923   -1.5246   25.0631 H   0  0  0  0  0  0  0  0  0  0  0  0
   12.2108   -0.8511   21.1948 H   0  0  0  0  0  0  0  0  0  0  0  0
    4.3709    2.0154   17.4453 H   0  0  0  0  0  0  0  0  0  0  0  0
    2.9937    2.6903   19.3398 H   0  0  0  0  0  0  0  0  0  0  0  0
    3.6324    2.0591   21.6820 H   0  0  0  0  0  0  0  0  0  0  0  0
    5.6875    0.7279   22.0567 H   0  0  0  0  0  0  0  0  0  0  0  0
    8.6668   -4.5891   26.8013 H   0  0  0  0  0  0  0  0  0  0  0  0
    6.9513   -4.3276   26.4010 H   0  0  0  0  0  0  0  0  0  0  0  0
    7.9196   -5.4231   25.4163 H   0  0  0  0  0  0  0  0  0  0  0  0
   10.4561    1.0772   24.1620 H   0  0  0  0  0  0  0  0  0  0  0  0
   10.8743    1.5008   22.5014 H   0  0  0  0  0  0  0  0  0  0  0  0
    7.4766   -1.2063   21.6410 H   0  0  0  0  0  0  0  0  0  0  0  0
    8.7076   -1.5785   20.4206 H   0  0  0  0  0  0  0  0  0  0  0  0
  1  3  2  0  0  0  0
  1  8  1  0  0  0  0
  2  4  1  0  0  0  0
  2  8  2  0  0  0  0
  3 10  1  0  0  0  0
  4 10  2  0  0  0  0
  5  6  2  0  0  0  0
  5  9  1  0  0  0  0
  6 26  1  0  0  0  0
  7  9  2  0  0  0  0
  7 26  1  0  0  0  0
  8 18  1  0  0  0  0
  9 19  1  0  0  0  0
 10 24  1  0  0  0  0
 11 13  1  0  0  0  0
 11 21  2  0  0  0  0
 11 23  1  0  0  0  0
 12 20  1  0  0  0  0
 12 22  2  0  0  0  0
 12 23  1  0  0  0  0
 13 14  2  0  0  0  0
 14 15  1  0  0  0  0
 15 16  2  0  0  0  0
 16 23  1  0  0  0  0
 17 20  1  0  0  0  0
 17 24  1  0  0  0  0
 17 25  2  0  0  0  0
 19 24  1  0  0  0  0
 21 22  1  0  0  0  0
  1 27  1  0  0  0  0
  2 28  1  0  0  0  0
  3 29  1  0  0  0  0
  4 30  1  0  0  0  0
  5 31  1  0  0  0  0
  6 32  1  0  0  0  0
  7 33  1  0  0  0  0
 13 34  1  0  0  0  0
 14 35  1  0  0  0  0
 15 36  1  0  0  0  0
 16 37  1  0  0  0  0
 18 38  1  0  0  0  0
 18 39  1  0  0  0  0
 18 40  1  0  0  0  0
 19 41  1  0  0  0  0
 19 42  1  0  0  0  0
 20 43  1  0  0  0  0
 20 44  1  0  0  0  0
M  END
> <clash_score>
0

> <docking_score>
-9.346639633178711

> <overlap_score>
0.8884323835372925

$$$$
BENZO_487_1
  -OEChem-08222022483D

 59 63  0     0  0  0  0  0  0999 V2000
    9.1890   -3.5540   24.0140 C   0  0  0  0  0  0  0  0  0  0  0  0
    7.8700   -2.0610   25.3550 C   0  0  0  0  0  0  0  0  0  0  0  0
    9.5890   -2.4950   23.2210 C   0  0  0  0  0  0  0  0  0  0  0  0
    8.2550   -1.0010   24.5520 C   0  0  0  0  0  0  0  0  0  0  0  0
   13.3010    0.2819   23.3762 C   0  0  0  0  0  0  0  0  0  0  0  0
   12.2469   -1.0164   21.9485 C   0  0  0  0  0  0  0  0  0  0  0  0
   12.0277    0.0001   22.8458 C   0  0  0  0  0  0  0  0  0  0  0  0
    8.3450   -3.3440   25.0980 C   0  0  0  0  0  0  0  0  0  0  0  0
    9.1280   -1.2090   23.4870 C   0  0  0  0  0  0  0  0  0  0  0  0
    5.7970    0.9500   18.6730 C   0  0  0  0  0  0  0  0  0  0  0  0
    7.2710   -0.1460   19.8310 C   0  0  0  0  0  0  0  0  0  0  0  0
    4.6610    1.7170   18.4380 C   0  0  0  0  0  0  0  0  0  0  0  0
    3.8860    2.1050   19.5250 C   0  0  0  0  0  0  0  0  0  0  0  0
    4.2460    1.7520   20.8250 C   0  0  0  0  0  0  0  0  0  0  0  0
    5.3890    1.0010   21.0690 C   0  0  0  0  0  0  0  0  0  0  0  0
    9.0430    0.2380   21.4940 C   0  0  0  0  0  0  0  0  0  0  0  0
    7.5748   -4.8280   28.7278 C   0  0  0  0  0  0  0  0  0  0  0  0
    8.9776   -4.7555   28.1204 C   0  0  0  0  0  0  0  0  0  0  0  0
    6.5554   -4.0713   27.8732 C   0  0  0  0  0  0  0  0  0  0  0  0
    8.9620   -5.1961   26.6568 C   0  0  0  0  0  0  0  0  0  0  0  0
    6.6009   -4.5253   26.4110 C   0  0  0  0  0  0  0  0  0  0  0  0
   14.2950   -2.2646   21.2232 C   0  0  0  0  0  0  0  0  0  0  0  0
   10.7220    0.6590   23.1850 C   0  0  0  0  0  0  0  0  0  0  0  0
    8.0950   -0.7700   20.8440 C   0  0  0  0  0  0  0  0  0  0  0  0
   14.2580   -0.4932   22.8591 N   0  0  0  0  0  0  0  0  0  0  0  0
    6.7100    0.3850   17.8100 N   0  0  0  0  0  0  0  0  0  0  0  0
    7.5840   -0.2700   18.5160 N   0  0  0  0  0  0  0  0  0  0  0  0
   13.5858   -1.2720   21.9945 N   0  0  0  0  0  0  0  0  0  0  0  0
    6.1460    0.6070   19.9750 N   0  0  0  0  0  0  0  0  0  0  0  0
    7.9770   -4.4029   25.9162 N   0  0  0  0  0  0  0  0  0  0  0  0
    9.5820   -0.1080   22.7000 N   0  0  0  0  0  0  0  0  0  0  0  0
    9.2950    1.3000   20.9480 O   0  0  0  0  0  0  0  0  0  0  0  0
    9.5426   -4.5618   23.7797 H   0  0  0  0  0  0  0  0  0  0  0  0
    7.1914   -1.8824   26.1903 H   0  0  0  0  0  0  0  0  0  0  0  0
   10.2669   -2.6745   22.3854 H   0  0  0  0  0  0  0  0  0  0  0  0
    7.8690   -0.0020   24.7587 H   0  0  0  0  0  0  0  0  0  0  0  0
   13.5736    1.0185   24.1187 H   0  0  0  0  0  0  0  0  0  0  0  0
   11.5805   -1.5669   21.2983 H   0  0  0  0  0  0  0  0  0  0  0  0
    4.3709    2.0154   17.4453 H   0  0  0  0  0  0  0  0  0  0  0  0
    2.9937    2.6903   19.3398 H   0  0  0  0  0  0  0  0  0  0  0  0
    3.6324    2.0591   21.6820 H   0  0  0  0  0  0  0  0  0  0  0  0
    5.6875    0.7279   22.0567 H   0  0  0  0  0  0  0  0  0  0  0  0
    7.2681   -5.8807   28.8239 H   0  0  0  0  0  0  0  0  0  0  0  0
    7.5891   -4.4101   29.7448 H   0  0  0  0  0  0  0  0  0  0  0  0
    9.3554   -3.7320   28.1920 H   0  0  0  0  0  0  0  0  0  0  0  0
    9.6558   -5.3943   28.6900 H   0  0  0  0  0  0  0  0  0  0  0  0
    5.5496   -4.2322   28.2751 H   0  0  0  0  0  0  0  0  0  0  0  0
    6.7545   -2.9948   27.9293 H   0  0  0  0  0  0  0  0  0  0  0  0
    9.9612   -5.0560   26.2363 H   0  0  0  0  0  0  0  0  0  0  0  0
    8.7097   -6.2583   26.5922 H   0  0  0  0  0  0  0  0  0  0  0  0
    6.2649   -5.5600   26.3335 H   0  0  0  0  0  0  0  0  0  0  0  0
    5.9271   -3.8964   25.8283 H   0  0  0  0  0  0  0  0  0  0  0  0
   14.6200   -1.7975   20.2898 H   0  0  0  0  0  0  0  0  0  0  0  0
   15.1576   -2.6206   21.7932 H   0  0  0  0  0  0  0  0  0  0  0  0
   13.6285   -3.1071   21.0185 H   0  0  0  0  0  0  0  0  0  0  0  0
   10.6163    0.7710   24.2696 H   0  0  0  0  0  0  0  0  0  0  0  0
   10.6620    1.6610   22.7472 H   0  0  0  0  0  0  0  0  0  0  0  0
    7.4659   -1.2025   21.6292 H   0  0  0  0  0  0  0  0  0  0  0  0
    8.6969   -1.5747   20.4087 H   0  0  0  0  0  0  0  0  0  0  0  0
  1  3  2  0  0  0  0
  1  8  1  0  0  0  0
  2  4  1  0  0  0  0
  2  8  2  0  0  0  0
  3  9  1  0  0  0  0
  4  9  2  0  0  0  0
  5  7  1  0  0  0  0
  5 25  2  0  0  0  0
  6  7  2  0  0  0  0
  6 28  1  0  0  0  0
  7 23  1  0  0  0  0
  8 30  1  0  0  0  0
  9 31  1  0  0  0  0
 10 12  1  0  0  0  0
 10 26  2  0  0  0  0
 10 29  1  0  0  0  0
 11 24  1  0  0  0  0
 11 27  2  0  0  0  0
 11 29  1  0  0  0  0
 12 13  2  0  0  0  0
 13 14  1  0  0  0  0
 14 15  2  0  0  0  0
 15 29  1  0  0  0  0
 16 24  1  0  0  0  0
 16 31  1  0  0  0  0
 16 32  2  0  0  0  0
 17 18  1  0  0  0  0
 17 19  1  0  0  0  0
 18 20  1  0  0  0  0
 19 21  1  0  0  0  0
 20 30  1  0  0  0  0
 21 30  1  0  0  0  0
 22 28  1  0  0  0  0
 23 31  1  0  0  0  0
 25 28  1  0  0  0  0
 26 27  1  0  0  0  0
  1 33  1  0  0  0  0
  2 34  1  0  0  0  0
  3 35  1  0  0  0  0
  4 36  1  0  0  0  0
  5 37  1  0  0  0  0
  6 38  1  0  0  0  0
 12 39  1  0  0  0  0
 13 40  1  0  0  0  0
 14 41  1  0  0  0  0
 15 42  1  0  0  0  0
 17 43  1  0  0  0  0
 17 44  1  0  0  0  0
 18 45  1  0  0  0  0
 18 46  1  0  0  0  0
 19 47  1  0  0  0  0
 19 48  1  0  0  0  0
 20 49  1  0  0  0  0
 20 50  1  0  0  0  0
 21 51  1  0  0  0  0
 21 52  1  0  0  0  0
 22 53  1  0  0  0  0
 22 54  1  0  0  0  0
 22 55  1  0  0  0  0
 23 56  1  0  0  0  0
 23 57  1  0  0  0  0
 24 58  1  0  0  0  0
 24 59  1  0  0  0  0
M  END
> <clash_score>
0

> <docking_score>
-10.251035690307617

> <overlap_score>
0.9690293669700623

$$$$
BENZO_486_1
  -OEChem-08222022483D

 59 63  0     0  0  0  0  0  0999 V2000
   13.7501   -1.1157   24.6177 C   0  0  0  0  0  0  0  0  0  0  0  0
   12.5991   -0.3338   24.5202 C   0  0  0  0  0  0  0  0  0  0  0  0
    9.1890   -3.5540   24.0140 C   0  0  0  0  0  0  0  0  0  0  0  0
    7.8700   -2.0610   25.3550 C   0  0  0  0  0  0  0  0  0  0  0  0
    9.5890   -2.4950   23.2210 C   0  0  0  0  0  0  0  0  0  0  0  0
    8.2550   -1.0010   24.5520 C   0  0  0  0  0  0  0  0  0  0  0  0
   14.2636   -1.7454   23.4838 C   0  0  0  0  0  0  0  0  0  0  0  0
   12.4750   -0.8115   22.1551 C   0  0  0  0  0  0  0  0  0  0  0  0
   11.9616   -0.1817   23.2889 C   0  0  0  0  0  0  0  0  0  0  0  0
    8.3450   -3.3440   25.0980 C   0  0  0  0  0  0  0  0  0  0  0  0
    9.1280   -1.2090   23.4870 C   0  0  0  0  0  0  0  0  0  0  0  0
   13.6261   -1.5933   22.2526 C   0  0  0  0  0  0  0  0  0  0  0  0
    5.7970    0.9500   18.6730 C   0  0  0  0  0  0  0  0  0  0  0  0
    7.2710   -0.1460   19.8310 C   0  0  0  0  0  0  0  0  0  0  0  0
    4.6610    1.7170   18.4380 C   0  0  0  0  0  0  0  0  0  0  0  0
    3.8860    2.1050   19.5250 C   0  0  0  0  0  0  0  0  0  0  0  0
    4.2460    1.7520   20.8250 C   0  0  0  0  0  0  0  0  0  0  0  0
    5.3890    1.0010   21.0690 C   0  0  0  0  0  0  0  0  0  0  0  0
    9.0430    0.2380   21.4940 C   0  0  0  0  0  0  0  0  0  0  0  0
    7.5748   -4.8280   28.7278 C   0  0  0  0  0  0  0  0  0  0  0  0
    8.9776   -4.7555   28.1204 C   0  0  0  0  0  0  0  0  0  0  0  0
    6.5554   -4.0713   27.8732 C   0  0  0  0  0  0  0  0  0  0  0  0
    8.9620   -5.1961   26.6568 C   0  0  0  0  0  0  0  0  0  0  0  0
    6.6009   -4.5253   26.4110 C   0  0  0  0  0  0  0  0  0  0  0  0
   10.7220    0.6590   23.1850 C   0  0  0  0  0  0  0  0  0  0  0  0
    8.0950   -0.7700   20.8440 C   0  0  0  0  0  0  0  0  0  0  0  0
    6.7100    0.3850   17.8100 N   0  0  0  0  0  0  0  0  0  0  0  0
    7.5840   -0.2700   18.5160 N   0  0  0  0  0  0  0  0  0  0  0  0
    6.1460    0.6070   19.9750 N   0  0  0  0  0  0  0  0  0  0  0  0
    7.9770   -4.4029   25.9162 N   0  0  0  0  0  0  0  0  0  0  0  0
    9.5820   -0.1080   22.7000 N   0  0  0  0  0  0  0  0  0  0  0  0
    9.2950    1.3000   20.9480 O   0  0  0  0  0  0  0  0  0  0  0  0
   14.2594   -2.3714   20.8543 Cl  0  0  0  0  0  0  0  0  0  0  0  0
   14.2462   -1.2340   25.5766 H   0  0  0  0  0  0  0  0  0  0  0  0
   12.2060    0.1530   25.4088 H   0  0  0  0  0  0  0  0  0  0  0  0
    9.5426   -4.5618   23.7797 H   0  0  0  0  0  0  0  0  0  0  0  0
    7.1914   -1.8824   26.1903 H   0  0  0  0  0  0  0  0  0  0  0  0
   10.2669   -2.6745   22.3854 H   0  0  0  0  0  0  0  0  0  0  0  0
    7.8690   -0.0020   24.7587 H   0  0  0  0  0  0  0  0  0  0  0  0
   15.1613   -2.3520   23.5747 H   0  0  0  0  0  0  0  0  0  0  0  0
   11.9745   -0.6893   21.1973 H   0  0  0  0  0  0  0  0  0  0  0  0
    4.3709    2.0154   17.4453 H   0  0  0  0  0  0  0  0  0  0  0  0
    2.9937    2.6903   19.3398 H   0  0  0  0  0  0  0  0  0  0  0  0
    3.6324    2.0591   21.6820 H   0  0  0  0  0  0  0  0  0  0  0  0
    5.6875    0.7279   22.0567 H   0  0  0  0  0  0  0  0  0  0  0  0
    7.2681   -5.8807   28.8239 H   0  0  0  0  0  0  0  0  0  0  0  0
    7.5891   -4.4101   29.7448 H   0  0  0  0  0  0  0  0  0  0  0  0
    9.3554   -3.7320   28.1920 H   0  0  0  0  0  0  0  0  0  0  0  0
    9.6558   -5.3943   28.6900 H   0  0  0  0  0  0  0  0  0  0  0  0
    5.5496   -4.2322   28.2751 H   0  0  0  0  0  0  0  0  0  0  0  0
    6.7545   -2.9948   27.9293 H   0  0  0  0  0  0  0  0  0  0  0  0
    9.9612   -5.0560   26.2363 H   0  0  0  0  0  0  0  0  0  0  0  0
    8.7097   -6.2583   26.5922 H   0  0  0  0  0  0  0  0  0  0  0  0
    6.2649   -5.5600   26.3335 H   0  0  0  0  0  0  0  0  0  0  0  0
    5.9271   -3.8964   25.8283 H   0  0  0  0  0  0  0  0  0  0  0  0
   10.4561    1.0772   24.1620 H   0  0  0  0  0  0  0  0  0  0  0  0
   10.8743    1.5008   22.5014 H   0  0  0  0  0  0  0  0  0  0  0  0
    7.4659   -1.2025   21.6292 H   0  0  0  0  0  0  0  0  0  0  0  0
    8.6969   -1.5747   20.4087 H   0  0  0  0  0  0  0  0  0  0  0  0
  1  2  2  0  0  0  0
  1  7  1  0  0  0  0
  2  9  1  0  0  0  0
  3  5  2  0  0  0  0
  3 10  1  0  0  0  0
  4  6  1  0  0  0  0
  4 10  2  0  0  0  0
  5 11  1  0  0  0  0
  6 11  2  0  0  0  0
  7 12  2  0  0  0  0
  8  9  2  0  0  0  0
  8 12  1  0  0  0  0
  9 25  1  0  0  0  0
 10 30  1  0  0  0  0
 11 31  1  0  0  0  0
 12 33  1  0  0  0  0
 13 15  1  0  0  0  0
 13 27  2  0  0  0  0
 13 29  1  0  0  0  0
 14 26  1  0  0  0  0
 14 28  2  0  0  0  0
 14 29  1  0  0  0  0
 15 16  2  0  0  0  0
 16 17  1  0  0  0  0
 17 18  2  0  0  0  0
 18 29  1  0  0  0  0
 19 26  1  0  0  0  0
 19 31  1  0  0  0  0
 19 32  2  0  0  0  0
 20 21  1  0  0  0  0
 20 22  1  0  0  0  0
 21 23  1  0  0  0  0
 22 24  1  0  0  0  0
 23 30  1  0  0  0  0
 24 30  1  0  0  0  0
 25 31  1  0  0  0  0
 27 28  1  0  0  0  0
  1 34  1  0  0  0  0
  2 35  1  0  0  0  0
  3 36  1  0  0  0  0
  4 37  1  0  0  0  0
  5 38  1  0  0  0  0
  6 39  1  0  0  0  0
  7 40  1  0  0  0  0
  8 41  1  0  0  0  0
 15 42  1  0  0  0  0
 16 43  1  0  0  0  0
 17 44  1  0  0  0  0
 18 45  1  0  0  0  0
 20 46  1  0  0  0  0
 20 47  1  0  0  0  0
 21 48  1  0  0  0  0
 21 49  1  0  0  0  0
 22 50  1  0  0  0  0
 22 51  1  0  0  0  0
 23 52  1  0  0  0  0
 23 53  1  0  0  0  0
 24 54  1  0  0  0  0
 24 55  1  0  0  0  0
 25 56  1  0  0  0  0
 25 57  1  0  0  0  0
 26 58  1  0  0  0  0
 26 59  1  0  0  0  0
M  END
> <clash_score>
0

> <docking_score>
-9.760958671569824

> <overlap_score>
0.9978207945823669

$$$$
BENZO_491_1
  -OEChem-08222022483D

 47 50  0     0  0  0  0  0  0999 V2000
    9.1890   -3.5540   24.0140 C   0  0  0  0  0  0  0  0  0  0  0  0
    7.8700   -2.0610   25.3550 C   0  0  0  0  0  0  0  0  0  0  0  0
    9.5890   -2.4950   23.2210 C   0  0  0  0  0  0  0  0  0  0  0  0
    8.2550   -1.0010   24.5520 C   0  0  0  0  0  0  0  0  0  0  0  0
   12.7320   -0.4464   24.4370 C   0  0  0  0  0  0  0  0  0  0  0  0
   12.5970   -0.8682   22.2832 C   0  0  0  0  0  0  0  0  0  0  0  0
    8.3450   -3.3440   25.0980 C   0  0  0  0  0  0  0  0  0  0  0  0
   11.9616   -0.1817   23.2889 C   0  0  0  0  0  0  0  0  0  0  0  0
    9.1280   -1.2090   23.4870 C   0  0  0  0  0  0  0  0  0  0  0  0
    5.7970    0.9500   18.6730 C   0  0  0  0  0  0  0  0  0  0  0  0
    7.2710   -0.1460   19.8310 C   0  0  0  0  0  0  0  0  0  0  0  0
    4.6610    1.7170   18.4380 C   0  0  0  0  0  0  0  0  0  0  0  0
    3.8860    2.1050   19.5250 C   0  0  0  0  0  0  0  0  0  0  0  0
    4.2460    1.7520   20.8250 C   0  0  0  0  0  0  0  0  0  0  0  0
    5.3890    1.0010   21.0690 C   0  0  0  0  0  0  0  0  0  0  0  0
    9.0430    0.2380   21.4940 C   0  0  0  0  0  0  0  0  0  0  0  0
    7.9522   -4.4794   25.9764 C   0  0  0  0  0  0  0  0  0  0  0  0
   14.6393   -2.3180   22.2082 C   0  0  0  0  0  0  0  0  0  0  0  0
   10.7220    0.6590   23.1850 C   0  0  0  0  0  0  0  0  0  0  0  0
    8.0950   -0.7700   20.8440 C   0  0  0  0  0  0  0  0  0  0  0  0
   13.7770   -1.2393   24.1852 N   0  0  0  0  0  0  0  0  0  0  0  0
    6.7100    0.3850   17.8100 N   0  0  0  0  0  0  0  0  0  0  0  0
    7.5840   -0.2700   18.5160 N   0  0  0  0  0  0  0  0  0  0  0  0
   13.6676   -1.4788   22.8673 N   0  0  0  0  0  0  0  0  0  0  0  0
    6.1460    0.6070   19.9750 N   0  0  0  0  0  0  0  0  0  0  0  0
    9.5820   -0.1080   22.7000 N   0  0  0  0  0  0  0  0  0  0  0  0
    9.2950    1.3000   20.9480 O   0  0  0  0  0  0  0  0  0  0  0  0
    9.5403   -4.5627   23.7809 H   0  0  0  0  0  0  0  0  0  0  0  0
    7.1911   -1.8848   26.1904 H   0  0  0  0  0  0  0  0  0  0  0  0
   10.2682   -2.6746   22.3865 H   0  0  0  0  0  0  0  0  0  0  0  0
    7.8684   -0.0022   24.7594 H   0  0  0  0  0  0  0  0  0  0  0  0
   12.5771   -0.0965   25.4478 H   0  0  0  0  0  0  0  0  0  0  0  0
   12.3832   -0.9726   21.2281 H   0  0  0  0  0  0  0  0  0  0  0  0
    4.3709    2.0154   17.4453 H   0  0  0  0  0  0  0  0  0  0  0  0
    2.9937    2.6903   19.3398 H   0  0  0  0  0  0  0  0  0  0  0  0
    3.6324    2.0591   21.6820 H   0  0  0  0  0  0  0  0  0  0  0  0
    5.6875    0.7279   22.0567 H   0  0  0  0  0  0  0  0  0  0  0  0
    8.6668   -4.5891   26.8013 H   0  0  0  0  0  0  0  0  0  0  0  0
    6.9513   -4.3276   26.4010 H   0  0  0  0  0  0  0  0  0  0  0  0
    7.9196   -5.4231   25.4163 H   0  0  0  0  0  0  0  0  0  0  0  0
   15.4522   -1.6787   21.8540 H   0  0  0  0  0  0  0  0  0  0  0  0
   15.0179   -3.0613   22.9154 H   0  0  0  0  0  0  0  0  0  0  0  0
   14.1626   -2.8324   21.3691 H   0  0  0  0  0  0  0  0  0  0  0  0
   10.4561    1.0772   24.1620 H   0  0  0  0  0  0  0  0  0  0  0  0
   10.8743    1.5008   22.5014 H   0  0  0  0  0  0  0  0  0  0  0  0
    7.4766   -1.2063   21.6410 H   0  0  0  0  0  0  0  0  0  0  0  0
    8.7076   -1.5785   20.4206 H   0  0  0  0  0  0  0  0  0  0  0  0
  1  3  2  0  0  0  0
  1  7  1  0  0  0  0
  2  4  1  0  0  0  0
  2  7  2  0  0  0  0
  3  9  1  0  0  0  0
  4  9  2  0  0  0  0
  5  8  1  0  0  0  0
  5 21  2  0  0  0  0
  6  8  2  0  0  0  0
  6 24  1  0  0  0  0
  7 17  1  0  0  0  0
  8 19  1  0  0  0  0
  9 26  1  0  0  0  0
 10 12  1  0  0  0  0
 10 22  2  0  0  0  0
 10 25  1  0  0  0  0
 11 20  1  0  0  0  0
 11 23  2  0  0  0  0
 11 25  1  0  0  0  0
 12 13  2  0  0  0  0
 13 14  1  0  0  0  0
 14 15  2  0  0  0  0
 15 25  1  0  0  0  0
 16 20  1  0  0  0  0
 16 26  1  0  0  0  0
 16 27  2  0  0  0  0
 18 24  1  0  0  0  0
 19 26  1  0  0  0  0
 21 24  1  0  0  0  0
 22 23  1  0  0  0  0
  1 28  1  0  0  0  0
  2 29  1  0  0  0  0
  3 30  1  0  0  0  0
  4 31  1  0  0  0  0
  5 32  1  0  0  0  0
  6 33  1  0  0  0  0
 12 34  1  0  0  0  0
 13 35  1  0  0  0  0
 14 36  1  0  0  0  0
 15 37  1  0  0  0  0
 17 38  1  0  0  0  0
 17 39  1  0  0  0  0
 17 40  1  0  0  0  0
 18 41  1  0  0  0  0
 18 42  1  0  0  0  0
 18 43  1  0  0  0  0
 19 44  1  0  0  0  0
 19 45  1  0  0  0  0
 20 46  1  0  0  0  0
 20 47  1  0  0  0  0
M  END
> <clash_score>
0

> <docking_score>
-8.095866203308105

> <overlap_score>
0.9054273366928101

$$$$
BENZO_490_1
  -OEChem-08222022483D

 47 50  0     0  0  0  0  0  0999 V2000
   13.7501   -1.1157   24.6177 C   0  0  0  0  0  0  0  0  0  0  0  0
   12.5991   -0.3339   24.5202 C   0  0  0  0  0  0  0  0  0  0  0  0
    9.1890   -3.5540   24.0140 C   0  0  0  0  0  0  0  0  0  0  0  0
    7.8700   -2.0610   25.3550 C   0  0  0  0  0  0  0  0  0  0  0  0
    9.5890   -2.4950   23.2210 C   0  0  0  0  0  0  0  0  0  0  0  0
    8.2550   -1.0010   24.5520 C   0  0  0  0  0  0  0  0  0  0  0  0
   14.2636   -1.7454   23.4838 C   0  0  0  0  0  0  0  0  0  0  0  0
   12.4750   -0.8115   22.1551 C   0  0  0  0  0  0  0  0  0  0  0  0
    8.3450   -3.3440   25.0980 C   0  0  0  0  0  0  0  0  0  0  0  0
   11.9616   -0.1817   23.2889 C   0  0  0  0  0  0  0  0  0  0  0  0
    9.1280   -1.2090   23.4870 C   0  0  0  0  0  0  0  0  0  0  0  0
   13.6260   -1.5933   22.2526 C   0  0  0  0  0  0  0  0  0  0  0  0
    5.7970    0.9500   18.6730 C   0  0  0  0  0  0  0  0  0  0  0  0
    7.2710   -0.1460   19.8310 C   0  0  0  0  0  0  0  0  0  0  0  0
    4.6610    1.7170   18.4380 C   0  0  0  0  0  0  0  0  0  0  0  0
    3.8860    2.1050   19.5250 C   0  0  0  0  0  0  0  0  0  0  0  0
    4.2460    1.7520   20.8250 C   0  0  0  0  0  0  0  0  0  0  0  0
    5.3890    1.0010   21.0690 C   0  0  0  0  0  0  0  0  0  0  0  0
    9.0430    0.2380   21.4940 C   0  0  0  0  0  0  0  0  0  0  0  0
    7.9522   -4.4794   25.9764 C   0  0  0  0  0  0  0  0  0  0  0  0
   10.7220    0.6590   23.1850 C   0  0  0  0  0  0  0  0  0  0  0  0
    8.0950   -0.7700   20.8440 C   0  0  0  0  0  0  0  0  0  0  0  0
    6.7100    0.3850   17.8100 N   0  0  0  0  0  0  0  0  0  0  0  0
    7.5840   -0.2700   18.5160 N   0  0  0  0  0  0  0  0  0  0  0  0
    6.1460    0.6070   19.9750 N   0  0  0  0  0  0  0  0  0  0  0  0
    9.5820   -0.1080   22.7000 N   0  0  0  0  0  0  0  0  0  0  0  0
    9.2950    1.3000   20.9480 O   0  0  0  0  0  0  0  0  0  0  0  0
   14.2594   -2.3714   20.8543 Cl  0  0  0  0  0  0  0  0  0  0  0  0
   14.2462   -1.2340   25.5767 H   0  0  0  0  0  0  0  0  0  0  0  0
   12.2060    0.1530   25.4088 H   0  0  0  0  0  0  0  0  0  0  0  0
    9.5403   -4.5627   23.7809 H   0  0  0  0  0  0  0  0  0  0  0  0
    7.1911   -1.8848   26.1904 H   0  0  0  0  0  0  0  0  0  0  0  0
   10.2682   -2.6746   22.3865 H   0  0  0  0  0  0  0  0  0  0  0  0
    7.8684   -0.0022   24.7594 H   0  0  0  0  0  0  0  0  0  0  0  0
   15.1613   -2.3520   23.5748 H   0  0  0  0  0  0  0  0  0  0  0  0
   11.9745   -0.6893   21.1973 H   0  0  0  0  0  0  0  0  0  0  0  0
    4.3709    2.0154   17.4453 H   0  0  0  0  0  0  0  0  0  0  0  0
    2.9937    2.6903   19.3398 H   0  0  0  0  0  0  0  0  0  0  0  0
    3.6324    2.0591   21.6820 H   0  0  0  0  0  0  0  0  0  0  0  0
    5.6875    0.7279   22.0567 H   0  0  0  0  0  0  0  0  0  0  0  0
    8.6668   -4.5891   26.8013 H   0  0  0  0  0  0  0  0  0  0  0  0
    6.9513   -4.3276   26.4010 H   0  0  0  0  0  0  0  0  0  0  0  0
    7.9196   -5.4231   25.4163 H   0  0  0  0  0  0  0  0  0  0  0  0
   10.4561    1.0772   24.1620 H   0  0  0  0  0  0  0  0  0  0  0  0
   10.8743    1.5008   22.5014 H   0  0  0  0  0  0  0  0  0  0  0  0
    7.4766   -1.2063   21.6410 H   0  0  0  0  0  0  0  0  0  0  0  0
    8.7076   -1.5785   20.4206 H   0  0  0  0  0  0  0  0  0  0  0  0
  1  2  2  0  0  0  0
  1  7  1  0  0  0  0
  2 10  1  0  0  0  0
  3  5  2  0  0  0  0
  3  9  1  0  0  0  0
  4  6  1  0  0  0  0
  4  9  2  0  0  0  0
  5 11  1  0  0  0  0
  6 11  2  0  0  0  0
  7 12  2  0  0  0  0
  8 10  2  0  0  0  0
  8 12  1  0  0  0  0
  9 20  1  0  0  0  0
 10 21  1  0  0  0  0
 11 26  1  0  0  0  0
 12 28  1  0  0  0  0
 13 15  1  0  0  0  0
 13 23  2  0  0  0  0
 13 25  1  0  0  0  0
 14 22  1  0  0  0  0
 14 24  2  0  0  0  0
 14 25  1  0  0  0  0
 15 16  2  0  0  0  0
 16 17  1  0  0  0  0
 17 18  2  0  0  0  0
 18 25  1  0  0  0  0
 19 22  1  0  0  0  0
 19 26  1  0  0  0  0
 19 27  2  0  0  0  0
 21 26  1  0  0  0  0
 23 24  1  0  0  0  0
  1 29  1  0  0  0  0
  2 30  1  0  0  0  0
  3 31  1  0  0  0  0
  4 32  1  0  0  0  0
  5 33  1  0  0  0  0
  6 34  1  0  0  0  0
  7 35  1  0  0  0  0
  8 36  1  0  0  0  0
 15 37  1  0  0  0  0
 16 38  1  0  0  0  0
 17 39  1  0  0  0  0
 18 40  1  0  0  0  0
 20 41  1  0  0  0  0
 20 42  1  0  0  0  0
 20 43  1  0  0  0  0
 21 44  1  0  0  0  0
 21 45  1  0  0  0  0
 22 46  1  0  0  0  0
 22 47  1  0  0  0  0
M  END
> <clash_score>
0

> <docking_score>
-8.859838485717773

> <overlap_score>
0.9100707173347473

$$$$
BENZO_493_1
  -OEChem-08222022483D

 48 51  0     0  0  0  0  0  0999 V2000
   14.2641   -1.7450   23.4813 C   0  0  0  0  0  0  0  0  0  0  0  0
   14.0779   -0.6681   24.3480 C   0  0  0  0  0  0  0  0  0  0  0  0
   13.2991   -2.0403   22.5184 C   0  0  0  0  0  0  0  0  0  0  0  0
   12.9266    0.1135   24.2518 C   0  0  0  0  0  0  0  0  0  0  0  0
   12.1478   -1.2587   22.4222 C   0  0  0  0  0  0  0  0  0  0  0  0
    9.5890   -2.4950   23.2210 C   0  0  0  0  0  0  0  0  0  0  0  0
    8.2550   -1.0010   24.5520 C   0  0  0  0  0  0  0  0  0  0  0  0
    9.1890   -3.5540   24.0140 C   0  0  0  0  0  0  0  0  0  0  0  0
    7.8700   -2.0610   25.3550 C   0  0  0  0  0  0  0  0  0  0  0  0
   11.9616   -0.1817   23.2889 C   0  0  0  0  0  0  0  0  0  0  0  0
    9.1280   -1.2090   23.4870 C   0  0  0  0  0  0  0  0  0  0  0  0
    8.3450   -3.3440   25.0980 C   0  0  0  0  0  0  0  0  0  0  0  0
    5.7970    0.9500   18.6730 C   0  0  0  0  0  0  0  0  0  0  0  0
    7.2710   -0.1460   19.8310 C   0  0  0  0  0  0  0  0  0  0  0  0
    4.6610    1.7170   18.4380 C   0  0  0  0  0  0  0  0  0  0  0  0
    3.8860    2.1050   19.5250 C   0  0  0  0  0  0  0  0  0  0  0  0
    4.2460    1.7520   20.8250 C   0  0  0  0  0  0  0  0  0  0  0  0
    5.3890    1.0010   21.0690 C   0  0  0  0  0  0  0  0  0  0  0  0
    9.0430    0.2380   21.4940 C   0  0  0  0  0  0  0  0  0  0  0  0
    8.5126   -5.6655   25.5740 C   0  0  0  0  0  0  0  0  0  0  0  0
   10.7220    0.6590   23.1850 C   0  0  0  0  0  0  0  0  0  0  0  0
    8.0950   -0.7700   20.8440 C   0  0  0  0  0  0  0  0  0  0  0  0
    6.7100    0.3850   17.8100 N   0  0  0  0  0  0  0  0  0  0  0  0
    7.5840   -0.2700   18.5160 N   0  0  0  0  0  0  0  0  0  0  0  0
    6.1460    0.6070   19.9750 N   0  0  0  0  0  0  0  0  0  0  0  0
    9.5820   -0.1080   22.7000 N   0  0  0  0  0  0  0  0  0  0  0  0
    9.2950    1.3000   20.9480 O   0  0  0  0  0  0  0  0  0  0  0  0
    7.9864   -4.3799   25.8996 O   0  0  0  0  0  0  0  0  0  0  0  0
   15.1613   -2.3527   23.5555 H   0  0  0  0  0  0  0  0  0  0  0  0
   14.8297   -0.4373   25.0971 H   0  0  0  0  0  0  0  0  0  0  0  0
   13.4443   -2.8780   21.8427 H   0  0  0  0  0  0  0  0  0  0  0  0
   12.7899    0.9506   24.9315 H   0  0  0  0  0  0  0  0  0  0  0  0
   11.4013   -1.4963   21.6690 H   0  0  0  0  0  0  0  0  0  0  0  0
   10.2678   -2.6746   22.3862 H   0  0  0  0  0  0  0  0  0  0  0  0
    7.8691   -0.0023   24.7606 H   0  0  0  0  0  0  0  0  0  0  0  0
    9.5404   -4.5633   23.7846 H   0  0  0  0  0  0  0  0  0  0  0  0
    7.1920   -1.8875   26.1914 H   0  0  0  0  0  0  0  0  0  0  0  0
    4.3709    2.0154   17.4453 H   0  0  0  0  0  0  0  0  0  0  0  0
    2.9937    2.6903   19.3398 H   0  0  0  0  0  0  0  0  0  0  0  0
    3.6324    2.0591   21.6820 H   0  0  0  0  0  0  0  0  0  0  0  0
    5.6875    0.7279   22.0567 H   0  0  0  0  0  0  0  0  0  0  0  0
    8.1471   -6.4024   26.2934 H   0  0  0  0  0  0  0  0  0  0  0  0
    9.6047   -5.6295   25.5961 H   0  0  0  0  0  0  0  0  0  0  0  0
    8.1793   -5.9423   24.5710 H   0  0  0  0  0  0  0  0  0  0  0  0
   10.4561    1.0772   24.1620 H   0  0  0  0  0  0  0  0  0  0  0  0
   10.8743    1.5008   22.5014 H   0  0  0  0  0  0  0  0  0  0  0  0
    7.4766   -1.2063   21.6410 H   0  0  0  0  0  0  0  0  0  0  0  0
    8.7076   -1.5785   20.4206 H   0  0  0  0  0  0  0  0  0  0  0  0
  1  2  1  0  0  0  0
  1  3  2  0  0  0  0
  2  4  2  0  0  0  0
  3  5  1  0  0  0  0
  4 10  1  0  0  0  0
  5 10  2  0  0  0  0
  6  8  2  0  0  0  0
  6 11  1  0  0  0  0
  7  9  1  0  0  0  0
  7 11  2  0  0  0  0
  8 12  1  0  0  0  0
  9 12  2  0  0  0  0
 10 21  1  0  0  0  0
 11 26  1  0  0  0  0
 12 28  1  0  0  0  0
 13 15  1  0  0  0  0
 13 23  2  0  0  0  0
 13 25  1  0  0  0  0
 14 22  1  0  0  0  0
 14 24  2  0  0  0  0
 14 25  1  0  0  0  0
 15 16  2  0  0  0  0
 16 17  1  0  0  0  0
 17 18  2  0  0  0  0
 18 25  1  0  0  0  0
 19 22  1  0  0  0  0
 19 26  1  0  0  0  0
 19 27  2  0  0  0  0
 20 28  1  0  0  0  0
 21 26  1  0  0  0  0
 23 24  1  0  0  0  0
  1 29  1  0  0  0  0
  2 30  1  0  0  0  0
  3 31  1  0  0  0  0
  4 32  1  0  0  0  0
  5 33  1  0  0  0  0
  6 34  1  0  0  0  0
  7 35  1  0  0  0  0
  8 36  1  0  0  0  0
  9 37  1  0  0  0  0
 15 38  1  0  0  0  0
 16 39  1  0  0  0  0
 17 40  1  0  0  0  0
 18 41  1  0  0  0  0
 20 42  1  0  0  0  0
 20 43  1  0  0  0  0
 20 44  1  0  0  0  0
 21 45  1  0  0  0  0
 21 46  1  0  0  0  0
 22 47  1  0  0  0  0
 22 48  1  0  0  0  0
M  END
> <clash_score>
0

> <docking_score>
-10.02625560760498

> <overlap_score>
0.9154618978500366

$$$$
BENZO_492_1
  -OEChem-08222022483D

 45 48  0     0  0  0  0  0  0999 V2000
    9.5890   -2.4950   23.2210 C   0  0  0  0  0  0  0  0  0  0  0  0
    8.2550   -1.0010   24.5520 C   0  0  0  0  0  0  0  0  0  0  0  0
    9.1890   -3.5540   24.0140 C   0  0  0  0  0  0  0  0  0  0  0  0
    7.8700   -2.0610   25.3550 C   0  0  0  0  0  0  0  0  0  0  0  0
   12.5566   -0.8597   22.1860 C   0  0  0  0  0  0  0  0  0  0  0  0
   13.6839   -1.5596   22.5559 C   0  0  0  0  0  0  0  0  0  0  0  0
   12.6568   -0.3896   24.4600 C   0  0  0  0  0  0  0  0  0  0  0  0
   11.9616   -0.1817   23.2889 C   0  0  0  0  0  0  0  0  0  0  0  0
    9.1280   -1.2090   23.4870 C   0  0  0  0  0  0  0  0  0  0  0  0
    8.3450   -3.3440   25.0980 C   0  0  0  0  0  0  0  0  0  0  0  0
    5.7970    0.9500   18.6730 C   0  0  0  0  0  0  0  0  0  0  0  0
    7.2710   -0.1460   19.8310 C   0  0  0  0  0  0  0  0  0  0  0  0
    4.6610    1.7170   18.4380 C   0  0  0  0  0  0  0  0  0  0  0  0
    3.8860    2.1050   19.5250 C   0  0  0  0  0  0  0  0  0  0  0  0
    4.2460    1.7520   20.8250 C   0  0  0  0  0  0  0  0  0  0  0  0
    5.3890    1.0010   21.0690 C   0  0  0  0  0  0  0  0  0  0  0  0
    9.0430    0.2380   21.4940 C   0  0  0  0  0  0  0  0  0  0  0  0
    8.5126   -5.6655   25.5740 C   0  0  0  0  0  0  0  0  0  0  0  0
   10.7220    0.6590   23.1850 C   0  0  0  0  0  0  0  0  0  0  0  0
    8.0950   -0.7700   20.8440 C   0  0  0  0  0  0  0  0  0  0  0  0
    6.7100    0.3850   17.8100 N   0  0  0  0  0  0  0  0  0  0  0  0
    7.5840   -0.2700   18.5160 N   0  0  0  0  0  0  0  0  0  0  0  0
    6.1460    0.6070   19.9750 N   0  0  0  0  0  0  0  0  0  0  0  0
    9.5820   -0.1080   22.7000 N   0  0  0  0  0  0  0  0  0  0  0  0
    9.2950    1.3000   20.9480 O   0  0  0  0  0  0  0  0  0  0  0  0
    7.9864   -4.3799   25.8996 O   0  0  0  0  0  0  0  0  0  0  0  0
   14.0209   -1.3981   24.2270 S   0  0  0  0  0  0  0  0  0  0  0  0
   10.2678   -2.6746   22.3862 H   0  0  0  0  0  0  0  0  0  0  0  0
    7.8691   -0.0023   24.7606 H   0  0  0  0  0  0  0  0  0  0  0  0
    9.5404   -4.5633   23.7846 H   0  0  0  0  0  0  0  0  0  0  0  0
    7.1920   -1.8875   26.1914 H   0  0  0  0  0  0  0  0  0  0  0  0
   12.1799   -0.8381   21.1711 H   0  0  0  0  0  0  0  0  0  0  0  0
   14.3253   -2.1586   21.9250 H   0  0  0  0  0  0  0  0  0  0  0  0
   12.4317   -0.0004   25.4433 H   0  0  0  0  0  0  0  0  0  0  0  0
    4.3709    2.0154   17.4453 H   0  0  0  0  0  0  0  0  0  0  0  0
    2.9937    2.6903   19.3398 H   0  0  0  0  0  0  0  0  0  0  0  0
    3.6324    2.0591   21.6820 H   0  0  0  0  0  0  0  0  0  0  0  0
    5.6875    0.7279   22.0567 H   0  0  0  0  0  0  0  0  0  0  0  0
    8.1471   -6.4024   26.2934 H   0  0  0  0  0  0  0  0  0  0  0  0
    9.6047   -5.6295   25.5961 H   0  0  0  0  0  0  0  0  0  0  0  0
    8.1793   -5.9423   24.5710 H   0  0  0  0  0  0  0  0  0  0  0  0
   10.4561    1.0772   24.1620 H   0  0  0  0  0  0  0  0  0  0  0  0
   10.8743    1.5008   22.5014 H   0  0  0  0  0  0  0  0  0  0  0  0
    7.4766   -1.2063   21.6410 H   0  0  0  0  0  0  0  0  0  0  0  0
    8.7076   -1.5785   20.4206 H   0  0  0  0  0  0  0  0  0  0  0  0
  1  3  2  0  0  0  0
  1  9  1  0  0  0  0
  2  4  1  0  0  0  0
  2  9  2  0  0  0  0
  3 10  1  0  0  0  0
  4 10  2  0  0  0  0
  5  6  2  0  0  0  0
  5  8  1  0  0  0  0
  6 27  1  0  0  0  0
  7  8  2  0  0  0  0
  7 27  1  0  0  0  0
  8 19  1  0  0  0  0
  9 24  1  0  0  0  0
 10 26  1  0  0  0  0
 11 13  1  0  0  0  0
 11 21  2  0  0  0  0
 11 23  1  0  0  0  0
 12 20  1  0  0  0  0
 12 22  2  0  0  0  0
 12 23  1  0  0  0  0
 13 14  2  0  0  0  0
 14 15  1  0  0  0  0
 15 16  2  0  0  0  0
 16 23  1  0  0  0  0
 17 20  1  0  0  0  0
 17 24  1  0  0  0  0
 17 25  2  0  0  0  0
 18 26  1  0  0  0  0
 19 24  1  0  0  0  0
 21 22  1  0  0  0  0
  1 28  1  0  0  0  0
  2 29  1  0  0  0  0
  3 30  1  0  0  0  0
  4 31  1  0  0  0  0
  5 32  1  0  0  0  0
  6 33  1  0  0  0  0
  7 34  1  0  0  0  0
 13 35  1  0  0  0  0
 14 36  1  0  0  0  0
 15 37  1  0  0  0  0
 16 38  1  0  0  0  0
 18 39  1  0  0  0  0
 18 40  1  0  0  0  0
 18 41  1  0  0  0  0
 19 42  1  0  0  0  0
 19 43  1  0  0  0  0
 20 44  1  0  0  0  0
 20 45  1  0  0  0  0
M  END
> <clash_score>
0

> <docking_score>
-9.41495418548584

> <overlap_score>
0.9034112095832825

$$$$
BENZO_495_1
  -OEChem-08222022483D

 48 51  0     0  0  0  0  0  0999 V2000
    9.5890   -2.4950   23.2210 C   0  0  0  0  0  0  0  0  0  0  0  0
    8.2550   -1.0010   24.5520 C   0  0  0  0  0  0  0  0  0  0  0  0
    9.1890   -3.5540   24.0140 C   0  0  0  0  0  0  0  0  0  0  0  0
    7.8700   -2.0610   25.3550 C   0  0  0  0  0  0  0  0  0  0  0  0
   12.7320   -0.4464   24.4370 C   0  0  0  0  0  0  0  0  0  0  0  0
   12.5970   -0.8682   22.2832 C   0  0  0  0  0  0  0  0  0  0  0  0
   11.9616   -0.1817   23.2889 C   0  0  0  0  0  0  0  0  0  0  0  0
    9.1280   -1.2090   23.4870 C   0  0  0  0  0  0  0  0  0  0  0  0
    8.3450   -3.3440   25.0980 C   0  0  0  0  0  0  0  0  0  0  0  0
    5.7970    0.9500   18.6730 C   0  0  0  0  0  0  0  0  0  0  0  0
    7.2710   -0.1460   19.8310 C   0  0  0  0  0  0  0  0  0  0  0  0
    4.6610    1.7170   18.4380 C   0  0  0  0  0  0  0  0  0  0  0  0
    3.8860    2.1050   19.5250 C   0  0  0  0  0  0  0  0  0  0  0  0
    4.2460    1.7520   20.8250 C   0  0  0  0  0  0  0  0  0  0  0  0
    5.3890    1.0010   21.0690 C   0  0  0  0  0  0  0  0  0  0  0  0
    9.0430    0.2380   21.4940 C   0  0  0  0  0  0  0  0  0  0  0  0
   14.6393   -2.3180   22.2082 C   0  0  0  0  0  0  0  0  0  0  0  0
    8.5126   -5.6655   25.5740 C   0  0  0  0  0  0  0  0  0  0  0  0
   10.7220    0.6590   23.1850 C   0  0  0  0  0  0  0  0  0  0  0  0
    8.0950   -0.7700   20.8440 C   0  0  0  0  0  0  0  0  0  0  0  0
   13.7770   -1.2393   24.1852 N   0  0  0  0  0  0  0  0  0  0  0  0
    6.7100    0.3850   17.8100 N   0  0  0  0  0  0  0  0  0  0  0  0
    7.5840   -0.2700   18.5160 N   0  0  0  0  0  0  0  0  0  0  0  0
   13.6676   -1.4788   22.8673 N   0  0  0  0  0  0  0  0  0  0  0  0
    6.1460    0.6070   19.9750 N   0  0  0  0  0  0  0  0  0  0  0  0
    9.5820   -0.1080   22.7000 N   0  0  0  0  0  0  0  0  0  0  0  0
    9.2950    1.3000   20.9480 O   0  0  0  0  0  0  0  0  0  0  0  0
    7.9864   -4.3799   25.8996 O   0  0  0  0  0  0  0  0  0  0  0  0
   10.2678   -2.6746   22.3862 H   0  0  0  0  0  0  0  0  0  0  0  0
    7.8691   -0.0023   24.7606 H   0  0  0  0  0  0  0  0  0  0  0  0
    9.5404   -4.5633   23.7846 H   0  0  0  0  0  0  0  0  0  0  0  0
    7.1920   -1.8875   26.1914 H   0  0  0  0  0  0  0  0  0  0  0  0
   12.5771   -0.0965   25.4478 H   0  0  0  0  0  0  0  0  0  0  0  0
   12.3832   -0.9726   21.2281 H   0  0  0  0  0  0  0  0  0  0  0  0
    4.3709    2.0154   17.4453 H   0  0  0  0  0  0  0  0  0  0  0  0
    2.9937    2.6903   19.3398 H   0  0  0  0  0  0  0  0  0  0  0  0
    3.6324    2.0591   21.6820 H   0  0  0  0  0  0  0  0  0  0  0  0
    5.6875    0.7279   22.0567 H   0  0  0  0  0  0  0  0  0  0  0  0
   15.4522   -1.6787   21.8540 H   0  0  0  0  0  0  0  0  0  0  0  0
   15.0179   -3.0613   22.9154 H   0  0  0  0  0  0  0  0  0  0  0  0
   14.1626   -2.8324   21.3691 H   0  0  0  0  0  0  0  0  0  0  0  0
    8.1471   -6.4024   26.2934 H   0  0  0  0  0  0  0  0  0  0  0  0
    9.6047   -5.6295   25.5961 H   0  0  0  0  0  0  0  0  0  0  0  0
    8.1793   -5.9423   24.5710 H   0  0  0  0  0  0  0  0  0  0  0  0
   10.4561    1.0772   24.1620 H   0  0  0  0  0  0  0  0  0  0  0  0
   10.8743    1.5008   22.5014 H   0  0  0  0  0  0  0  0  0  0  0  0
    7.4766   -1.2063   21.6410 H   0  0  0  0  0  0  0  0  0  0  0  0
    8.7076   -1.5785   20.4206 H   0  0  0  0  0  0  0  0  0  0  0  0
  1  3  2  0  0  0  0
  1  8  1  0  0  0  0
  2  4  1  0  0  0  0
  2  8  2  0  0  0  0
  3  9  1  0  0  0  0
  4  9  2  0  0  0  0
  5  7  1  0  0  0  0
  5 21  2  0  0  0  0
  6  7  2  0  0  0  0
  6 24  1  0  0  0  0
  7 19  1  0  0  0  0
  8 26  1  0  0  0  0
  9 28  1  0  0  0  0
 10 12  1  0  0  0  0
 10 22  2  0  0  0  0
 10 25  1  0  0  0  0
 11 20  1  0  0  0  0
 11 23  2  0  0  0  0
 11 25  1  0  0  0  0
 12 13  2  0  0  0  0
 13 14  1  0  0  0  0
 14 15  2  0  0  0  0
 15 25  1  0  0  0  0
 16 20  1  0  0  0  0
 16 26  1  0  0  0  0
 16 27  2  0  0  0  0
 17 24  1  0  0  0  0
 18 28  1  0  0  0  0
 19 26  1  0  0  0  0
 21 24  1  0  0  0  0
 22 23  1  0  0  0  0
  1 29  1  0  0  0  0
  2 30  1  0  0  0  0
  3 31  1  0  0  0  0
  4 32  1  0  0  0  0
  5 33  1  0  0  0  0
  6 34  1  0  0  0  0
 12 35  1  0  0  0  0
 13 36  1  0  0  0  0
 14 37  1  0  0  0  0
 15 38  1  0  0  0  0
 17 39  1  0  0  0  0
 17 40  1  0  0  0  0
 17 41  1  0  0  0  0
 18 42  1  0  0  0  0
 18 43  1  0  0  0  0
 18 44  1  0  0  0  0
 19 45  1  0  0  0  0
 19 46  1  0  0  0  0
 20 47  1  0  0  0  0
 20 48  1  0  0  0  0
M  END
> <clash_score>
0

> <docking_score>
-8.216151237487793

> <overlap_score>
0.9186834096908569

$$$$
BENZO_494_1
  -OEChem-08222022483D

 48 51  0     0  0  0  0  0  0999 V2000
   13.7501   -1.1157   24.6177 C   0  0  0  0  0  0  0  0  0  0  0  0
   12.5991   -0.3339   24.5202 C   0  0  0  0  0  0  0  0  0  0  0  0
    9.5890   -2.4950   23.2210 C   0  0  0  0  0  0  0  0  0  0  0  0
    8.2550   -1.0010   24.5520 C   0  0  0  0  0  0  0  0  0  0  0  0
    9.1890   -3.5540   24.0140 C   0  0  0  0  0  0  0  0  0  0  0  0
    7.8700   -2.0610   25.3550 C   0  0  0  0  0  0  0  0  0  0  0  0
   14.2636   -1.7454   23.4838 C   0  0  0  0  0  0  0  0  0  0  0  0
   12.4750   -0.8115   22.1551 C   0  0  0  0  0  0  0  0  0  0  0  0
   11.9616   -0.1817   23.2889 C   0  0  0  0  0  0  0  0  0  0  0  0
    9.1280   -1.2090   23.4870 C   0  0  0  0  0  0  0  0  0  0  0  0
    8.3450   -3.3440   25.0980 C   0  0  0  0  0  0  0  0  0  0  0  0
   13.6260   -1.5933   22.2526 C   0  0  0  0  0  0  0  0  0  0  0  0
    5.7970    0.9500   18.6730 C   0  0  0  0  0  0  0  0  0  0  0  0
    7.2710   -0.1460   19.8310 C   0  0  0  0  0  0  0  0  0  0  0  0
    4.6610    1.7170   18.4380 C   0  0  0  0  0  0  0  0  0  0  0  0
    3.8860    2.1050   19.5250 C   0  0  0  0  0  0  0  0  0  0  0  0
    4.2460    1.7520   20.8250 C   0  0  0  0  0  0  0  0  0  0  0  0
    5.3890    1.0010   21.0690 C   0  0  0  0  0  0  0  0  0  0  0  0
    9.0430    0.2380   21.4940 C   0  0  0  0  0  0  0  0  0  0  0  0
    8.5126   -5.6655   25.5740 C   0  0  0  0  0  0  0  0  0  0  0  0
   10.7220    0.6590   23.1850 C   0  0  0  0  0  0  0  0  0  0  0  0
    8.0950   -0.7700   20.8440 C   0  0  0  0  0  0  0  0  0  0  0  0
    6.7100    0.3850   17.8100 N   0  0  0  0  0  0  0  0  0  0  0  0
    7.5840   -0.2700   18.5160 N   0  0  0  0  0  0  0  0  0  0  0  0
    6.1460    0.6070   19.9750 N   0  0  0  0  0  0  0  0  0  0  0  0
    9.5820   -0.1080   22.7000 N   0  0  0  0  0  0  0  0  0  0  0  0
    9.2950    1.3000   20.9480 O   0  0  0  0  0  0  0  0  0  0  0  0
    7.9864   -4.3799   25.8996 O   0  0  0  0  0  0  0  0  0  0  0  0
   14.2594   -2.3714   20.8543 Cl  0  0  0  0  0  0  0  0  0  0  0  0
   14.2462   -1.2340   25.5767 H   0  0  0  0  0  0  0  0  0  0  0  0
   12.2060    0.1530   25.4088 H   0  0  0  0  0  0  0  0  0  0  0  0
   10.2678   -2.6746   22.3862 H   0  0  0  0  0  0  0  0  0  0  0  0
    7.8691   -0.0023   24.7606 H   0  0  0  0  0  0  0  0  0  0  0  0
    9.5404   -4.5633   23.7846 H   0  0  0  0  0  0  0  0  0  0  0  0
    7.1920   -1.8875   26.1914 H   0  0  0  0  0  0  0  0  0  0  0  0
   15.1613   -2.3520   23.5748 H   0  0  0  0  0  0  0  0  0  0  0  0
   11.9745   -0.6893   21.1973 H   0  0  0  0  0  0  0  0  0  0  0  0
    4.3709    2.0154   17.4453 H   0  0  0  0  0  0  0  0  0  0  0  0
    2.9937    2.6903   19.3398 H   0  0  0  0  0  0  0  0  0  0  0  0
    3.6324    2.0591   21.6820 H   0  0  0  0  0  0  0  0  0  0  0  0
    5.6875    0.7279   22.0567 H   0  0  0  0  0  0  0  0  0  0  0  0
    8.1471   -6.4024   26.2934 H   0  0  0  0  0  0  0  0  0  0  0  0
    9.6047   -5.6295   25.5961 H   0  0  0  0  0  0  0  0  0  0  0  0
    8.1793   -5.9423   24.5710 H   0  0  0  0  0  0  0  0  0  0  0  0
   10.4561    1.0772   24.1620 H   0  0  0  0  0  0  0  0  0  0  0  0
   10.8743    1.5008   22.5014 H   0  0  0  0  0  0  0  0  0  0  0  0
    7.4766   -1.2063   21.6410 H   0  0  0  0  0  0  0  0  0  0  0  0
    8.7076   -1.5785   20.4206 H   0  0  0  0  0  0  0  0  0  0  0  0
  1  2  2  0  0  0  0
  1  7  1  0  0  0  0
  2  9  1  0  0  0  0
  3  5  2  0  0  0  0
  3 10  1  0  0  0  0
  4  6  1  0  0  0  0
  4 10  2  0  0  0  0
  5 11  1  0  0  0  0
  6 11  2  0  0  0  0
  7 12  2  0  0  0  0
  8  9  2  0  0  0  0
  8 12  1  0  0  0  0
  9 21  1  0  0  0  0
 10 26  1  0  0  0  0
 11 28  1  0  0  0  0
 12 29  1  0  0  0  0
 13 15  1  0  0  0  0
 13 23  2  0  0  0  0
 13 25  1  0  0  0  0
 14 22  1  0  0  0  0
 14 24  2  0  0  0  0
 14 25  1  0  0  0  0
 15 16  2  0  0  0  0
 16 17  1  0  0  0  0
 17 18  2  0  0  0  0
 18 25  1  0  0  0  0
 19 22  1  0  0  0  0
 19 26  1  0  0  0  0
 19 27  2  0  0  0  0
 20 28  1  0  0  0  0
 21 26  1  0  0  0  0
 23 24  1  0  0  0  0
  1 30  1  0  0  0  0
  2 31  1  0  0  0  0
  3 32  1  0  0  0  0
  4 33  1  0  0  0  0
  5 34  1  0  0  0  0
  6 35  1  0  0  0  0
  7 36  1  0  0  0  0
  8 37  1  0  0  0  0
 15 38  1  0  0  0  0
 16 39  1  0  0  0  0
 17 40  1  0  0  0  0
 18 41  1  0  0  0  0
 20 42  1  0  0  0  0
 20 43  1  0  0  0  0
 20 44  1  0  0  0  0
 21 45  1  0  0  0  0
 21 46  1  0  0  0  0
 22 47  1  0  0  0  0
 22 48  1  0  0  0  0
M  END
> <clash_score>
0

> <docking_score>
-8.980124473571777

> <overlap_score>
0.9233053922653198

$$$$
BENZO_497_1
  -OEChem-08222022483D

 58 62  0     0  0  0  0  0  0999 V2000
   14.2641   -1.7450   23.4813 C   0  0  0  0  0  0  0  0  0  0  0  0
   14.0779   -0.6681   24.3480 C   0  0  0  0  0  0  0  0  0  0  0  0
   13.2991   -2.0403   22.5184 C   0  0  0  0  0  0  0  0  0  0  0  0
   12.9266    0.1135   24.2518 C   0  0  0  0  0  0  0  0  0  0  0  0
   12.1478   -1.2587   22.4222 C   0  0  0  0  0  0  0  0  0  0  0  0
    9.1890   -3.5540   24.0140 C   0  0  0  0  0  0  0  0  0  0  0  0
    7.8700   -2.0610   25.3550 C   0  0  0  0  0  0  0  0  0  0  0  0
    9.5890   -2.4950   23.2210 C   0  0  0  0  0  0  0  0  0  0  0  0
    8.2550   -1.0010   24.5520 C   0  0  0  0  0  0  0  0  0  0  0  0
   11.9616   -0.1817   23.2889 C   0  0  0  0  0  0  0  0  0  0  0  0
    8.3450   -3.3440   25.0980 C   0  0  0  0  0  0  0  0  0  0  0  0
    9.1280   -1.2090   23.4870 C   0  0  0  0  0  0  0  0  0  0  0  0
    5.7970    0.9500   18.6730 C   0  0  0  0  0  0  0  0  0  0  0  0
    7.2710   -0.1460   19.8310 C   0  0  0  0  0  0  0  0  0  0  0  0
    4.6610    1.7170   18.4380 C   0  0  0  0  0  0  0  0  0  0  0  0
    3.8860    2.1050   19.5250 C   0  0  0  0  0  0  0  0  0  0  0  0
    4.2460    1.7520   20.8250 C   0  0  0  0  0  0  0  0  0  0  0  0
    5.3890    1.0010   21.0690 C   0  0  0  0  0  0  0  0  0  0  0  0
    7.8687   -5.7518   25.4384 C   0  0  0  0  0  0  0  0  0  0  0  0
    9.0430    0.2380   21.4940 C   0  0  0  0  0  0  0  0  0  0  0  0
    7.7614   -6.8724   26.4584 C   0  0  0  0  0  0  0  0  0  0  0  0
    7.0004   -6.5095   27.7148 C   0  0  0  0  0  0  0  0  0  0  0  0
    7.6035   -5.2531   28.3027 C   0  0  0  0  0  0  0  0  0  0  0  0
    7.4713   -4.1195   27.2996 C   0  0  0  0  0  0  0  0  0  0  0  0
   10.7220    0.6590   23.1850 C   0  0  0  0  0  0  0  0  0  0  0  0
    8.0950   -0.7700   20.8440 C   0  0  0  0  0  0  0  0  0  0  0  0
    6.7100    0.3850   17.8100 N   0  0  0  0  0  0  0  0  0  0  0  0
    7.5840   -0.2700   18.5160 N   0  0  0  0  0  0  0  0  0  0  0  0
    6.1460    0.6070   19.9750 N   0  0  0  0  0  0  0  0  0  0  0  0
    7.9635   -4.4452   25.9501 N   0  0  0  0  0  0  0  0  0  0  0  0
    9.5820   -0.1080   22.7000 N   0  0  0  0  0  0  0  0  0  0  0  0
    7.9246   -6.0590   24.2445 O   0  0  0  0  0  0  0  0  0  0  0  0
    9.2950    1.3000   20.9480 O   0  0  0  0  0  0  0  0  0  0  0  0
   15.1613   -2.3527   23.5555 H   0  0  0  0  0  0  0  0  0  0  0  0
   14.8297   -0.4373   25.0971 H   0  0  0  0  0  0  0  0  0  0  0  0
   13.4443   -2.8780   21.8427 H   0  0  0  0  0  0  0  0  0  0  0  0
   12.7899    0.9506   24.9315 H   0  0  0  0  0  0  0  0  0  0  0  0
   11.4013   -1.4963   21.6690 H   0  0  0  0  0  0  0  0  0  0  0  0
    9.5436   -4.5614   23.7799 H   0  0  0  0  0  0  0  0  0  0  0  0
    7.1918   -1.8823   26.1906 H   0  0  0  0  0  0  0  0  0  0  0  0
   10.2676   -2.6754   22.3861 H   0  0  0  0  0  0  0  0  0  0  0  0
    7.8686   -0.0026   24.7598 H   0  0  0  0  0  0  0  0  0  0  0  0
    4.3709    2.0154   17.4453 H   0  0  0  0  0  0  0  0  0  0  0  0
    2.9937    2.6903   19.3398 H   0  0  0  0  0  0  0  0  0  0  0  0
    3.6324    2.0591   21.6820 H   0  0  0  0  0  0  0  0  0  0  0  0
    5.6875    0.7279   22.0567 H   0  0  0  0  0  0  0  0  0  0  0  0
    7.2713   -7.7257   25.9758 H   0  0  0  0  0  0  0  0  0  0  0  0
    8.7837   -7.1790   26.7111 H   0  0  0  0  0  0  0  0  0  0  0  0
    5.9406   -6.3476   27.4837 H   0  0  0  0  0  0  0  0  0  0  0  0
    7.0566   -7.3314   28.4368 H   0  0  0  0  0  0  0  0  0  0  0  0
    7.0858   -4.9863   29.2307 H   0  0  0  0  0  0  0  0  0  0  0  0
    8.6585   -5.4140   28.5554 H   0  0  0  0  0  0  0  0  0  0  0  0
    6.4149   -3.8417   27.1934 H   0  0  0  0  0  0  0  0  0  0  0  0
    8.0152   -3.2408   27.6666 H   0  0  0  0  0  0  0  0  0  0  0  0
   10.4561    1.0772   24.1620 H   0  0  0  0  0  0  0  0  0  0  0  0
   10.8743    1.5008   22.5014 H   0  0  0  0  0  0  0  0  0  0  0  0
    7.4659   -1.2025   21.6292 H   0  0  0  0  0  0  0  0  0  0  0  0
    8.6969   -1.5747   20.4087 H   0  0  0  0  0  0  0  0  0  0  0  0
  1  2  1  0  0  0  0
  1  3  2  0  0  0  0
  2  4  2  0  0  0  0
  3  5  1  0  0  0  0
  4 10  1  0  0  0  0
  5 10  2  0  0  0  0
  6  8  2  0  0  0  0
  6 11  1  0  0  0  0
  7  9  1  0  0  0  0
  7 11  2  0  0  0  0
  8 12  1  0  0  0  0
  9 12  2  0  0  0  0
 10 25  1  0  0  0  0
 11 30  1  0  0  0  0
 12 31  1  0  0  0  0
 13 15  1  0  0  0  0
 13 27  2  0  0  0  0
 13 29  1  0  0  0  0
 14 26  1  0  0  0  0
 14 28  2  0  0  0  0
 14 29  1  0  0  0  0
 15 16  2  0  0  0  0
 16 17  1  0  0  0  0
 17 18  2  0  0  0  0
 18 29  1  0  0  0  0
 19 21  1  0  0  0  0
 19 30  1  0  0  0  0
 19 32  2  0  0  0  0
 20 26  1  0  0  0  0
 20 31  1  0  0  0  0
 20 33  2  0  0  0  0
 21 22  1  0  0  0  0
 22 23  1  0  0  0  0
 23 24  1  0  0  0  0
 24 30  1  0  0  0  0
 25 31  1  0  0  0  0
 27 28  1  0  0  0  0
  1 34  1  0  0  0  0
  2 35  1  0  0  0  0
  3 36  1  0  0  0  0
  4 37  1  0  0  0  0
  5 38  1  0  0  0  0
  6 39  1  0  0  0  0
  7 40  1  0  0  0  0
  8 41  1  0  0  0  0
  9 42  1  0  0  0  0
 15 43  1  0  0  0  0
 16 44  1  0  0  0  0
 17 45  1  0  0  0  0
 18 46  1  0  0  0  0
 21 47  1  0  0  0  0
 21 48  1  0  0  0  0
 22 49  1  0  0  0  0
 22 50  1  0  0  0  0
 23 51  1  0  0  0  0
 23 52  1  0  0  0  0
 24 53  1  0  0  0  0
 24 54  1  0  0  0  0
 25 55  1  0  0  0  0
 25 56  1  0  0  0  0
 26 57  1  0  0  0  0
 26 58  1  0  0  0  0
M  END
> <clash_score>
0

> <docking_score>
-8.86259937286377

> <overlap_score>
0.9891777038574219

$$$$
BENZO_496_1
  -OEChem-08222022483D

 55 59  0     0  0  0  0  0  0999 V2000
    9.1890   -3.5540   24.0140 C   0  0  0  0  0  0  0  0  0  0  0  0
    7.8700   -2.0610   25.3550 C   0  0  0  0  0  0  0  0  0  0  0  0
    9.5890   -2.4950   23.2210 C   0  0  0  0  0  0  0  0  0  0  0  0
    8.2550   -1.0010   24.5520 C   0  0  0  0  0  0  0  0  0  0  0  0
   12.6785   -0.3937   24.5018 C   0  0  0  0  0  0  0  0  0  0  0  0
   13.7775   -1.2037   24.3186 C   0  0  0  0  0  0  0  0  0  0  0  0
   12.5401   -0.8378   22.2246 C   0  0  0  0  0  0  0  0  0  0  0  0
   11.9616   -0.1817   23.2889 C   0  0  0  0  0  0  0  0  0  0  0  0
    8.3450   -3.3440   25.0980 C   0  0  0  0  0  0  0  0  0  0  0  0
    9.1280   -1.2090   23.4870 C   0  0  0  0  0  0  0  0  0  0  0  0
    5.7970    0.9500   18.6730 C   0  0  0  0  0  0  0  0  0  0  0  0
    7.2710   -0.1460   19.8310 C   0  0  0  0  0  0  0  0  0  0  0  0
    4.6610    1.7170   18.4380 C   0  0  0  0  0  0  0  0  0  0  0  0
    3.8860    2.1050   19.5250 C   0  0  0  0  0  0  0  0  0  0  0  0
    4.2460    1.7520   20.8250 C   0  0  0  0  0  0  0  0  0  0  0  0
    5.3890    1.0010   21.0690 C   0  0  0  0  0  0  0  0  0  0  0  0
    7.2752   -5.5548   25.4273 C   0  0  0  0  0  0  0  0  0  0  0  0
    9.0430    0.2380   21.4940 C   0  0  0  0  0  0  0  0  0  0  0  0
    7.1880   -6.7800   26.3209 C   0  0  0  0  0  0  0  0  0  0  0  0
    7.0916   -6.4753   27.7999 C   0  0  0  0  0  0  0  0  0  0  0  0
    8.2362   -5.5641   28.1841 C   0  0  0  0  0  0  0  0  0  0  0  0
    8.1241   -4.2655   27.4032 C   0  0  0  0  0  0  0  0  0  0  0  0
   10.7220    0.6590   23.1850 C   0  0  0  0  0  0  0  0  0  0  0  0
    8.0950   -0.7700   20.8440 C   0  0  0  0  0  0  0  0  0  0  0  0
    6.7100    0.3850   17.8100 N   0  0  0  0  0  0  0  0  0  0  0  0
    7.5840   -0.2700   18.5160 N   0  0  0  0  0  0  0  0  0  0  0  0
    6.1460    0.6070   19.9750 N   0  0  0  0  0  0  0  0  0  0  0  0
    7.9635   -4.4452   25.9501 N   0  0  0  0  0  0  0  0  0  0  0  0
    9.5820   -0.1080   22.7000 N   0  0  0  0  0  0  0  0  0  0  0  0
    6.7947   -5.6299   24.2931 O   0  0  0  0  0  0  0  0  0  0  0  0
    9.2950    1.3000   20.9480 O   0  0  0  0  0  0  0  0  0  0  0  0
   13.9416   -1.7051   22.6894 S   0  0  0  0  0  0  0  0  0  0  0  0
    9.5436   -4.5614   23.7799 H   0  0  0  0  0  0  0  0  0  0  0  0
    7.1918   -1.8823   26.1906 H   0  0  0  0  0  0  0  0  0  0  0  0
   10.2676   -2.6754   22.3861 H   0  0  0  0  0  0  0  0  0  0  0  0
    7.8686   -0.0026   24.7598 H   0  0  0  0  0  0  0  0  0  0  0  0
   12.4058    0.0253   25.4623 H   0  0  0  0  0  0  0  0  0  0  0  0
   14.4923   -1.5246   25.0631 H   0  0  0  0  0  0  0  0  0  0  0  0
   12.2108   -0.8511   21.1948 H   0  0  0  0  0  0  0  0  0  0  0  0
    4.3709    2.0154   17.4453 H   0  0  0  0  0  0  0  0  0  0  0  0
    2.9937    2.6903   19.3398 H   0  0  0  0  0  0  0  0  0  0  0  0
    3.6324    2.0591   21.6820 H   0  0  0  0  0  0  0  0  0  0  0  0
    5.6875    0.7279   22.0567 H   0  0  0  0  0  0  0  0  0  0  0  0
    6.3101   -7.3613   26.0164 H   0  0  0  0  0  0  0  0  0  0  0  0
    8.0752   -7.3922   26.1183 H   0  0  0  0  0  0  0  0  0  0  0  0
    6.1328   -5.9938   28.0269 H   0  0  0  0  0  0  0  0  0  0  0  0
    7.1363   -7.4051   28.3772 H   0  0  0  0  0  0  0  0  0  0  0  0
    8.2035   -5.3520   29.2586 H   0  0  0  0  0  0  0  0  0  0  0  0
    9.1990   -6.0474   27.9788 H   0  0  0  0  0  0  0  0  0  0  0  0
    7.2505   -3.6996   27.7511 H   0  0  0  0  0  0  0  0  0  0  0  0
    9.0155   -3.6525   27.5824 H   0  0  0  0  0  0  0  0  0  0  0  0
   10.4561    1.0772   24.1620 H   0  0  0  0  0  0  0  0  0  0  0  0
   10.8743    1.5008   22.5014 H   0  0  0  0  0  0  0  0  0  0  0  0
    7.4659   -1.2025   21.6292 H   0  0  0  0  0  0  0  0  0  0  0  0
    8.6969   -1.5747   20.4087 H   0  0  0  0  0  0  0  0  0  0  0  0
  1  3  2  0  0  0  0
  1  9  1  0  0  0  0
  2  4  1  0  0  0  0
  2  9  2  0  0  0  0
  3 10  1  0  0  0  0
  4 10  2  0  0  0  0
  5  6  2  0  0  0  0
  5  8  1  0  0  0  0
  6 32  1  0  0  0  0
  7  8  2  0  0  0  0
  7 32  1  0  0  0  0
  8 23  1  0  0  0  0
  9 28  1  0  0  0  0
 10 29  1  0  0  0  0
 11 13  1  0  0  0  0
 11 25  2  0  0  0  0
 11 27  1  0  0  0  0
 12 24  1  0  0  0  0
 12 26  2  0  0  0  0
 12 27  1  0  0  0  0
 13 14  2  0  0  0  0
 14 15  1  0  0  0  0
 15 16  2  0  0  0  0
 16 27  1  0  0  0  0
 17 19  1  0  0  0  0
 17 28  1  0  0  0  0
 17 30  2  0  0  0  0
 18 24  1  0  0  0  0
 18 29  1  0  0  0  0
 18 31  2  0  0  0  0
 19 20  1  0  0  0  0
 20 21  1  0  0  0  0
 21 22  1  0  0  0  0
 22 28  1  0  0  0  0
 23 29  1  0  0  0  0
 25 26  1  0  0  0  0
  1 33  1  0  0  0  0
  2 34  1  0  0  0  0
  3 35  1  0  0  0  0
  4 36  1  0  0  0  0
  5 37  1  0  0  0  0
  6 38  1  0  0  0  0
  7 39  1  0  0  0  0
 13 40  1  0  0  0  0
 14 41  1  0  0  0  0
 15 42  1  0  0  0  0
 16 43  1  0  0  0  0
 19 44  1  0  0  0  0
 19 45  1  0  0  0  0
 20 46  1  0  0  0  0
 20 47  1  0  0  0  0
 21 48  1  0  0  0  0
 21 49  1  0  0  0  0
 22 50  1  0  0  0  0
 22 51  1  0  0  0  0
 23 52  1  0  0  0  0
 23 53  1  0  0  0  0
 24 54  1  0  0  0  0
 24 55  1  0  0  0  0
M  END
> <clash_score>
0

> <docking_score>
-9.259721755981445

> <overlap_score>
0.9828841090202332

$$$$
BENZO_499_1
  -OEChem-08222022483D

 58 62  0     0  0  0  0  0  0999 V2000
    9.1890   -3.5540   24.0140 C   0  0  0  0  0  0  0  0  0  0  0  0
    7.8700   -2.0610   25.3550 C   0  0  0  0  0  0  0  0  0  0  0  0
    9.5890   -2.4950   23.2210 C   0  0  0  0  0  0  0  0  0  0  0  0
    8.2550   -1.0010   24.5520 C   0  0  0  0  0  0  0  0  0  0  0  0
   12.7320   -0.4464   24.4370 C   0  0  0  0  0  0  0  0  0  0  0  0
   12.5970   -0.8682   22.2832 C   0  0  0  0  0  0  0  0  0  0  0  0
   11.9616   -0.1817   23.2889 C   0  0  0  0  0  0  0  0  0  0  0  0
    8.3450   -3.3440   25.0980 C   0  0  0  0  0  0  0  0  0  0  0  0
    9.1280   -1.2090   23.4870 C   0  0  0  0  0  0  0  0  0  0  0  0
    5.7970    0.9500   18.6730 C   0  0  0  0  0  0  0  0  0  0  0  0
    7.2710   -0.1460   19.8310 C   0  0  0  0  0  0  0  0  0  0  0  0
    4.6610    1.7170   18.4380 C   0  0  0  0  0  0  0  0  0  0  0  0
    3.8860    2.1050   19.5250 C   0  0  0  0  0  0  0  0  0  0  0  0
    4.2460    1.7520   20.8250 C   0  0  0  0  0  0  0  0  0  0  0  0
    5.3890    1.0010   21.0690 C   0  0  0  0  0  0  0  0  0  0  0  0
    7.2752   -5.5548   25.4273 C   0  0  0  0  0  0  0  0  0  0  0  0
    9.0430    0.2380   21.4940 C   0  0  0  0  0  0  0  0  0  0  0  0
    7.1880   -6.7800   26.3209 C   0  0  0  0  0  0  0  0  0  0  0  0
    7.0916   -6.4753   27.7999 C   0  0  0  0  0  0  0  0  0  0  0  0
    8.2362   -5.5641   28.1841 C   0  0  0  0  0  0  0  0  0  0  0  0
    8.1241   -4.2655   27.4032 C   0  0  0  0  0  0  0  0  0  0  0  0
   14.6393   -2.3180   22.2082 C   0  0  0  0  0  0  0  0  0  0  0  0
   10.7220    0.6590   23.1850 C   0  0  0  0  0  0  0  0  0  0  0  0
    8.0950   -0.7700   20.8440 C   0  0  0  0  0  0  0  0  0  0  0  0
   13.7770   -1.2393   24.1852 N   0  0  0  0  0  0  0  0  0  0  0  0
    6.7100    0.3850   17.8100 N   0  0  0  0  0  0  0  0  0  0  0  0
    7.5840   -0.2700   18.5160 N   0  0  0  0  0  0  0  0  0  0  0  0
   13.6676   -1.4788   22.8673 N   0  0  0  0  0  0  0  0  0  0  0  0
    6.1460    0.6070   19.9750 N   0  0  0  0  0  0  0  0  0  0  0  0
    7.9635   -4.4452   25.9501 N   0  0  0  0  0  0  0  0  0  0  0  0
    9.5820   -0.1080   22.7000 N   0  0  0  0  0  0  0  0  0  0  0  0
    6.7947   -5.6299   24.2931 O   0  0  0  0  0  0  0  0  0  0  0  0
    9.2950    1.3000   20.9480 O   0  0  0  0  0  0  0  0  0  0  0  0
    9.5436   -4.5614   23.7799 H   0  0  0  0  0  0  0  0  0  0  0  0
    7.1918   -1.8823   26.1906 H   0  0  0  0  0  0  0  0  0  0  0  0
   10.2676   -2.6754   22.3861 H   0  0  0  0  0  0  0  0  0  0  0  0
    7.8686   -0.0026   24.7598 H   0  0  0  0  0  0  0  0  0  0  0  0
   12.5771   -0.0965   25.4478 H   0  0  0  0  0  0  0  0  0  0  0  0
   12.3832   -0.9726   21.2281 H   0  0  0  0  0  0  0  0  0  0  0  0
    4.3709    2.0154   17.4453 H   0  0  0  0  0  0  0  0  0  0  0  0
    2.9937    2.6903   19.3398 H   0  0  0  0  0  0  0  0  0  0  0  0
    3.6324    2.0591   21.6820 H   0  0  0  0  0  0  0  0  0  0  0  0
    5.6875    0.7279   22.0567 H   0  0  0  0  0  0  0  0  0  0  0  0
    6.3101   -7.3613   26.0164 H   0  0  0  0  0  0  0  0  0  0  0  0
    8.0752   -7.3922   26.1183 H   0  0  0  0  0  0  0  0  0  0  0  0
    6.1328   -5.9938   28.0269 H   0  0  0  0  0  0  0  0  0  0  0  0
    7.1363   -7.4051   28.3772 H   0  0  0  0  0  0  0  0  0  0  0  0
    8.2035   -5.3520   29.2586 H   0  0  0  0  0  0  0  0  0  0  0  0
    9.1990   -6.0474   27.9788 H   0  0  0  0  0  0  0  0  0  0  0  0
    7.2505   -3.6996   27.7511 H   0  0  0  0  0  0  0  0  0  0  0  0
    9.0155   -3.6525   27.5824 H   0  0  0  0  0  0  0  0  0  0  0  0
   15.4522   -1.6787   21.8540 H   0  0  0  0  0  0  0  0  0  0  0  0
   15.0179   -3.0613   22.9154 H   0  0  0  0  0  0  0  0  0  0  0  0
   14.1626   -2.8324   21.3691 H   0  0  0  0  0  0  0  0  0  0  0  0
   10.4561    1.0772   24.1620 H   0  0  0  0  0  0  0  0  0  0  0  0
   10.8743    1.5008   22.5014 H   0  0  0  0  0  0  0  0  0  0  0  0
    7.4659   -1.2025   21.6292 H   0  0  0  0  0  0  0  0  0  0  0  0
    8.6969   -1.5747   20.4087 H   0  0  0  0  0  0  0  0  0  0  0  0
  1  3  2  0  0  0  0
  1  8  1  0  0  0  0
  2  4  1  0  0  0  0
  2  8  2  0  0  0  0
  3  9  1  0  0  0  0
  4  9  2  0  0  0  0
  5  7  1  0  0  0  0
  5 25  2  0  0  0  0
  6  7  2  0  0  0  0
  6 28  1  0  0  0  0
  7 23  1  0  0  0  0
  8 30  1  0  0  0  0
  9 31  1  0  0  0  0
 10 12  1  0  0  0  0
 10 26  2  0  0  0  0
 10 29  1  0  0  0  0
 11 24  1  0  0  0  0
 11 27  2  0  0  0  0
 11 29  1  0  0  0  0
 12 13  2  0  0  0  0
 13 14  1  0  0  0  0
 14 15  2  0  0  0  0
 15 29  1  0  0  0  0
 16 18  1  0  0  0  0
 16 30  1  0  0  0  0
 16 32  2  0  0  0  0
 17 24  1  0  0  0  0
 17 31  1  0  0  0  0
 17 33  2  0  0  0  0
 18 19  1  0  0  0  0
 19 20  1  0  0  0  0
 20 21  1  0  0  0  0
 21 30  1  0  0  0  0
 22 28  1  0  0  0  0
 23 31  1  0  0  0  0
 25 28  1  0  0  0  0
 26 27  1  0  0  0  0
  1 34  1  0  0  0  0
  2 35  1  0  0  0  0
  3 36  1  0  0  0  0
  4 37  1  0  0  0  0
  5 38  1  0  0  0  0
  6 39  1  0  0  0  0
 12 40  1  0  0  0  0
 13 41  1  0  0  0  0
 14 42  1  0  0  0  0
 15 43  1  0  0  0  0
 18 44  1  0  0  0  0
 18 45  1  0  0  0  0
 19 46  1  0  0  0  0
 19 47  1  0  0  0  0
 20 48  1  0  0  0  0
 20 49  1  0  0  0  0
 21 50  1  0  0  0  0
 21 51  1  0  0  0  0
 22 52  1  0  0  0  0
 22 53  1  0  0  0  0
 22 54  1  0  0  0  0
 23 55  1  0  0  0  0
 23 56  1  0  0  0  0
 24 57  1  0  0  0  0
 24 58  1  0  0  0  0
M  END
> <clash_score>
0

> <docking_score>
-8.008940696716309

> <overlap_score>
0.999474287033081

$$$$
BENZO_501_1
  -OEChem-08222022483D

 57 61  0     0  0  0  0  0  0999 V2000
   14.2641   -1.7450   23.4813 C   0  0  0  0  0  0  0  0  0  0  0  0
   14.0779   -0.6681   24.3480 C   0  0  0  0  0  0  0  0  0  0  0  0
   13.2991   -2.0403   22.5184 C   0  0  0  0  0  0  0  0  0  0  0  0
   12.9266    0.1135   24.2518 C   0  0  0  0  0  0  0  0  0  0  0  0
   12.1478   -1.2587   22.4222 C   0  0  0  0  0  0  0  0  0  0  0  0
    9.1890   -3.5540   24.0140 C   0  0  0  0  0  0  0  0  0  0  0  0
    7.8700   -2.0610   25.3550 C   0  0  0  0  0  0  0  0  0  0  0  0
    9.5890   -2.4950   23.2210 C   0  0  0  0  0  0  0  0  0  0  0  0
    8.2550   -1.0010   24.5520 C   0  0  0  0  0  0  0  0  0  0  0  0
   11.9616   -0.1817   23.2889 C   0  0  0  0  0  0  0  0  0  0  0  0
    8.3450   -3.3440   25.0980 C   0  0  0  0  0  0  0  0  0  0  0  0
    9.1280   -1.2090   23.4870 C   0  0  0  0  0  0  0  0  0  0  0  0
    5.7970    0.9500   18.6730 C   0  0  0  0  0  0  0  0  0  0  0  0
    7.2710   -0.1460   19.8310 C   0  0  0  0  0  0  0  0  0  0  0  0
    4.6610    1.7170   18.4380 C   0  0  0  0  0  0  0  0  0  0  0  0
    3.8860    2.1050   19.5250 C   0  0  0  0  0  0  0  0  0  0  0  0
    4.2460    1.7520   20.8250 C   0  0  0  0  0  0  0  0  0  0  0  0
    5.3890    1.0010   21.0690 C   0  0  0  0  0  0  0  0  0  0  0  0
    9.0430    0.2380   21.4940 C   0  0  0  0  0  0  0  0  0  0  0  0
    7.2567   -5.5373   25.3128 C   0  0  0  0  0  0  0  0  0  0  0  0
    7.6783   -4.1701   27.3375 C   0  0  0  0  0  0  0  0  0  0  0  0
    7.3927   -6.7710   26.1978 C   0  0  0  0  0  0  0  0  0  0  0  0
    7.7912   -5.4770   28.1147 C   0  0  0  0  0  0  0  0  0  0  0  0
   10.7220    0.6590   23.1850 C   0  0  0  0  0  0  0  0  0  0  0  0
    8.0950   -0.7700   20.8440 C   0  0  0  0  0  0  0  0  0  0  0  0
    6.7100    0.3850   17.8100 N   0  0  0  0  0  0  0  0  0  0  0  0
    7.5840   -0.2700   18.5160 N   0  0  0  0  0  0  0  0  0  0  0  0
    6.1460    0.6070   19.9750 N   0  0  0  0  0  0  0  0  0  0  0  0
    7.9750   -4.4088   25.9208 N   0  0  0  0  0  0  0  0  0  0  0  0
    9.5820   -0.1080   22.7000 N   0  0  0  0  0  0  0  0  0  0  0  0
    9.2950    1.3000   20.9480 O   0  0  0  0  0  0  0  0  0  0  0  0
    6.9636   -6.4808   27.5280 O   0  0  0  0  0  0  0  0  0  0  0  0
   15.1613   -2.3527   23.5555 H   0  0  0  0  0  0  0  0  0  0  0  0
   14.8297   -0.4373   25.0971 H   0  0  0  0  0  0  0  0  0  0  0  0
   13.4443   -2.8780   21.8427 H   0  0  0  0  0  0  0  0  0  0  0  0
   12.7899    0.9506   24.9315 H   0  0  0  0  0  0  0  0  0  0  0  0
   11.4013   -1.4963   21.6690 H   0  0  0  0  0  0  0  0  0  0  0  0
    9.5426   -4.5618   23.7797 H   0  0  0  0  0  0  0  0  0  0  0  0
    7.1914   -1.8824   26.1903 H   0  0  0  0  0  0  0  0  0  0  0  0
   10.2669   -2.6745   22.3854 H   0  0  0  0  0  0  0  0  0  0  0  0
    7.8690   -0.0020   24.7587 H   0  0  0  0  0  0  0  0  0  0  0  0
    4.3709    2.0154   17.4453 H   0  0  0  0  0  0  0  0  0  0  0  0
    2.9937    2.6903   19.3398 H   0  0  0  0  0  0  0  0  0  0  0  0
    3.6324    2.0591   21.6820 H   0  0  0  0  0  0  0  0  0  0  0  0
    5.6875    0.7279   22.0567 H   0  0  0  0  0  0  0  0  0  0  0  0
    7.6535   -5.7575   24.3148 H   0  0  0  0  0  0  0  0  0  0  0  0
    6.1962   -5.2737   25.2113 H   0  0  0  0  0  0  0  0  0  0  0  0
    6.6579   -3.7759   27.4290 H   0  0  0  0  0  0  0  0  0  0  0  0
    8.3696   -3.4320   27.7610 H   0  0  0  0  0  0  0  0  0  0  0  0
    6.7582   -7.5752   25.8116 H   0  0  0  0  0  0  0  0  0  0  0  0
    8.4238   -7.1441   26.2130 H   0  0  0  0  0  0  0  0  0  0  0  0
    8.8287   -5.8300   28.1600 H   0  0  0  0  0  0  0  0  0  0  0  0
    7.4508   -5.3251   29.1440 H   0  0  0  0  0  0  0  0  0  0  0  0
   10.4561    1.0772   24.1620 H   0  0  0  0  0  0  0  0  0  0  0  0
   10.8743    1.5008   22.5014 H   0  0  0  0  0  0  0  0  0  0  0  0
    7.4659   -1.2025   21.6292 H   0  0  0  0  0  0  0  0  0  0  0  0
    8.6969   -1.5747   20.4087 H   0  0  0  0  0  0  0  0  0  0  0  0
  1  2  1  0  0  0  0
  1  3  2  0  0  0  0
  2  4  2  0  0  0  0
  3  5  1  0  0  0  0
  4 10  1  0  0  0  0
  5 10  2  0  0  0  0
  6  8  2  0  0  0  0
  6 11  1  0  0  0  0
  7  9  1  0  0  0  0
  7 11  2  0  0  0  0
  8 12  1  0  0  0  0
  9 12  2  0  0  0  0
 10 24  1  0  0  0  0
 11 29  1  0  0  0  0
 12 30  1  0  0  0  0
 13 15  1  0  0  0  0
 13 26  2  0  0  0  0
 13 28  1  0  0  0  0
 14 25  1  0  0  0  0
 14 27  2  0  0  0  0
 14 28  1  0  0  0  0
 15 16  2  0  0  0  0
 16 17  1  0  0  0  0
 17 18  2  0  0  0  0
 18 28  1  0  0  0  0
 19 25  1  0  0  0  0
 19 30  1  0  0  0  0
 19 31  2  0  0  0  0
 20 22  1  0  0  0  0
 20 29  1  0  0  0  0
 21 23  1  0  0  0  0
 21 29  1  0  0  0  0
 22 32  1  0  0  0  0
 23 32  1  0  0  0  0
 24 30  1  0  0  0  0
 26 27  1  0  0  0  0
  1 33  1  0  0  0  0
  2 34  1  0  0  0  0
  3 35  1  0  0  0  0
  4 36  1  0  0  0  0
  5 37  1  0  0  0  0
  6 38  1  0  0  0  0
  7 39  1  0  0  0  0
  8 40  1  0  0  0  0
  9 41  1  0  0  0  0
 15 42  1  0  0  0  0
 16 43  1  0  0  0  0
 17 44  1  0  0  0  0
 18 45  1  0  0  0  0
 20 46  1  0  0  0  0
 20 47  1  0  0  0  0
 21 48  1  0  0  0  0
 21 49  1  0  0  0  0
 22 50  1  0  0  0  0
 22 51  1  0  0  0  0
 23 52  1  0  0  0  0
 23 53  1  0  0  0  0
 24 54  1  0  0  0  0
 24 55  1  0  0  0  0
 25 56  1  0  0  0  0
 25 57  1  0  0  0  0
M  END
> <clash_score>
0

> <docking_score>
-10.122815132141113

> <overlap_score>
0.9890322685241699

$$$$
BENZO_498_1
  -OEChem-08222022483D

 58 62  0     0  0  0  0  0  0999 V2000
   13.7501   -1.1157   24.6177 C   0  0  0  0  0  0  0  0  0  0  0  0
   12.5991   -0.3339   24.5202 C   0  0  0  0  0  0  0  0  0  0  0  0
    9.1890   -3.5540   24.0140 C   0  0  0  0  0  0  0  0  0  0  0  0
    7.8700   -2.0610   25.3550 C   0  0  0  0  0  0  0  0  0  0  0  0
    9.5890   -2.4950   23.2210 C   0  0  0  0  0  0  0  0  0  0  0  0
    8.2550   -1.0010   24.5520 C   0  0  0  0  0  0  0  0  0  0  0  0
   14.2636   -1.7454   23.4838 C   0  0  0  0  0  0  0  0  0  0  0  0
   12.4750   -0.8115   22.1551 C   0  0  0  0  0  0  0  0  0  0  0  0
   11.9616   -0.1817   23.2889 C   0  0  0  0  0  0  0  0  0  0  0  0
    8.3450   -3.3440   25.0980 C   0  0  0  0  0  0  0  0  0  0  0  0
    9.1280   -1.2090   23.4870 C   0  0  0  0  0  0  0  0  0  0  0  0
   13.6260   -1.5933   22.2526 C   0  0  0  0  0  0  0  0  0  0  0  0
    5.7970    0.9500   18.6730 C   0  0  0  0  0  0  0  0  0  0  0  0
    7.2710   -0.1460   19.8310 C   0  0  0  0  0  0  0  0  0  0  0  0
    4.6610    1.7170   18.4380 C   0  0  0  0  0  0  0  0  0  0  0  0
    3.8860    2.1050   19.5250 C   0  0  0  0  0  0  0  0  0  0  0  0
    4.2460    1.7520   20.8250 C   0  0  0  0  0  0  0  0  0  0  0  0
    5.3890    1.0010   21.0690 C   0  0  0  0  0  0  0  0  0  0  0  0
    7.2757   -5.5631   25.4492 C   0  0  0  0  0  0  0  0  0  0  0  0
    9.0430    0.2380   21.4940 C   0  0  0  0  0  0  0  0  0  0  0  0
    6.9626   -6.6001   26.5133 C   0  0  0  0  0  0  0  0  0  0  0  0
    6.3764   -5.9422   27.7501 C   0  0  0  0  0  0  0  0  0  0  0  0
    7.2660   -4.8258   28.2881 C   0  0  0  0  0  0  0  0  0  0  0  0
    8.4098   -4.4623   27.3426 C   0  0  0  0  0  0  0  0  0  0  0  0
   10.7220    0.6590   23.1850 C   0  0  0  0  0  0  0  0  0  0  0  0
    8.0950   -0.7700   20.8440 C   0  0  0  0  0  0  0  0  0  0  0  0
    6.7100    0.3850   17.8100 N   0  0  0  0  0  0  0  0  0  0  0  0
    7.5840   -0.2700   18.5160 N   0  0  0  0  0  0  0  0  0  0  0  0
    6.1460    0.6070   19.9750 N   0  0  0  0  0  0  0  0  0  0  0  0
    7.9658   -4.4384   25.9449 N   0  0  0  0  0  0  0  0  0  0  0  0
    9.5820   -0.1080   22.7000 N   0  0  0  0  0  0  0  0  0  0  0  0
    6.9858   -5.7908   24.2753 O   0  0  0  0  0  0  0  0  0  0  0  0
    9.2950    1.3000   20.9480 O   0  0  0  0  0  0  0  0  0  0  0  0
   14.2594   -2.3714   20.8543 Cl  0  0  0  0  0  0  0  0  0  0  0  0
   14.2462   -1.2340   25.5766 H   0  0  0  0  0  0  0  0  0  0  0  0
   12.2060    0.1530   25.4088 H   0  0  0  0  0  0  0  0  0  0  0  0
    9.5436   -4.5614   23.7799 H   0  0  0  0  0  0  0  0  0  0  0  0
    7.1918   -1.8823   26.1906 H   0  0  0  0  0  0  0  0  0  0  0  0
   10.2676   -2.6754   22.3861 H   0  0  0  0  0  0  0  0  0  0  0  0
    7.8686   -0.0026   24.7598 H   0  0  0  0  0  0  0  0  0  0  0  0
   15.1613   -2.3520   23.5748 H   0  0  0  0  0  0  0  0  0  0  0  0
   11.9745   -0.6893   21.1973 H   0  0  0  0  0  0  0  0  0  0  0  0
    4.3709    2.0154   17.4453 H   0  0  0  0  0  0  0  0  0  0  0  0
    2.9937    2.6903   19.3398 H   0  0  0  0  0  0  0  0  0  0  0  0
    3.6324    2.0591   21.6820 H   0  0  0  0  0  0  0  0  0  0  0  0
    5.6875    0.7279   22.0567 H   0  0  0  0  0  0  0  0  0  0  0  0
    6.2500   -7.3027   26.1097 H   0  0  0  0  0  0  0  0  0  0  0  0
    7.8838   -7.1078   26.7574 H   0  0  0  0  0  0  0  0  0  0  0  0
    5.3690   -5.5363   27.5214 H   0  0  0  0  0  0  0  0  0  0  0  0
    6.2178   -6.7054   28.5384 H   0  0  0  0  0  0  0  0  0  0  0  0
    6.6498   -3.9225   28.4807 H   0  0  0  0  0  0  0  0  0  0  0  0
    7.6764   -5.1138   29.2803 H   0  0  0  0  0  0  0  0  0  0  0  0
    8.7796   -3.4700   27.5826 H   0  0  0  0  0  0  0  0  0  0  0  0
    9.2112   -5.1853   27.4497 H   0  0  0  0  0  0  0  0  0  0  0  0
   10.4561    1.0772   24.1620 H   0  0  0  0  0  0  0  0  0  0  0  0
   10.8743    1.5008   22.5014 H   0  0  0  0  0  0  0  0  0  0  0  0
    7.4659   -1.2025   21.6292 H   0  0  0  0  0  0  0  0  0  0  0  0
    8.6969   -1.5747   20.4087 H   0  0  0  0  0  0  0  0  0  0  0  0
  1  2  2  0  0  0  0
  1  7  1  0  0  0  0
  2  9  1  0  0  0  0
  3  5  2  0  0  0  0
  3 10  1  0  0  0  0
  4  6  1  0  0  0  0
  4 10  2  0  0  0  0
  5 11  1  0  0  0  0
  6 11  2  0  0  0  0
  7 12  2  0  0  0  0
  8  9  2  0  0  0  0
  8 12  1  0  0  0  0
  9 25  1  0  0  0  0
 10 30  1  0  0  0  0
 11 31  1  0  0  0  0
 12 34  1  0  0  0  0
 13 15  1  0  0  0  0
 13 27  2  0  0  0  0
 13 29  1  0  0  0  0
 14 26  1  0  0  0  0
 14 28  2  0  0  0  0
 14 29  1  0  0  0  0
 15 16  2  0  0  0  0
 16 17  1  0  0  0  0
 17 18  2  0  0  0  0
 18 29  1  0  0  0  0
 19 21  1  0  0  0  0
 19 30  1  0  0  0  0
 19 32  2  0  0  0  0
 20 26  1  0  0  0  0
 20 31  1  0  0  0  0
 20 33  2  0  0  0  0
 21 22  1  0  0  0  0
 22 23  1  0  0  0  0
 23 24  1  0  0  0  0
 24 30  1  0  0  0  0
 25 31  1  0  0  0  0
 27 28  1  0  0  0  0
  1 35  1  0  0  0  0
  2 36  1  0  0  0  0
  3 37  1  0  0  0  0
  4 38  1  0  0  0  0
  5 39  1  0  0  0  0
  6 40  1  0  0  0  0
  7 41  1  0  0  0  0
  8 42  1  0  0  0  0
 15 43  1  0  0  0  0
 16 44  1  0  0  0  0
 17 45  1  0  0  0  0
 18 46  1  0  0  0  0
 21 47  1  0  0  0  0
 21 48  1  0  0  0  0
 22 49  1  0  0  0  0
 22 50  1  0  0  0  0
 23 51  1  0  0  0  0
 23 52  1  0  0  0  0
 24 53  1  0  0  0  0
 24 54  1  0  0  0  0
 25 55  1  0  0  0  0
 25 56  1  0  0  0  0
 26 57  1  0  0  0  0
 26 58  1  0  0  0  0
M  END
> <clash_score>
0

> <docking_score>
-8.852354049682617

> <overlap_score>
0.9984302520751953

$$$$
BENZO_500_1
  -OEChem-08222022483D

 54 58  0     0  0  0  0  0  0999 V2000
    9.1890   -3.5540   24.0140 C   0  0  0  0  0  0  0  0  0  0  0  0
    7.8700   -2.0610   25.3550 C   0  0  0  0  0  0  0  0  0  0  0  0
    9.5890   -2.4950   23.2210 C   0  0  0  0  0  0  0  0  0  0  0  0
    8.2550   -1.0010   24.5520 C   0  0  0  0  0  0  0  0  0  0  0  0
   12.6785   -0.3936   24.5018 C   0  0  0  0  0  0  0  0  0  0  0  0
   13.7775   -1.2037   24.3186 C   0  0  0  0  0  0  0  0  0  0  0  0
   12.5401   -0.8378   22.2246 C   0  0  0  0  0  0  0  0  0  0  0  0
   11.9616   -0.1817   23.2889 C   0  0  0  0  0  0  0  0  0  0  0  0
    8.3450   -3.3440   25.0980 C   0  0  0  0  0  0  0  0  0  0  0  0
    9.1280   -1.2090   23.4870 C   0  0  0  0  0  0  0  0  0  0  0  0
    5.7970    0.9500   18.6730 C   0  0  0  0  0  0  0  0  0  0  0  0
    7.2710   -0.1460   19.8310 C   0  0  0  0  0  0  0  0  0  0  0  0
    4.6610    1.7170   18.4380 C   0  0  0  0  0  0  0  0  0  0  0  0
    3.8860    2.1050   19.5250 C   0  0  0  0  0  0  0  0  0  0  0  0
    4.2460    1.7520   20.8250 C   0  0  0  0  0  0  0  0  0  0  0  0
    5.3890    1.0010   21.0690 C   0  0  0  0  0  0  0  0  0  0  0  0
    9.0430    0.2380   21.4940 C   0  0  0  0  0  0  0  0  0  0  0  0
    8.9524   -5.2012   26.6600 C   0  0  0  0  0  0  0  0  0  0  0  0
    6.6112   -4.5068   26.4379 C   0  0  0  0  0  0  0  0  0  0  0  0
    8.9037   -4.7845   28.1261 C   0  0  0  0  0  0  0  0  0  0  0  0
    6.6374   -4.1243   27.9184 C   0  0  0  0  0  0  0  0  0  0  0  0
   10.7220    0.6590   23.1850 C   0  0  0  0  0  0  0  0  0  0  0  0
    8.0950   -0.7700   20.8440 C   0  0  0  0  0  0  0  0  0  0  0  0
    6.7100    0.3850   17.8100 N   0  0  0  0  0  0  0  0  0  0  0  0
    7.5840   -0.2700   18.5160 N   0  0  0  0  0  0  0  0  0  0  0  0
    6.1460    0.6070   19.9750 N   0  0  0  0  0  0  0  0  0  0  0  0
    7.9775   -4.4014   25.9151 N   0  0  0  0  0  0  0  0  0  0  0  0
    9.5820   -0.1080   22.7000 N   0  0  0  0  0  0  0  0  0  0  0  0
    9.2950    1.3000   20.9480 O   0  0  0  0  0  0  0  0  0  0  0  0
    7.5729   -4.9391   28.6338 O   0  0  0  0  0  0  0  0  0  0  0  0
   13.9416   -1.7051   22.6894 S   0  0  0  0  0  0  0  0  0  0  0  0
    9.5426   -4.5618   23.7797 H   0  0  0  0  0  0  0  0  0  0  0  0
    7.1914   -1.8824   26.1903 H   0  0  0  0  0  0  0  0  0  0  0  0
   10.2669   -2.6745   22.3854 H   0  0  0  0  0  0  0  0  0  0  0  0
    7.8690   -0.0020   24.7587 H   0  0  0  0  0  0  0  0  0  0  0  0
   12.4058    0.0253   25.4623 H   0  0  0  0  0  0  0  0  0  0  0  0
   14.4923   -1.5246   25.0631 H   0  0  0  0  0  0  0  0  0  0  0  0
   12.2108   -0.8511   21.1948 H   0  0  0  0  0  0  0  0  0  0  0  0
    4.3709    2.0154   17.4453 H   0  0  0  0  0  0  0  0  0  0  0  0
    2.9937    2.6903   19.3398 H   0  0  0  0  0  0  0  0  0  0  0  0
    3.6324    2.0591   21.6820 H   0  0  0  0  0  0  0  0  0  0  0  0
    5.6875    0.7279   22.0567 H   0  0  0  0  0  0  0  0  0  0  0  0
    9.9615   -5.0500   26.2711 H   0  0  0  0  0  0  0  0  0  0  0  0
    8.6935   -6.2597   26.5720 H   0  0  0  0  0  0  0  0  0  0  0  0
    6.2628   -5.5350   26.3330 H   0  0  0  0  0  0  0  0  0  0  0  0
    5.9347   -3.8423   25.9023 H   0  0  0  0  0  0  0  0  0  0  0  0
    9.5597   -5.4275   28.7166 H   0  0  0  0  0  0  0  0  0  0  0  0
    9.2344   -3.7511   28.2636 H   0  0  0  0  0  0  0  0  0  0  0  0
    6.8874   -3.0657   28.0553 H   0  0  0  0  0  0  0  0  0  0  0  0
    5.6495   -4.2893   28.3591 H   0  0  0  0  0  0  0  0  0  0  0  0
   10.4561    1.0772   24.1620 H   0  0  0  0  0  0  0  0  0  0  0  0
   10.8743    1.5008   22.5014 H   0  0  0  0  0  0  0  0  0  0  0  0
    7.4659   -1.2025   21.6292 H   0  0  0  0  0  0  0  0  0  0  0  0
    8.6969   -1.5747   20.4087 H   0  0  0  0  0  0  0  0  0  0  0  0
  1  3  2  0  0  0  0
  1  9  1  0  0  0  0
  2  4  1  0  0  0  0
  2  9  2  0  0  0  0
  3 10  1  0  0  0  0
  4 10  2  0  0  0  0
  5  6  2  0  0  0  0
  5  8  1  0  0  0  0
  6 31  1  0  0  0  0
  7  8  2  0  0  0  0
  7 31  1  0  0  0  0
  8 22  1  0  0  0  0
  9 27  1  0  0  0  0
 10 28  1  0  0  0  0
 11 13  1  0  0  0  0
 11 24  2  0  0  0  0
 11 26  1  0  0  0  0
 12 23  1  0  0  0  0
 12 25  2  0  0  0  0
 12 26  1  0  0  0  0
 13 14  2  0  0  0  0
 14 15  1  0  0  0  0
 15 16  2  0  0  0  0
 16 26  1  0  0  0  0
 17 23  1  0  0  0  0
 17 28  1  0  0  0  0
 17 29  2  0  0  0  0
 18 20  1  0  0  0  0
 18 27  1  0  0  0  0
 19 21  1  0  0  0  0
 19 27  1  0  0  0  0
 20 30  1  0  0  0  0
 21 30  1  0  0  0  0
 22 28  1  0  0  0  0
 24 25  1  0  0  0  0
  1 32  1  0  0  0  0
  2 33  1  0  0  0  0
  3 34  1  0  0  0  0
  4 35  1  0  0  0  0
  5 36  1  0  0  0  0
  6 37  1  0  0  0  0
  7 38  1  0  0  0  0
 13 39  1  0  0  0  0
 14 40  1  0  0  0  0
 15 41  1  0  0  0  0
 16 42  1  0  0  0  0
 18 43  1  0  0  0  0
 18 44  1  0  0  0  0
 19 45  1  0  0  0  0
 19 46  1  0  0  0  0
 20 47  1  0  0  0  0
 20 48  1  0  0  0  0
 21 49  1  0  0  0  0
 21 50  1  0  0  0  0
 22 51  1  0  0  0  0
 22 52  1  0  0  0  0
 23 53  1  0  0  0  0
 23 54  1  0  0  0  0
M  END
> <clash_score>
0

> <docking_score>
-10.397318840026855

> <overlap_score>
0.9805793762207031

$$$$
BENZO_502_1
  -OEChem-08222022483D

 57 61  0     0  0  0  0  0  0999 V2000
   13.7501   -1.1157   24.6177 C   0  0  0  0  0  0  0  0  0  0  0  0
   12.5991   -0.3339   24.5202 C   0  0  0  0  0  0  0  0  0  0  0  0
    9.1890   -3.5540   24.0140 C   0  0  0  0  0  0  0  0  0  0  0  0
    7.8700   -2.0610   25.3550 C   0  0  0  0  0  0  0  0  0  0  0  0
    9.5890   -2.4950   23.2210 C   0  0  0  0  0  0  0  0  0  0  0  0
    8.2550   -1.0010   24.5520 C   0  0  0  0  0  0  0  0  0  0  0  0
   14.2636   -1.7454   23.4838 C   0  0  0  0  0  0  0  0  0  0  0  0
   12.4750   -0.8115   22.1551 C   0  0  0  0  0  0  0  0  0  0  0  0
   11.9616   -0.1817   23.2889 C   0  0  0  0  0  0  0  0  0  0  0  0
    8.3450   -3.3440   25.0980 C   0  0  0  0  0  0  0  0  0  0  0  0
    9.1280   -1.2090   23.4870 C   0  0  0  0  0  0  0  0  0  0  0  0
   13.6260   -1.5933   22.2526 C   0  0  0  0  0  0  0  0  0  0  0  0
    5.7970    0.9500   18.6730 C   0  0  0  0  0  0  0  0  0  0  0  0
    7.2710   -0.1460   19.8310 C   0  0  0  0  0  0  0  0  0  0  0  0
    4.6610    1.7170   18.4380 C   0  0  0  0  0  0  0  0  0  0  0  0
    3.8860    2.1050   19.5250 C   0  0  0  0  0  0  0  0  0  0  0  0
    4.2460    1.7520   20.8250 C   0  0  0  0  0  0  0  0  0  0  0  0
    5.3890    1.0010   21.0690 C   0  0  0  0  0  0  0  0  0  0  0  0
    9.0430    0.2380   21.4940 C   0  0  0  0  0  0  0  0  0  0  0  0
    8.9524   -5.2012   26.6600 C   0  0  0  0  0  0  0  0  0  0  0  0
    6.6112   -4.5068   26.4379 C   0  0  0  0  0  0  0  0  0  0  0  0
    8.9037   -4.7845   28.1261 C   0  0  0  0  0  0  0  0  0  0  0  0
    6.6374   -4.1243   27.9184 C   0  0  0  0  0  0  0  0  0  0  0  0
   10.7220    0.6590   23.1850 C   0  0  0  0  0  0  0  0  0  0  0  0
    8.0950   -0.7700   20.8440 C   0  0  0  0  0  0  0  0  0  0  0  0
    6.7100    0.3850   17.8100 N   0  0  0  0  0  0  0  0  0  0  0  0
    7.5840   -0.2700   18.5160 N   0  0  0  0  0  0  0  0  0  0  0  0
    6.1460    0.6070   19.9750 N   0  0  0  0  0  0  0  0  0  0  0  0
    7.9775   -4.4014   25.9151 N   0  0  0  0  0  0  0  0  0  0  0  0
    9.5820   -0.1080   22.7000 N   0  0  0  0  0  0  0  0  0  0  0  0
    9.2950    1.3000   20.9480 O   0  0  0  0  0  0  0  0  0  0  0  0
    7.5729   -4.9391   28.6338 O   0  0  0  0  0  0  0  0  0  0  0  0
   14.2594   -2.3714   20.8543 Cl  0  0  0  0  0  0  0  0  0  0  0  0
   14.2462   -1.2340   25.5767 H   0  0  0  0  0  0  0  0  0  0  0  0
   12.2060    0.1530   25.4088 H   0  0  0  0  0  0  0  0  0  0  0  0
    9.5426   -4.5618   23.7797 H   0  0  0  0  0  0  0  0  0  0  0  0
    7.1914   -1.8824   26.1903 H   0  0  0  0  0  0  0  0  0  0  0  0
   10.2669   -2.6745   22.3854 H   0  0  0  0  0  0  0  0  0  0  0  0
    7.8690   -0.0020   24.7587 H   0  0  0  0  0  0  0  0  0  0  0  0
   15.1613   -2.3520   23.5748 H   0  0  0  0  0  0  0  0  0  0  0  0
   11.9745   -0.6893   21.1973 H   0  0  0  0  0  0  0  0  0  0  0  0
    4.3709    2.0154   17.4453 H   0  0  0  0  0  0  0  0  0  0  0  0
    2.9937    2.6903   19.3398 H   0  0  0  0  0  0  0  0  0  0  0  0
    3.6324    2.0591   21.6820 H   0  0  0  0  0  0  0  0  0  0  0  0
    5.6875    0.7279   22.0567 H   0  0  0  0  0  0  0  0  0  0  0  0
    9.9615   -5.0500   26.2711 H   0  0  0  0  0  0  0  0  0  0  0  0
    8.6935   -6.2597   26.5720 H   0  0  0  0  0  0  0  0  0  0  0  0
    6.2628   -5.5350   26.3330 H   0  0  0  0  0  0  0  0  0  0  0  0
    5.9347   -3.8423   25.9023 H   0  0  0  0  0  0  0  0  0  0  0  0
    9.5597   -5.4275   28.7166 H   0  0  0  0  0  0  0  0  0  0  0  0
    9.2344   -3.7511   28.2636 H   0  0  0  0  0  0  0  0  0  0  0  0
    6.8874   -3.0657   28.0553 H   0  0  0  0  0  0  0  0  0  0  0  0
    5.6495   -4.2893   28.3591 H   0  0  0  0  0  0  0  0  0  0  0  0
   10.4561    1.0772   24.1620 H   0  0  0  0  0  0  0  0  0  0  0  0
   10.8743    1.5008   22.5014 H   0  0  0  0  0  0  0  0  0  0  0  0
    7.4659   -1.2025   21.6292 H   0  0  0  0  0  0  0  0  0  0  0  0
    8.6969   -1.5747   20.4087 H   0  0  0  0  0  0  0  0  0  0  0  0
  1  2  2  0  0  0  0
  1  7  1  0  0  0  0
  2  9  1  0  0  0  0
  3  5  2  0  0  0  0
  3 10  1  0  0  0  0
  4  6  1  0  0  0  0
  4 10  2  0  0  0  0
  5 11  1  0  0  0  0
  6 11  2  0  0  0  0
  7 12  2  0  0  0  0
  8  9  2  0  0  0  0
  8 12  1  0  0  0  0
  9 24  1  0  0  0  0
 10 29  1  0  0  0  0
 11 30  1  0  0  0  0
 12 33  1  0  0  0  0
 13 15  1  0  0  0  0
 13 26  2  0  0  0  0
 13 28  1  0  0  0  0
 14 25  1  0  0  0  0
 14 27  2  0  0  0  0
 14 28  1  0  0  0  0
 15 16  2  0  0  0  0
 16 17  1  0  0  0  0
 17 18  2  0  0  0  0
 18 28  1  0  0  0  0
 19 25  1  0  0  0  0
 19 30  1  0  0  0  0
 19 31  2  0  0  0  0
 20 22  1  0  0  0  0
 20 29  1  0  0  0  0
 21 23  1  0  0  0  0
 21 29  1  0  0  0  0
 22 32  1  0  0  0  0
 23 32  1  0  0  0  0
 24 30  1  0  0  0  0
 26 27  1  0  0  0  0
  1 34  1  0  0  0  0
  2 35  1  0  0  0  0
  3 36  1  0  0  0  0
  4 37  1  0  0  0  0
  5 38  1  0  0  0  0
  6 39  1  0  0  0  0
  7 40  1  0  0  0  0
  8 41  1  0  0  0  0
 15 42  1  0  0  0  0
 16 43  1  0  0  0  0
 17 44  1  0  0  0  0
 18 45  1  0  0  0  0
 20 46  1  0  0  0  0
 20 47  1  0  0  0  0
 21 48  1  0  0  0  0
 21 49  1  0  0  0  0
 22 50  1  0  0  0  0
 22 51  1  0  0  0  0
 23 52  1  0  0  0  0
 23 53  1  0  0  0  0
 24 54  1  0  0  0  0
 24 55  1  0  0  0  0
 25 56  1  0  0  0  0
 25 57  1  0  0  0  0
M  END
> <clash_score>
0

> <docking_score>
-9.910517692565918

> <overlap_score>
1.001713752746582

$$$$
BENZO_503_1
  -OEChem-08222022483D

 57 61  0     0  0  0  0  0  0999 V2000
    9.1890   -3.5540   24.0140 C   0  0  0  0  0  0  0  0  0  0  0  0
    7.8700   -2.0610   25.3550 C   0  0  0  0  0  0  0  0  0  0  0  0
    9.5890   -2.4950   23.2210 C   0  0  0  0  0  0  0  0  0  0  0  0
    8.2550   -1.0010   24.5520 C   0  0  0  0  0  0  0  0  0  0  0  0
   12.7320   -0.4464   24.4370 C   0  0  0  0  0  0  0  0  0  0  0  0
   12.5970   -0.8682   22.2832 C   0  0  0  0  0  0  0  0  0  0  0  0
   11.9616   -0.1817   23.2889 C   0  0  0  0  0  0  0  0  0  0  0  0
    8.3450   -3.3440   25.0980 C   0  0  0  0  0  0  0  0  0  0  0  0
    9.1280   -1.2090   23.4870 C   0  0  0  0  0  0  0  0  0  0  0  0
    5.7970    0.9500   18.6730 C   0  0  0  0  0  0  0  0  0  0  0  0
    7.2710   -0.1460   19.8310 C   0  0  0  0  0  0  0  0  0  0  0  0
    4.6610    1.7170   18.4380 C   0  0  0  0  0  0  0  0  0  0  0  0
    3.8860    2.1050   19.5250 C   0  0  0  0  0  0  0  0  0  0  0  0
    4.2460    1.7520   20.8250 C   0  0  0  0  0  0  0  0  0  0  0  0
    5.3890    1.0010   21.0690 C   0  0  0  0  0  0  0  0  0  0  0  0
    9.0430    0.2380   21.4940 C   0  0  0  0  0  0  0  0  0  0  0  0
    8.9524   -5.2012   26.6600 C   0  0  0  0  0  0  0  0  0  0  0  0
    6.6112   -4.5068   26.4379 C   0  0  0  0  0  0  0  0  0  0  0  0
    8.9037   -4.7845   28.1261 C   0  0  0  0  0  0  0  0  0  0  0  0
    6.6374   -4.1243   27.9184 C   0  0  0  0  0  0  0  0  0  0  0  0
   14.6393   -2.3180   22.2082 C   0  0  0  0  0  0  0  0  0  0  0  0
   10.7220    0.6590   23.1850 C   0  0  0  0  0  0  0  0  0  0  0  0
    8.0950   -0.7700   20.8440 C   0  0  0  0  0  0  0  0  0  0  0  0
   13.7770   -1.2393   24.1852 N   0  0  0  0  0  0  0  0  0  0  0  0
    6.7100    0.3850   17.8100 N   0  0  0  0  0  0  0  0  0  0  0  0
    7.5840   -0.2700   18.5160 N   0  0  0  0  0  0  0  0  0  0  0  0
   13.6676   -1.4788   22.8673 N   0  0  0  0  0  0  0  0  0  0  0  0
    6.1460    0.6070   19.9750 N   0  0  0  0  0  0  0  0  0  0  0  0
    7.9775   -4.4014   25.9151 N   0  0  0  0  0  0  0  0  0  0  0  0
    9.5820   -0.1080   22.7000 N   0  0  0  0  0  0  0  0  0  0  0  0
    9.2950    1.3000   20.9480 O   0  0  0  0  0  0  0  0  0  0  0  0
    7.5729   -4.9391   28.6338 O   0  0  0  0  0  0  0  0  0  0  0  0
    9.5426   -4.5618   23.7797 H   0  0  0  0  0  0  0  0  0  0  0  0
    7.1914   -1.8824   26.1903 H   0  0  0  0  0  0  0  0  0  0  0  0
   10.2669   -2.6745   22.3854 H   0  0  0  0  0  0  0  0  0  0  0  0
    7.8690   -0.0020   24.7587 H   0  0  0  0  0  0  0  0  0  0  0  0
   12.5771   -0.0965   25.4478 H   0  0  0  0  0  0  0  0  0  0  0  0
   12.3832   -0.9726   21.2281 H   0  0  0  0  0  0  0  0  0  0  0  0
    4.3709    2.0154   17.4453 H   0  0  0  0  0  0  0  0  0  0  0  0
    2.9937    2.6903   19.3398 H   0  0  0  0  0  0  0  0  0  0  0  0
    3.6324    2.0591   21.6820 H   0  0  0  0  0  0  0  0  0  0  0  0
    5.6875    0.7279   22.0567 H   0  0  0  0  0  0  0  0  0  0  0  0
    9.9615   -5.0500   26.2711 H   0  0  0  0  0  0  0  0  0  0  0  0
    8.6935   -6.2597   26.5720 H   0  0  0  0  0  0  0  0  0  0  0  0
    6.2628   -5.5350   26.3330 H   0  0  0  0  0  0  0  0  0  0  0  0
    5.9347   -3.8423   25.9023 H   0  0  0  0  0  0  0  0  0  0  0  0
    9.5597   -5.4275   28.7166 H   0  0  0  0  0  0  0  0  0  0  0  0
    9.2344   -3.7511   28.2636 H   0  0  0  0  0  0  0  0  0  0  0  0
    6.8874   -3.0657   28.0553 H   0  0  0  0  0  0  0  0  0  0  0  0
    5.6495   -4.2893   28.3591 H   0  0  0  0  0  0  0  0  0  0  0  0
   15.4522   -1.6787   21.8540 H   0  0  0  0  0  0  0  0  0  0  0  0
   15.0179   -3.0613   22.9154 H   0  0  0  0  0  0  0  0  0  0  0  0
   14.1626   -2.8325   21.3691 H   0  0  0  0  0  0  0  0  0  0  0  0
   10.4561    1.0772   24.1620 H   0  0  0  0  0  0  0  0  0  0  0  0
   10.8743    1.5008   22.5014 H   0  0  0  0  0  0  0  0  0  0  0  0
    7.4659   -1.2025   21.6292 H   0  0  0  0  0  0  0  0  0  0  0  0
    8.6969   -1.5747   20.4087 H   0  0  0  0  0  0  0  0  0  0  0  0
  1  3  2  0  0  0  0
  1  8  1  0  0  0  0
  2  4  1  0  0  0  0
  2  8  2  0  0  0  0
  3  9  1  0  0  0  0
  4  9  2  0  0  0  0
  5  7  1  0  0  0  0
  5 24  2  0  0  0  0
  6  7  2  0  0  0  0
  6 27  1  0  0  0  0
  7 22  1  0  0  0  0
  8 29  1  0  0  0  0
  9 30  1  0  0  0  0
 10 12  1  0  0  0  0
 10 25  2  0  0  0  0
 10 28  1  0  0  0  0
 11 23  1  0  0  0  0
 11 26  2  0  0  0  0
 11 28  1  0  0  0  0
 12 13  2  0  0  0  0
 13 14  1  0  0  0  0
 14 15  2  0  0  0  0
 15 28  1  0  0  0  0
 16 23  1  0  0  0  0
 16 30  1  0  0  0  0
 16 31  2  0  0  0  0
 17 19  1  0  0  0  0
 17 29  1  0  0  0  0
 18 20  1  0  0  0  0
 18 29  1  0  0  0  0
 19 32  1  0  0  0  0
 20 32  1  0  0  0  0
 21 27  1  0  0  0  0
 22 30  1  0  0  0  0
 24 27  1  0  0  0  0
 25 26  1  0  0  0  0
  1 33  1  0  0  0  0
  2 34  1  0  0  0  0
  3 35  1  0  0  0  0
  4 36  1  0  0  0  0
  5 37  1  0  0  0  0
  6 38  1  0  0  0  0
 12 39  1  0  0  0  0
 13 40  1  0  0  0  0
 14 41  1  0  0  0  0
 15 42  1  0  0  0  0
 17 43  1  0  0  0  0
 17 44  1  0  0  0  0
 18 45  1  0  0  0  0
 18 46  1  0  0  0  0
 19 47  1  0  0  0  0
 19 48  1  0  0  0  0
 20 49  1  0  0  0  0
 20 50  1  0  0  0  0
 21 51  1  0  0  0  0
 21 52  1  0  0  0  0
 21 53  1  0  0  0  0
 22 54  1  0  0  0  0
 22 55  1  0  0  0  0
 23 56  1  0  0  0  0
 23 57  1  0  0  0  0
M  END
> <clash_score>
0

> <docking_score>
-9.14654541015625

> <overlap_score>
0.9972014427185059

$$$$
