ALP-POS-d2866bdf-1
  -OEChem-08222022163D

 49 52  0     0  0  0  0  0  0999 V2000
    9.2940   -4.7330   25.5510 N   0  0  0  0  0  0  0  0  0  0  0  0
    9.6550   -5.9590   24.8650 C   0  0  0  0  0  0  0  0  0  0  0  0
    9.2690    1.4140   20.9380 O   0  0  0  0  0  0  0  0  0  0  0  0
    8.3680   -4.9600   26.6520 C   0  0  0  0  0  0  0  0  0  0  0  0
    9.4560    0.1560   22.8130 N   0  0  0  0  0  0  0  0  0  0  0  0
    9.3070   -3.5340   24.8780 C   0  0  0  0  0  0  0  0  0  0  0  0
    7.3170   -0.1610   19.8550 N   0  0  0  0  0  0  0  0  0  0  0  0
    8.9960   -2.3380   25.5320 C   0  0  0  0  0  0  0  0  0  0  0  0
    7.6390   -0.2680   18.5410 N   0  0  0  0  0  0  0  0  0  0  0  0
    9.0720   -1.1280   24.8640 C   0  0  0  0  0  0  0  0  0  0  0  0
    6.7580    0.3810   17.8350 N   0  0  0  0  0  0  0  0  0  0  0  0
    9.3350   -1.0880   23.5010 C   0  0  0  0  0  0  0  0  0  0  0  0
    9.7200   -2.2600   22.8630 C   0  0  0  0  0  0  0  0  0  0  0  0
    9.6730   -3.4710   23.5300 C   0  0  0  0  0  0  0  0  0  0  0  0
    9.8870    1.3260   23.5730 C   0  0  0  0  0  0  0  0  0  0  0  0
   11.3540    1.6190   23.3910 C   0  0  0  0  0  0  0  0  0  0  0  0
   12.3110    0.6640   23.5760 C   0  0  0  0  0  0  0  0  0  0  0  0
   13.2890    2.8040   22.8220 C   0  0  0  0  0  0  0  0  0  0  0  0
   11.9200    2.8550   22.9600 C   0  0  0  0  0  0  0  0  0  0  0  0
    9.0420    0.3700   21.5280 C   0  0  0  0  0  0  0  0  0  0  0  0
    8.1890   -0.7180   20.8700 C   0  0  0  0  0  0  0  0  0  0  0  0
    5.8300    0.9190   18.6970 C   0  0  0  0  0  0  0  0  0  0  0  0
    6.1790    0.5730   19.9990 C   0  0  0  0  0  0  0  0  0  0  0  0
    5.4210    0.9600   21.0930 C   0  0  0  0  0  0  0  0  0  0  0  0
    4.2750    1.7050   20.8490 C   0  0  0  0  0  0  0  0  0  0  0  0
    3.9160    2.0630   19.5520 C   0  0  0  0  0  0  0  0  0  0  0  0
    4.6890    1.6810   18.4640 C   0  0  0  0  0  0  0  0  0  0  0  0
   13.8810    1.2400   23.2310 S   0  0  0  0  0  0  0  0  0  0  0  0
   10.3531   -5.7298   24.0464 H   0  0  0  0  0  0  0  0  0  0  0  0
   10.1360   -6.6482   25.5747 H   0  0  0  0  0  0  0  0  0  0  0  0
    8.7496   -6.4292   24.4538 H   0  0  0  0  0  0  0  0  0  0  0  0
    8.1292   -4.0008   27.1347 H   0  0  0  0  0  0  0  0  0  0  0  0
    7.4444   -5.4160   26.2660 H   0  0  0  0  0  0  0  0  0  0  0  0
    8.8308   -5.6350   27.3870 H   0  0  0  0  0  0  0  0  0  0  0  0
    8.6935   -2.3584   26.5686 H   0  0  0  0  0  0  0  0  0  0  0  0
    8.9254   -0.2065   25.4079 H   0  0  0  0  0  0  0  0  0  0  0  0
   10.0587   -2.2257   21.8381 H   0  0  0  0  0  0  0  0  0  0  0  0
    9.9223   -4.3799   23.0025 H   0  0  0  0  0  0  0  0  0  0  0  0
    9.3078    2.1988   23.2371 H   0  0  0  0  0  0  0  0  0  0  0  0
    9.6923    1.1455   24.6405 H   0  0  0  0  0  0  0  0  0  0  0  0
   12.0992   -0.3430   23.9038 H   0  0  0  0  0  0  0  0  0  0  0  0
   13.9059    3.6305   22.5016 H   0  0  0  0  0  0  0  0  0  0  0  0
   11.3345    3.7407   22.7620 H   0  0  0  0  0  0  0  0  0  0  0  0
    7.5752   -1.2072   21.6407 H   0  0  0  0  0  0  0  0  0  0  0  0
    8.8529   -1.4609   20.4038 H   0  0  0  0  0  0  0  0  0  0  0  0
    5.7111    0.6919   22.0982 H   0  0  0  0  0  0  0  0  0  0  0  0
    3.6530    2.0113   21.6771 H   0  0  0  0  0  0  0  0  0  0  0  0
    3.0221    2.6470   19.3900 H   0  0  0  0  0  0  0  0  0  0  0  0
    4.4115    1.9683   17.4606 H   0  0  0  0  0  0  0  0  0  0  0  0
  1  2  1  0  0  0  0
  1  4  1  0  0  0  0
  1  6  1  0  0  0  0
  3 20  2  0  0  0  0
  5 12  1  0  0  0  0
  5 15  1  0  0  0  0
  5 20  1  0  0  0  0
  6  8  2  0  0  0  0
  6 14  1  0  0  0  0
  7  9  1  0  0  0  0
  7 21  1  0  0  0  0
  7 23  1  0  0  0  0
  8 10  1  0  0  0  0
  9 11  2  0  0  0  0
 10 12  2  0  0  0  0
 11 22  1  0  0  0  0
 12 13  1  0  0  0  0
 13 14  2  0  0  0  0
 15 16  1  0  0  0  0
 16 17  2  0  0  0  0
 16 19  1  0  0  0  0
 17 28  1  0  0  0  0
 18 19  2  0  0  0  0
 18 28  1  0  0  0  0
 20 21  1  0  0  0  0
 22 23  2  0  0  0  0
 22 27  1  0  0  0  0
 23 24  1  0  0  0  0
 24 25  2  0  0  0  0
 25 26  1  0  0  0  0
 26 27  2  0  0  0  0
  2 29  1  0  0  0  0
  2 30  1  0  0  0  0
  2 31  1  0  0  0  0
  4 32  1  0  0  0  0
  4 33  1  0  0  0  0
  4 34  1  0  0  0  0
  8 35  1  0  0  0  0
 10 36  1  0  0  0  0
 13 37  1  0  0  0  0
 14 38  1  0  0  0  0
 15 39  1  0  0  0  0
 15 40  1  0  0  0  0
 17 41  1  0  0  0  0
 18 42  1  0  0  0  0
 19 43  1  0  0  0  0
 21 44  1  0  0  0  0
 21 45  1  0  0  0  0
 24 46  1  0  0  0  0
 25 47  1  0  0  0  0
 26 48  1  0  0  0  0
 27 49  1  0  0  0  0
M  END
> <canonical_CID>
ALP-POS-d2866bdf-1

> <r_inhibition_at_20_uM>

> <r_inhibition_at_50_uM>
90.2864920436047

> <r_avg_IC50>
5.36883150229248

> <f_inhibition_at_20_uM>
84.433275

> <f_inhibition_at_50_uM>
90.45516

> <f_avg_IC50>
1.79372477414291

> <f_avg_pIC50>
5.74624419353312

> <relative_solubility_at_20_uM>
0.92

> <relative_solubility_at_100_uM>
0.48

> <trypsin_IC50>
99.0

> <NMR_std_ratio>

> <acrylamide>
False

> <chloroacetamide>
False

> <series>
3-aminopyridine-like

> <clash_score>
0.0

$$$$
BENZO_1_1
  -OEChem-08222022163D

 51 54  0     0  0  0  0  0  0999 V2000
   14.1526    1.4694   24.0176 C   0  0  0  0  0  0  0  0  0  0  0  0
   13.3741    0.8121   24.9701 C   0  0  0  0  0  0  0  0  0  0  0  0
   13.5446    2.0802   22.9208 C   0  0  0  0  0  0  0  0  0  0  0  0
    3.9160    2.0630   19.5520 C   0  0  0  0  0  0  0  0  0  0  0  0
    4.2750    1.7050   20.8490 C   0  0  0  0  0  0  0  0  0  0  0  0
   11.9875    0.7654   24.8258 C   0  0  0  0  0  0  0  0  0  0  0  0
   12.1580    2.0335   22.7765 C   0  0  0  0  0  0  0  0  0  0  0  0
    4.6890    1.6810   18.4640 C   0  0  0  0  0  0  0  0  0  0  0  0
    5.4210    0.9600   21.0930 C   0  0  0  0  0  0  0  0  0  0  0  0
    9.0720   -1.1280   24.8640 C   0  0  0  0  0  0  0  0  0  0  0  0
    9.7200   -2.2600   22.8630 C   0  0  0  0  0  0  0  0  0  0  0  0
    8.9960   -2.3380   25.5320 C   0  0  0  0  0  0  0  0  0  0  0  0
    9.6730   -3.4710   23.5300 C   0  0  0  0  0  0  0  0  0  0  0  0
   11.3794    1.3761   23.7290 C   0  0  0  0  0  0  0  0  0  0  0  0
    5.8300    0.9190   18.6970 C   0  0  0  0  0  0  0  0  0  0  0  0
    6.1790    0.5730   19.9990 C   0  0  0  0  0  0  0  0  0  0  0  0
    9.3350   -1.0880   23.5010 C   0  0  0  0  0  0  0  0  0  0  0  0
    9.3070   -3.5340   24.8780 C   0  0  0  0  0  0  0  0  0  0  0  0
    9.0420    0.3700   21.5280 C   0  0  0  0  0  0  0  0  0  0  0  0
    8.0128   -5.2151   26.1416 C   0  0  0  0  0  0  0  0  0  0  0  0
   10.4372   -5.5860   25.6589 C   0  0  0  0  0  0  0  0  0  0  0  0
    9.8870    1.3260   23.5730 C   0  0  0  0  0  0  0  0  0  0  0  0
    6.7580    0.3810   17.8350 N   0  0  0  0  0  0  0  0  0  0  0  0
    7.6390   -0.2680   18.5410 N   0  0  0  0  0  0  0  0  0  0  0  0
    7.3170   -0.1610   19.8550 N   0  0  0  0  0  0  0  0  0  0  0  0
    8.1890   -0.7180   20.8700 N   0  0  0  0  0  0  0  0  0  0  0  0
    9.4560    0.1560   22.8130 N   0  0  0  0  0  0  0  0  0  0  0  0
    9.2543   -4.7552   25.5519 N   0  0  0  0  0  0  0  0  0  0  0  0
    9.2690    1.4140   20.9380 O   0  0  0  0  0  0  0  0  0  0  0  0
   15.2322    1.5068   24.1308 H   0  0  0  0  0  0  0  0  0  0  0  0
   13.8473    0.3374   25.8248 H   0  0  0  0  0  0  0  0  0  0  0  0
   14.1503    2.5930   22.1795 H   0  0  0  0  0  0  0  0  0  0  0  0
    3.0136    2.6526   19.3908 H   0  0  0  0  0  0  0  0  0  0  0  0
    3.6480    2.0140   21.6821 H   0  0  0  0  0  0  0  0  0  0  0  0
   11.3889    0.2508   25.5729 H   0  0  0  0  0  0  0  0  0  0  0  0
   11.6930    2.5120   21.9187 H   0  0  0  0  0  0  0  0  0  0  0  0
    4.4042    1.9741   17.4524 H   0  0  0  0  0  0  0  0  0  0  0  0
    5.7089    0.6919   22.1150 H   0  0  0  0  0  0  0  0  0  0  0  0
    8.9217   -0.1995   25.4232 H   0  0  0  0  0  0  0  0  0  0  0  0
   10.0643   -2.2341   21.8254 H   0  0  0  0  0  0  0  0  0  0  0  0
    8.6893   -2.3540   26.5808 H   0  0  0  0  0  0  0  0  0  0  0  0
    9.9257   -4.3898   22.9921 H   0  0  0  0  0  0  0  0  0  0  0  0
    8.1744   -6.1904   26.6238 H   0  0  0  0  0  0  0  0  0  0  0  0
    7.6718   -4.4870   26.8924 H   0  0  0  0  0  0  0  0  0  0  0  0
    7.2494   -5.3166   25.3561 H   0  0  0  0  0  0  0  0  0  0  0  0
   10.1947   -6.4995   26.2216 H   0  0  0  0  0  0  0  0  0  0  0  0
   10.7865   -5.8577   24.6518 H   0  0  0  0  0  0  0  0  0  0  0  0
   11.2285   -5.0312   26.1842 H   0  0  0  0  0  0  0  0  0  0  0  0
    9.3974    1.2912   24.5523 H   0  0  0  0  0  0  0  0  0  0  0  0
    9.5159    2.2168   23.0553 H   0  0  0  0  0  0  0  0  0  0  0  0
    8.2278   -1.5705   21.0849 H   0  0  0  0  0  0  0  0  0  0  0  0
  1  2  1  0  0  0  0
  1  3  2  0  0  0  0
  2  6  2  0  0  0  0
  3  7  1  0  0  0  0
  4  5  1  0  0  0  0
  4  8  2  0  0  0  0
  5  9  2  0  0  0  0
  6 14  1  0  0  0  0
  7 14  2  0  0  0  0
  8 15  1  0  0  0  0
  9 16  1  0  0  0  0
 10 12  2  0  0  0  0
 10 17  1  0  0  0  0
 11 13  1  0  0  0  0
 11 17  2  0  0  0  0
 12 18  1  0  0  0  0
 13 18  2  0  0  0  0
 14 22  1  0  0  0  0
 15 16  2  0  0  0  0
 15 23  1  0  0  0  0
 16 25  1  0  0  0  0
 17 27  1  0  0  0  0
 18 28  1  0  0  0  0
 19 26  1  0  0  0  0
 19 27  1  0  0  0  0
 19 29  2  0  0  0  0
 20 28  1  0  0  0  0
 21 28  1  0  0  0  0
 22 27  1  0  0  0  0
 23 24  2  0  0  0  0
 24 25  1  0  0  0  0
 25 26  1  0  0  0  0
  1 30  1  0  0  0  0
  2 31  1  0  0  0  0
  3 32  1  0  0  0  0
  4 33  1  0  0  0  0
  5 34  1  0  0  0  0
  6 35  1  0  0  0  0
  7 36  1  0  0  0  0
  8 37  1  0  0  0  0
  9 38  1  0  0  0  0
 10 39  1  0  0  0  0
 11 40  1  0  0  0  0
 12 41  1  0  0  0  0
 13 42  1  0  0  0  0
 20 43  1  0  0  0  0
 20 44  1  0  0  0  0
 20 45  1  0  0  0  0
 21 46  1  0  0  0  0
 21 47  1  0  0  0  0
 21 48  1  0  0  0  0
 22 49  1  0  0  0  0
 22 50  1  0  0  0  0
 26 51  1  0  0  0  0
M  END
> <clash_score>
0

> <docking_score>
-9.183611869812012

> <overlap_score>
0.9780115485191345

$$$$
BENZO_3_1
  -OEChem-08222022163D

 51 54  0     0  0  0  0  0  0999 V2000
    3.9160    2.0630   19.5520 C   0  0  0  0  0  0  0  0  0  0  0  0
    4.2750    1.7050   20.8490 C   0  0  0  0  0  0  0  0  0  0  0  0
    4.6890    1.6810   18.4640 C   0  0  0  0  0  0  0  0  0  0  0  0
    5.4210    0.9600   21.0930 C   0  0  0  0  0  0  0  0  0  0  0  0
    9.0720   -1.1280   24.8640 C   0  0  0  0  0  0  0  0  0  0  0  0
    9.7200   -2.2600   22.8630 C   0  0  0  0  0  0  0  0  0  0  0  0
    8.9960   -2.3380   25.5320 C   0  0  0  0  0  0  0  0  0  0  0  0
    9.6730   -3.4710   23.5300 C   0  0  0  0  0  0  0  0  0  0  0  0
   12.2914    2.2071   23.0512 C   0  0  0  0  0  0  0  0  0  0  0  0
   12.1614    0.6214   24.5689 C   0  0  0  0  0  0  0  0  0  0  0  0
   11.3794    1.3761   23.7290 C   0  0  0  0  0  0  0  0  0  0  0  0
    5.8300    0.9190   18.6970 C   0  0  0  0  0  0  0  0  0  0  0  0
    6.1790    0.5730   19.9990 C   0  0  0  0  0  0  0  0  0  0  0  0
    9.3350   -1.0880   23.5010 C   0  0  0  0  0  0  0  0  0  0  0  0
    9.3070   -3.5340   24.8780 C   0  0  0  0  0  0  0  0  0  0  0  0
    9.0420    0.3700   21.5280 C   0  0  0  0  0  0  0  0  0  0  0  0
   14.6267    0.5248   25.0067 C   0  0  0  0  0  0  0  0  0  0  0  0
    8.0128   -5.2151   26.1416 C   0  0  0  0  0  0  0  0  0  0  0  0
   10.4372   -5.5860   25.6589 C   0  0  0  0  0  0  0  0  0  0  0  0
    9.8870    1.3260   23.5730 C   0  0  0  0  0  0  0  0  0  0  0  0
   13.5560    2.0002   23.4280 N   0  0  0  0  0  0  0  0  0  0  0  0
    6.7580    0.3810   17.8350 N   0  0  0  0  0  0  0  0  0  0  0  0
    7.6390   -0.2680   18.5410 N   0  0  0  0  0  0  0  0  0  0  0  0
   13.4442    1.0306   24.3518 N   0  0  0  0  0  0  0  0  0  0  0  0
    7.3170   -0.1610   19.8550 N   0  0  0  0  0  0  0  0  0  0  0  0
    8.1890   -0.7180   20.8700 N   0  0  0  0  0  0  0  0  0  0  0  0
    9.4560    0.1560   22.8130 N   0  0  0  0  0  0  0  0  0  0  0  0
    9.2543   -4.7552   25.5519 N   0  0  0  0  0  0  0  0  0  0  0  0
    9.2690    1.4140   20.9380 O   0  0  0  0  0  0  0  0  0  0  0  0
    3.0136    2.6526   19.3908 H   0  0  0  0  0  0  0  0  0  0  0  0
    3.6480    2.0140   21.6821 H   0  0  0  0  0  0  0  0  0  0  0  0
    4.4042    1.9741   17.4524 H   0  0  0  0  0  0  0  0  0  0  0  0
    5.7089    0.6919   22.1150 H   0  0  0  0  0  0  0  0  0  0  0  0
    8.9217   -0.1995   25.4232 H   0  0  0  0  0  0  0  0  0  0  0  0
   10.0643   -2.2341   21.8254 H   0  0  0  0  0  0  0  0  0  0  0  0
    8.6893   -2.3540   26.5808 H   0  0  0  0  0  0  0  0  0  0  0  0
    9.9257   -4.3898   22.9921 H   0  0  0  0  0  0  0  0  0  0  0  0
   12.0895    2.9562   22.2987 H   0  0  0  0  0  0  0  0  0  0  0  0
   11.9202   -0.1518   25.2857 H   0  0  0  0  0  0  0  0  0  0  0  0
   15.0068   -0.3132   24.4165 H   0  0  0  0  0  0  0  0  0  0  0  0
   15.3758    1.3189   25.0698 H   0  0  0  0  0  0  0  0  0  0  0  0
   14.3676    0.1958   26.0170 H   0  0  0  0  0  0  0  0  0  0  0  0
    8.1744   -6.1904   26.6238 H   0  0  0  0  0  0  0  0  0  0  0  0
    7.6718   -4.4870   26.8924 H   0  0  0  0  0  0  0  0  0  0  0  0
    7.2494   -5.3166   25.3561 H   0  0  0  0  0  0  0  0  0  0  0  0
   10.1947   -6.4995   26.2216 H   0  0  0  0  0  0  0  0  0  0  0  0
   10.7865   -5.8577   24.6518 H   0  0  0  0  0  0  0  0  0  0  0  0
   11.2285   -5.0312   26.1842 H   0  0  0  0  0  0  0  0  0  0  0  0
    9.3974    1.2912   24.5523 H   0  0  0  0  0  0  0  0  0  0  0  0
    9.5159    2.2168   23.0553 H   0  0  0  0  0  0  0  0  0  0  0  0
    8.2278   -1.5705   21.0849 H   0  0  0  0  0  0  0  0  0  0  0  0
  1  2  1  0  0  0  0
  1  3  2  0  0  0  0
  2  4  2  0  0  0  0
  3 12  1  0  0  0  0
  4 13  1  0  0  0  0
  5  7  2  0  0  0  0
  5 14  1  0  0  0  0
  6  8  1  0  0  0  0
  6 14  2  0  0  0  0
  7 15  1  0  0  0  0
  8 15  2  0  0  0  0
  9 11  1  0  0  0  0
  9 21  2  0  0  0  0
 10 11  2  0  0  0  0
 10 24  1  0  0  0  0
 11 20  1  0  0  0  0
 12 13  2  0  0  0  0
 12 22  1  0  0  0  0
 13 25  1  0  0  0  0
 14 27  1  0  0  0  0
 15 28  1  0  0  0  0
 16 26  1  0  0  0  0
 16 27  1  0  0  0  0
 16 29  2  0  0  0  0
 17 24  1  0  0  0  0
 18 28  1  0  0  0  0
 19 28  1  0  0  0  0
 20 27  1  0  0  0  0
 21 24  1  0  0  0  0
 22 23  2  0  0  0  0
 23 25  1  0  0  0  0
 25 26  1  0  0  0  0
  1 30  1  0  0  0  0
  2 31  1  0  0  0  0
  3 32  1  0  0  0  0
  4 33  1  0  0  0  0
  5 34  1  0  0  0  0
  6 35  1  0  0  0  0
  7 36  1  0  0  0  0
  8 37  1  0  0  0  0
  9 38  1  0  0  0  0
 10 39  1  0  0  0  0
 17 40  1  0  0  0  0
 17 41  1  0  0  0  0
 17 42  1  0  0  0  0
 18 43  1  0  0  0  0
 18 44  1  0  0  0  0
 18 45  1  0  0  0  0
 19 46  1  0  0  0  0
 19 47  1  0  0  0  0
 19 48  1  0  0  0  0
 20 49  1  0  0  0  0
 20 50  1  0  0  0  0
 26 51  1  0  0  0  0
M  END
> <clash_score>
0.619943645606779

> <docking_score>
-8.891620635986328

> <overlap_score>
0.9767897725105286

$$$$
BENZO_0_1
  -OEChem-08222022163D

 48 51  0     0  0  0  0  0  0999 V2000
    3.9160    2.0630   19.5520 C   0  0  0  0  0  0  0  0  0  0  0  0
    4.2750    1.7050   20.8490 C   0  0  0  0  0  0  0  0  0  0  0  0
    4.6890    1.6810   18.4640 C   0  0  0  0  0  0  0  0  0  0  0  0
    5.4210    0.9600   21.0930 C   0  0  0  0  0  0  0  0  0  0  0  0
    9.0720   -1.1280   24.8640 C   0  0  0  0  0  0  0  0  0  0  0  0
    9.7200   -2.2600   22.8630 C   0  0  0  0  0  0  0  0  0  0  0  0
    8.9960   -2.3380   25.5320 C   0  0  0  0  0  0  0  0  0  0  0  0
    9.6730   -3.4710   23.5300 C   0  0  0  0  0  0  0  0  0  0  0  0
   12.2913    1.4279   22.6355 C   0  0  0  0  0  0  0  0  0  0  0  0
   13.6024    1.4661   23.0564 C   0  0  0  0  0  0  0  0  0  0  0  0
   12.0284    1.3764   24.9443 C   0  0  0  0  0  0  0  0  0  0  0  0
   11.3794    1.3761   23.7290 C   0  0  0  0  0  0  0  0  0  0  0  0
    5.8300    0.9190   18.6970 C   0  0  0  0  0  0  0  0  0  0  0  0
    6.1790    0.5730   19.9990 C   0  0  0  0  0  0  0  0  0  0  0  0
    9.3350   -1.0880   23.5010 C   0  0  0  0  0  0  0  0  0  0  0  0
    9.3070   -3.5340   24.8780 C   0  0  0  0  0  0  0  0  0  0  0  0
    9.0420    0.3700   21.5280 C   0  0  0  0  0  0  0  0  0  0  0  0
    8.8742   -4.8064   26.9496 C   0  0  0  0  0  0  0  0  0  0  0  0
    9.5655   -5.9897   24.8591 C   0  0  0  0  0  0  0  0  0  0  0  0
    9.8870    1.3260   23.5730 C   0  0  0  0  0  0  0  0  0  0  0  0
    6.7580    0.3810   17.8350 N   0  0  0  0  0  0  0  0  0  0  0  0
    7.6390   -0.2680   18.5410 N   0  0  0  0  0  0  0  0  0  0  0  0
    7.3170   -0.1610   19.8550 N   0  0  0  0  0  0  0  0  0  0  0  0
    8.1890   -0.7180   20.8700 N   0  0  0  0  0  0  0  0  0  0  0  0
    9.4560    0.1560   22.8130 N   0  0  0  0  0  0  0  0  0  0  0  0
    9.2543   -4.7552   25.5519 N   0  0  0  0  0  0  0  0  0  0  0  0
    9.2690    1.4140   20.9380 O   0  0  0  0  0  0  0  0  0  0  0  0
   13.7301    1.4394   24.7638 S   0  0  0  0  0  0  0  0  0  0  0  0
    3.0136    2.6526   19.3908 H   0  0  0  0  0  0  0  0  0  0  0  0
    3.6480    2.0140   21.6821 H   0  0  0  0  0  0  0  0  0  0  0  0
    4.4042    1.9741   17.4524 H   0  0  0  0  0  0  0  0  0  0  0  0
    5.7089    0.6919   22.1150 H   0  0  0  0  0  0  0  0  0  0  0  0
    8.9217   -0.1995   25.4232 H   0  0  0  0  0  0  0  0  0  0  0  0
   10.0643   -2.2341   21.8254 H   0  0  0  0  0  0  0  0  0  0  0  0
    8.6893   -2.3540   26.5808 H   0  0  0  0  0  0  0  0  0  0  0  0
    9.9257   -4.3898   22.9921 H   0  0  0  0  0  0  0  0  0  0  0  0
   12.0045    1.4365   21.5915 H   0  0  0  0  0  0  0  0  0  0  0  0
   14.4914    1.5078   22.4431 H   0  0  0  0  0  0  0  0  0  0  0  0
   11.5886    1.3416   25.9314 H   0  0  0  0  0  0  0  0  0  0  0  0
    8.8922   -5.8499   27.2971 H   0  0  0  0  0  0  0  0  0  0  0  0
    9.5819   -4.2099   27.5440 H   0  0  0  0  0  0  0  0  0  0  0  0
    7.8599   -4.3978   27.0688 H   0  0  0  0  0  0  0  0  0  0  0  0
    9.4683   -6.8360   25.5551 H   0  0  0  0  0  0  0  0  0  0  0  0
    8.8685   -6.1243   24.0189 H   0  0  0  0  0  0  0  0  0  0  0  0
   10.5962   -5.9459   24.4771 H   0  0  0  0  0  0  0  0  0  0  0  0
    9.3974    1.2912   24.5523 H   0  0  0  0  0  0  0  0  0  0  0  0
    9.5159    2.2168   23.0553 H   0  0  0  0  0  0  0  0  0  0  0  0
    8.2278   -1.5705   21.0849 H   0  0  0  0  0  0  0  0  0  0  0  0
  1  2  1  0  0  0  0
  1  3  2  0  0  0  0
  2  4  2  0  0  0  0
  3 13  1  0  0  0  0
  4 14  1  0  0  0  0
  5  7  2  0  0  0  0
  5 15  1  0  0  0  0
  6  8  1  0  0  0  0
  6 15  2  0  0  0  0
  7 16  1  0  0  0  0
  8 16  2  0  0  0  0
  9 10  2  0  0  0  0
  9 12  1  0  0  0  0
 10 28  1  0  0  0  0
 11 12  2  0  0  0  0
 11 28  1  0  0  0  0
 12 20  1  0  0  0  0
 13 14  2  0  0  0  0
 13 21  1  0  0  0  0
 14 23  1  0  0  0  0
 15 25  1  0  0  0  0
 16 26  1  0  0  0  0
 17 24  1  0  0  0  0
 17 25  1  0  0  0  0
 17 27  2  0  0  0  0
 18 26  1  0  0  0  0
 19 26  1  0  0  0  0
 20 25  1  0  0  0  0
 21 22  2  0  0  0  0
 22 23  1  0  0  0  0
 23 24  1  0  0  0  0
  1 29  1  0  0  0  0
  2 30  1  0  0  0  0
  3 31  1  0  0  0  0
  4 32  1  0  0  0  0
  5 33  1  0  0  0  0
  6 34  1  0  0  0  0
  7 35  1  0  0  0  0
  8 36  1  0  0  0  0
  9 37  1  0  0  0  0
 10 38  1  0  0  0  0
 11 39  1  0  0  0  0
 18 40  1  0  0  0  0
 18 41  1  0  0  0  0
 18 42  1  0  0  0  0
 19 43  1  0  0  0  0
 19 44  1  0  0  0  0
 19 45  1  0  0  0  0
 20 46  1  0  0  0  0
 20 47  1  0  0  0  0
 24 48  1  0  0  0  0
M  END
> <clash_score>
0

> <docking_score>
-8.940596580505371

> <overlap_score>
0.9639393091201782

$$$$
BENZO_4_1
  -OEChem-08222022163D

 50 53  0     0  0  0  0  0  0999 V2000
    3.9160    2.0630   19.5520 C   0  0  0  0  0  0  0  0  0  0  0  0
    4.2750    1.7050   20.8490 C   0  0  0  0  0  0  0  0  0  0  0  0
    4.6890    1.6810   18.4640 C   0  0  0  0  0  0  0  0  0  0  0  0
    5.4210    0.9600   21.0930 C   0  0  0  0  0  0  0  0  0  0  0  0
    8.9960   -2.3380   25.5320 C   0  0  0  0  0  0  0  0  0  0  0  0
    9.6730   -3.4710   23.5300 C   0  0  0  0  0  0  0  0  0  0  0  0
    9.0720   -1.1280   24.8640 C   0  0  0  0  0  0  0  0  0  0  0  0
    9.7200   -2.2600   22.8630 C   0  0  0  0  0  0  0  0  0  0  0  0
   12.2111    0.2208   23.7905 C   0  0  0  0  0  0  0  0  0  0  0  0
   13.5412    0.5479   23.9363 C   0  0  0  0  0  0  0  0  0  0  0  0
   12.1057    2.5424   23.8305 C   0  0  0  0  0  0  0  0  0  0  0  0
   11.3794    1.3761   23.7290 C   0  0  0  0  0  0  0  0  0  0  0  0
    5.8300    0.9190   18.6970 C   0  0  0  0  0  0  0  0  0  0  0  0
    6.1790    0.5730   19.9990 C   0  0  0  0  0  0  0  0  0  0  0  0
    9.3070   -3.5340   24.8780 C   0  0  0  0  0  0  0  0  0  0  0  0
    9.3350   -1.0880   23.5010 C   0  0  0  0  0  0  0  0  0  0  0  0
    9.5333   -6.0236   25.0414 C   0  0  0  0  0  0  0  0  0  0  0  0
    9.0420    0.3700   21.5280 C   0  0  0  0  0  0  0  0  0  0  0  0
   10.6330   -7.3746   26.8775 C   0  0  0  0  0  0  0  0  0  0  0  0
    9.8870    1.3260   23.5730 C   0  0  0  0  0  0  0  0  0  0  0  0
    9.3522   -7.0865   26.1149 C   0  0  0  0  0  0  0  0  0  0  0  0
    6.7580    0.3810   17.8350 N   0  0  0  0  0  0  0  0  0  0  0  0
    7.6390   -0.2680   18.5410 N   0  0  0  0  0  0  0  0  0  0  0  0
    7.3170   -0.1610   19.8550 N   0  0  0  0  0  0  0  0  0  0  0  0
    9.2546   -4.7422   25.5438 N   0  0  0  0  0  0  0  0  0  0  0  0
    8.1890   -0.7180   20.8700 N   0  0  0  0  0  0  0  0  0  0  0  0
    9.4560    0.1560   22.8130 N   0  0  0  0  0  0  0  0  0  0  0  0
    9.8805   -6.3053   23.8992 O   0  0  0  0  0  0  0  0  0  0  0  0
    9.2690    1.4140   20.9380 O   0  0  0  0  0  0  0  0  0  0  0  0
   13.7831    2.2420   23.9988 S   0  0  0  0  0  0  0  0  0  0  0  0
    3.0136    2.6526   19.3908 H   0  0  0  0  0  0  0  0  0  0  0  0
    3.6480    2.0140   21.6821 H   0  0  0  0  0  0  0  0  0  0  0  0
    4.4042    1.9741   17.4524 H   0  0  0  0  0  0  0  0  0  0  0  0
    5.7089    0.6919   22.1150 H   0  0  0  0  0  0  0  0  0  0  0  0
    8.6895   -2.3529   26.5807 H   0  0  0  0  0  0  0  0  0  0  0  0
    9.9262   -4.3897   22.9916 H   0  0  0  0  0  0  0  0  0  0  0  0
    8.9224   -0.1998   25.4238 H   0  0  0  0  0  0  0  0  0  0  0  0
   10.0649   -2.2343   21.8258 H   0  0  0  0  0  0  0  0  0  0  0  0
   11.8558   -0.8003   23.7315 H   0  0  0  0  0  0  0  0  0  0  0  0
   14.3824   -0.1267   24.0100 H   0  0  0  0  0  0  0  0  0  0  0  0
   11.7354    3.5581   23.8155 H   0  0  0  0  0  0  0  0  0  0  0  0
   11.4241   -7.7171   26.2024 H   0  0  0  0  0  0  0  0  0  0  0  0
   10.4628   -8.1530   27.6277 H   0  0  0  0  0  0  0  0  0  0  0  0
   10.9949   -6.4779   27.3911 H   0  0  0  0  0  0  0  0  0  0  0  0
    9.3974    1.2912   24.5523 H   0  0  0  0  0  0  0  0  0  0  0  0
    9.5159    2.2168   23.0553 H   0  0  0  0  0  0  0  0  0  0  0  0
    8.5795   -6.7463   26.8138 H   0  0  0  0  0  0  0  0  0  0  0  0
    8.9965   -8.0064   25.6368 H   0  0  0  0  0  0  0  0  0  0  0  0
    8.9776   -4.7057   26.5317 H   0  0  0  0  0  0  0  0  0  0  0  0
    8.2278   -1.5705   21.0849 H   0  0  0  0  0  0  0  0  0  0  0  0
  1  2  1  0  0  0  0
  1  3  2  0  0  0  0
  2  4  2  0  0  0  0
  3 13  1  0  0  0  0
  4 14  1  0  0  0  0
  5  7  2  0  0  0  0
  5 15  1  0  0  0  0
  6  8  1  0  0  0  0
  6 15  2  0  0  0  0
  7 16  1  0  0  0  0
  8 16  2  0  0  0  0
  9 10  2  0  0  0  0
  9 12  1  0  0  0  0
 10 30  1  0  0  0  0
 11 12  2  0  0  0  0
 11 30  1  0  0  0  0
 12 20  1  0  0  0  0
 13 14  2  0  0  0  0
 13 22  1  0  0  0  0
 14 24  1  0  0  0  0
 15 25  1  0  0  0  0
 16 27  1  0  0  0  0
 17 21  1  0  0  0  0
 17 25  1  0  0  0  0
 17 28  2  0  0  0  0
 18 26  1  0  0  0  0
 18 27  1  0  0  0  0
 18 29  2  0  0  0  0
 19 21  1  0  0  0  0
 20 27  1  0  0  0  0
 22 23  2  0  0  0  0
 23 24  1  0  0  0  0
 24 26  1  0  0  0  0
  1 31  1  0  0  0  0
  2 32  1  0  0  0  0
  3 33  1  0  0  0  0
  4 34  1  0  0  0  0
  5 35  1  0  0  0  0
  6 36  1  0  0  0  0
  7 37  1  0  0  0  0
  8 38  1  0  0  0  0
  9 39  1  0  0  0  0
 10 40  1  0  0  0  0
 11 41  1  0  0  0  0
 19 42  1  0  0  0  0
 19 43  1  0  0  0  0
 19 44  1  0  0  0  0
 20 45  1  0  0  0  0
 20 46  1  0  0  0  0
 21 47  1  0  0  0  0
 21 48  1  0  0  0  0
 25 49  1  0  0  0  0
 26 50  1  0  0  0  0
M  END
> <clash_score>
1.498663752905594

> <docking_score>
-5.262504577636719

> <overlap_score>
0.9652433395385742

$$$$
BENZO_5_1
  -OEChem-08222022163D

 53 56  0     0  0  0  0  0  0999 V2000
   14.1526    1.4694   24.0176 C   0  0  0  0  0  0  0  0  0  0  0  0
   13.3741    0.8121   24.9701 C   0  0  0  0  0  0  0  0  0  0  0  0
   13.5446    2.0802   22.9208 C   0  0  0  0  0  0  0  0  0  0  0  0
    3.9160    2.0630   19.5520 C   0  0  0  0  0  0  0  0  0  0  0  0
    4.2750    1.7050   20.8490 C   0  0  0  0  0  0  0  0  0  0  0  0
   11.9875    0.7654   24.8258 C   0  0  0  0  0  0  0  0  0  0  0  0
   12.1580    2.0335   22.7765 C   0  0  0  0  0  0  0  0  0  0  0  0
    4.6890    1.6810   18.4640 C   0  0  0  0  0  0  0  0  0  0  0  0
    5.4210    0.9600   21.0930 C   0  0  0  0  0  0  0  0  0  0  0  0
    8.9960   -2.3380   25.5320 C   0  0  0  0  0  0  0  0  0  0  0  0
    9.6730   -3.4710   23.5300 C   0  0  0  0  0  0  0  0  0  0  0  0
    9.0720   -1.1280   24.8640 C   0  0  0  0  0  0  0  0  0  0  0  0
    9.7200   -2.2600   22.8630 C   0  0  0  0  0  0  0  0  0  0  0  0
   11.3794    1.3761   23.7290 C   0  0  0  0  0  0  0  0  0  0  0  0
    5.8300    0.9190   18.6970 C   0  0  0  0  0  0  0  0  0  0  0  0
    6.1790    0.5730   19.9990 C   0  0  0  0  0  0  0  0  0  0  0  0
    9.3070   -3.5340   24.8780 C   0  0  0  0  0  0  0  0  0  0  0  0
    9.3350   -1.0880   23.5010 C   0  0  0  0  0  0  0  0  0  0  0  0
    9.5333   -6.0236   25.0414 C   0  0  0  0  0  0  0  0  0  0  0  0
    9.0420    0.3700   21.5280 C   0  0  0  0  0  0  0  0  0  0  0  0
   10.6330   -7.3746   26.8775 C   0  0  0  0  0  0  0  0  0  0  0  0
    9.8870    1.3260   23.5730 C   0  0  0  0  0  0  0  0  0  0  0  0
    9.3522   -7.0865   26.1149 C   0  0  0  0  0  0  0  0  0  0  0  0
    6.7580    0.3810   17.8350 N   0  0  0  0  0  0  0  0  0  0  0  0
    7.6390   -0.2680   18.5410 N   0  0  0  0  0  0  0  0  0  0  0  0
    7.3170   -0.1610   19.8550 N   0  0  0  0  0  0  0  0  0  0  0  0
    9.2546   -4.7422   25.5438 N   0  0  0  0  0  0  0  0  0  0  0  0
    8.1890   -0.7180   20.8700 N   0  0  0  0  0  0  0  0  0  0  0  0
    9.4560    0.1560   22.8130 N   0  0  0  0  0  0  0  0  0  0  0  0
    9.8805   -6.3053   23.8992 O   0  0  0  0  0  0  0  0  0  0  0  0
    9.2690    1.4140   20.9380 O   0  0  0  0  0  0  0  0  0  0  0  0
   15.2322    1.5068   24.1308 H   0  0  0  0  0  0  0  0  0  0  0  0
   13.8473    0.3374   25.8248 H   0  0  0  0  0  0  0  0  0  0  0  0
   14.1503    2.5930   22.1795 H   0  0  0  0  0  0  0  0  0  0  0  0
    3.0136    2.6526   19.3908 H   0  0  0  0  0  0  0  0  0  0  0  0
    3.6480    2.0140   21.6821 H   0  0  0  0  0  0  0  0  0  0  0  0
   11.3889    0.2508   25.5729 H   0  0  0  0  0  0  0  0  0  0  0  0
   11.6930    2.5120   21.9187 H   0  0  0  0  0  0  0  0  0  0  0  0
    4.4042    1.9741   17.4524 H   0  0  0  0  0  0  0  0  0  0  0  0
    5.7089    0.6919   22.1150 H   0  0  0  0  0  0  0  0  0  0  0  0
    8.6895   -2.3529   26.5807 H   0  0  0  0  0  0  0  0  0  0  0  0
    9.9262   -4.3897   22.9916 H   0  0  0  0  0  0  0  0  0  0  0  0
    8.9224   -0.1998   25.4238 H   0  0  0  0  0  0  0  0  0  0  0  0
   10.0649   -2.2343   21.8258 H   0  0  0  0  0  0  0  0  0  0  0  0
   11.4241   -7.7171   26.2024 H   0  0  0  0  0  0  0  0  0  0  0  0
   10.4628   -8.1530   27.6277 H   0  0  0  0  0  0  0  0  0  0  0  0
   10.9949   -6.4779   27.3911 H   0  0  0  0  0  0  0  0  0  0  0  0
    9.3974    1.2912   24.5523 H   0  0  0  0  0  0  0  0  0  0  0  0
    9.5159    2.2168   23.0553 H   0  0  0  0  0  0  0  0  0  0  0  0
    8.5795   -6.7463   26.8138 H   0  0  0  0  0  0  0  0  0  0  0  0
    8.9965   -8.0064   25.6368 H   0  0  0  0  0  0  0  0  0  0  0  0
    8.9776   -4.7057   26.5317 H   0  0  0  0  0  0  0  0  0  0  0  0
    8.2278   -1.5705   21.0849 H   0  0  0  0  0  0  0  0  0  0  0  0
  1  2  1  0  0  0  0
  1  3  2  0  0  0  0
  2  6  2  0  0  0  0
  3  7  1  0  0  0  0
  4  5  1  0  0  0  0
  4  8  2  0  0  0  0
  5  9  2  0  0  0  0
  6 14  1  0  0  0  0
  7 14  2  0  0  0  0
  8 15  1  0  0  0  0
  9 16  1  0  0  0  0
 10 12  2  0  0  0  0
 10 17  1  0  0  0  0
 11 13  1  0  0  0  0
 11 17  2  0  0  0  0
 12 18  1  0  0  0  0
 13 18  2  0  0  0  0
 14 22  1  0  0  0  0
 15 16  2  0  0  0  0
 15 24  1  0  0  0  0
 16 26  1  0  0  0  0
 17 27  1  0  0  0  0
 18 29  1  0  0  0  0
 19 23  1  0  0  0  0
 19 27  1  0  0  0  0
 19 30  2  0  0  0  0
 20 28  1  0  0  0  0
 20 29  1  0  0  0  0
 20 31  2  0  0  0  0
 21 23  1  0  0  0  0
 22 29  1  0  0  0  0
 24 25  2  0  0  0  0
 25 26  1  0  0  0  0
 26 28  1  0  0  0  0
  1 32  1  0  0  0  0
  2 33  1  0  0  0  0
  3 34  1  0  0  0  0
  4 35  1  0  0  0  0
  5 36  1  0  0  0  0
  6 37  1  0  0  0  0
  7 38  1  0  0  0  0
  8 39  1  0  0  0  0
  9 40  1  0  0  0  0
 10 41  1  0  0  0  0
 11 42  1  0  0  0  0
 12 43  1  0  0  0  0
 13 44  1  0  0  0  0
 21 45  1  0  0  0  0
 21 46  1  0  0  0  0
 21 47  1  0  0  0  0
 22 48  1  0  0  0  0
 22 49  1  0  0  0  0
 23 50  1  0  0  0  0
 23 51  1  0  0  0  0
 27 52  1  0  0  0  0
 28 53  1  0  0  0  0
M  END
> <clash_score>
1.498663752905594

> <docking_score>
-5.989333152770996

> <overlap_score>
0.9802290797233582

$$$$
BENZO_7_1
  -OEChem-08222022163D

 53 56  0     0  0  0  0  0  0999 V2000
    3.9160    2.0630   19.5520 C   0  0  0  0  0  0  0  0  0  0  0  0
    4.2750    1.7050   20.8490 C   0  0  0  0  0  0  0  0  0  0  0  0
    4.6890    1.6810   18.4640 C   0  0  0  0  0  0  0  0  0  0  0  0
    5.4210    0.9600   21.0930 C   0  0  0  0  0  0  0  0  0  0  0  0
    8.9960   -2.3380   25.5320 C   0  0  0  0  0  0  0  0  0  0  0  0
    9.6730   -3.4710   23.5300 C   0  0  0  0  0  0  0  0  0  0  0  0
    9.0720   -1.1280   24.8640 C   0  0  0  0  0  0  0  0  0  0  0  0
    9.7200   -2.2600   22.8630 C   0  0  0  0  0  0  0  0  0  0  0  0
   12.2914    2.2071   23.0512 C   0  0  0  0  0  0  0  0  0  0  0  0
   12.1614    0.6214   24.5689 C   0  0  0  0  0  0  0  0  0  0  0  0
   11.3794    1.3761   23.7290 C   0  0  0  0  0  0  0  0  0  0  0  0
    5.8300    0.9190   18.6970 C   0  0  0  0  0  0  0  0  0  0  0  0
    6.1790    0.5730   19.9990 C   0  0  0  0  0  0  0  0  0  0  0  0
    9.3070   -3.5340   24.8780 C   0  0  0  0  0  0  0  0  0  0  0  0
    9.3350   -1.0880   23.5010 C   0  0  0  0  0  0  0  0  0  0  0  0
    9.5333   -6.0236   25.0414 C   0  0  0  0  0  0  0  0  0  0  0  0
    9.0420    0.3700   21.5280 C   0  0  0  0  0  0  0  0  0  0  0  0
   10.6330   -7.3746   26.8775 C   0  0  0  0  0  0  0  0  0  0  0  0
   14.6267    0.5248   25.0067 C   0  0  0  0  0  0  0  0  0  0  0  0
    9.8870    1.3260   23.5730 C   0  0  0  0  0  0  0  0  0  0  0  0
    9.3522   -7.0865   26.1149 C   0  0  0  0  0  0  0  0  0  0  0  0
   13.5560    2.0002   23.4280 N   0  0  0  0  0  0  0  0  0  0  0  0
    6.7580    0.3810   17.8350 N   0  0  0  0  0  0  0  0  0  0  0  0
    7.6390   -0.2680   18.5410 N   0  0  0  0  0  0  0  0  0  0  0  0
   13.4442    1.0306   24.3518 N   0  0  0  0  0  0  0  0  0  0  0  0
    7.3170   -0.1610   19.8550 N   0  0  0  0  0  0  0  0  0  0  0  0
    9.2546   -4.7422   25.5438 N   0  0  0  0  0  0  0  0  0  0  0  0
    8.1890   -0.7180   20.8700 N   0  0  0  0  0  0  0  0  0  0  0  0
    9.4560    0.1560   22.8130 N   0  0  0  0  0  0  0  0  0  0  0  0
    9.8805   -6.3053   23.8992 O   0  0  0  0  0  0  0  0  0  0  0  0
    9.2690    1.4140   20.9380 O   0  0  0  0  0  0  0  0  0  0  0  0
    3.0136    2.6526   19.3908 H   0  0  0  0  0  0  0  0  0  0  0  0
    3.6480    2.0140   21.6821 H   0  0  0  0  0  0  0  0  0  0  0  0
    4.4042    1.9741   17.4524 H   0  0  0  0  0  0  0  0  0  0  0  0
    5.7089    0.6919   22.1150 H   0  0  0  0  0  0  0  0  0  0  0  0
    8.6895   -2.3529   26.5807 H   0  0  0  0  0  0  0  0  0  0  0  0
    9.9262   -4.3897   22.9916 H   0  0  0  0  0  0  0  0  0  0  0  0
    8.9224   -0.1998   25.4238 H   0  0  0  0  0  0  0  0  0  0  0  0
   10.0649   -2.2343   21.8258 H   0  0  0  0  0  0  0  0  0  0  0  0
   12.0895    2.9562   22.2987 H   0  0  0  0  0  0  0  0  0  0  0  0
   11.9202   -0.1518   25.2857 H   0  0  0  0  0  0  0  0  0  0  0  0
   11.4241   -7.7171   26.2024 H   0  0  0  0  0  0  0  0  0  0  0  0
   10.4628   -8.1530   27.6277 H   0  0  0  0  0  0  0  0  0  0  0  0
   10.9949   -6.4779   27.3911 H   0  0  0  0  0  0  0  0  0  0  0  0
   15.0068   -0.3132   24.4165 H   0  0  0  0  0  0  0  0  0  0  0  0
   15.3758    1.3189   25.0698 H   0  0  0  0  0  0  0  0  0  0  0  0
   14.3676    0.1958   26.0170 H   0  0  0  0  0  0  0  0  0  0  0  0
    9.3974    1.2912   24.5523 H   0  0  0  0  0  0  0  0  0  0  0  0
    9.5159    2.2168   23.0553 H   0  0  0  0  0  0  0  0  0  0  0  0
    8.5795   -6.7463   26.8138 H   0  0  0  0  0  0  0  0  0  0  0  0
    8.9965   -8.0064   25.6368 H   0  0  0  0  0  0  0  0  0  0  0  0
    8.9776   -4.7057   26.5317 H   0  0  0  0  0  0  0  0  0  0  0  0
    8.2278   -1.5705   21.0849 H   0  0  0  0  0  0  0  0  0  0  0  0
  1  2  1  0  0  0  0
  1  3  2  0  0  0  0
  2  4  2  0  0  0  0
  3 12  1  0  0  0  0
  4 13  1  0  0  0  0
  5  7  2  0  0  0  0
  5 14  1  0  0  0  0
  6  8  1  0  0  0  0
  6 14  2  0  0  0  0
  7 15  1  0  0  0  0
  8 15  2  0  0  0  0
  9 11  1  0  0  0  0
  9 22  2  0  0  0  0
 10 11  2  0  0  0  0
 10 25  1  0  0  0  0
 11 20  1  0  0  0  0
 12 13  2  0  0  0  0
 12 23  1  0  0  0  0
 13 26  1  0  0  0  0
 14 27  1  0  0  0  0
 15 29  1  0  0  0  0
 16 21  1  0  0  0  0
 16 27  1  0  0  0  0
 16 30  2  0  0  0  0
 17 28  1  0  0  0  0
 17 29  1  0  0  0  0
 17 31  2  0  0  0  0
 18 21  1  0  0  0  0
 19 25  1  0  0  0  0
 20 29  1  0  0  0  0
 22 25  1  0  0  0  0
 23 24  2  0  0  0  0
 24 26  1  0  0  0  0
 26 28  1  0  0  0  0
  1 32  1  0  0  0  0
  2 33  1  0  0  0  0
  3 34  1  0  0  0  0
  4 35  1  0  0  0  0
  5 36  1  0  0  0  0
  6 37  1  0  0  0  0
  7 38  1  0  0  0  0
  8 39  1  0  0  0  0
  9 40  1  0  0  0  0
 10 41  1  0  0  0  0
 18 42  1  0  0  0  0
 18 43  1  0  0  0  0
 18 44  1  0  0  0  0
 19 45  1  0  0  0  0
 19 46  1  0  0  0  0
 19 47  1  0  0  0  0
 20 48  1  0  0  0  0
 20 49  1  0  0  0  0
 21 50  1  0  0  0  0
 21 51  1  0  0  0  0
 27 52  1  0  0  0  0
 28 53  1  0  0  0  0
M  END
> <clash_score>
2.118607398512373

> <docking_score>
-5.697344779968262

> <overlap_score>
0.9790106415748596

$$$$
BENZO_6_1
  -OEChem-08222022163D

 53 56  0     0  0  0  0  0  0999 V2000
    3.9160    2.0630   19.5520 C   0  0  0  0  0  0  0  0  0  0  0  0
    4.2750    1.7050   20.8490 C   0  0  0  0  0  0  0  0  0  0  0  0
   13.4007    0.5725   24.7805 C   0  0  0  0  0  0  0  0  0  0  0  0
   12.0141    0.5273   24.6359 C   0  0  0  0  0  0  0  0  0  0  0  0
    4.6890    1.6810   18.4640 C   0  0  0  0  0  0  0  0  0  0  0  0
    5.4210    0.9600   21.0930 C   0  0  0  0  0  0  0  0  0  0  0  0
    8.9960   -2.3380   25.5320 C   0  0  0  0  0  0  0  0  0  0  0  0
    9.6730   -3.4710   23.5300 C   0  0  0  0  0  0  0  0  0  0  0  0
    9.0720   -1.1280   24.8640 C   0  0  0  0  0  0  0  0  0  0  0  0
    9.7200   -2.2600   22.8630 C   0  0  0  0  0  0  0  0  0  0  0  0
   14.1526    1.4666   24.0184 C   0  0  0  0  0  0  0  0  0  0  0  0
   12.1314    2.2702   22.9668 C   0  0  0  0  0  0  0  0  0  0  0  0
   11.3794    1.3761   23.7290 C   0  0  0  0  0  0  0  0  0  0  0  0
    5.8300    0.9190   18.6970 C   0  0  0  0  0  0  0  0  0  0  0  0
    6.1790    0.5730   19.9990 C   0  0  0  0  0  0  0  0  0  0  0  0
    9.3070   -3.5340   24.8780 C   0  0  0  0  0  0  0  0  0  0  0  0
    9.3350   -1.0880   23.5010 C   0  0  0  0  0  0  0  0  0  0  0  0
   13.5180    2.3154   23.1115 C   0  0  0  0  0  0  0  0  0  0  0  0
    9.5333   -6.0236   25.0414 C   0  0  0  0  0  0  0  0  0  0  0  0
    9.0420    0.3700   21.5280 C   0  0  0  0  0  0  0  0  0  0  0  0
   10.6330   -7.3746   26.8775 C   0  0  0  0  0  0  0  0  0  0  0  0
    9.8870    1.3260   23.5730 C   0  0  0  0  0  0  0  0  0  0  0  0
    9.3522   -7.0865   26.1149 C   0  0  0  0  0  0  0  0  0  0  0  0
    6.7580    0.3810   17.8350 N   0  0  0  0  0  0  0  0  0  0  0  0
    7.6390   -0.2680   18.5410 N   0  0  0  0  0  0  0  0  0  0  0  0
    7.3170   -0.1610   19.8550 N   0  0  0  0  0  0  0  0  0  0  0  0
    9.2546   -4.7422   25.5438 N   0  0  0  0  0  0  0  0  0  0  0  0
    8.1890   -0.7180   20.8700 N   0  0  0  0  0  0  0  0  0  0  0  0
    9.4560    0.1560   22.8130 N   0  0  0  0  0  0  0  0  0  0  0  0
    9.8805   -6.3053   23.8992 O   0  0  0  0  0  0  0  0  0  0  0  0
    9.2690    1.4140   20.9380 O   0  0  0  0  0  0  0  0  0  0  0  0
   14.4463    3.4175   22.1707 Cl  0  0  0  0  0  0  0  0  0  0  0  0
    3.0136    2.6526   19.3908 H   0  0  0  0  0  0  0  0  0  0  0  0
    3.6480    2.0140   21.6821 H   0  0  0  0  0  0  0  0  0  0  0  0
   13.8945   -0.0888   25.4867 H   0  0  0  0  0  0  0  0  0  0  0  0
   11.4361   -0.1726   25.2338 H   0  0  0  0  0  0  0  0  0  0  0  0
    4.4042    1.9741   17.4524 H   0  0  0  0  0  0  0  0  0  0  0  0
    5.7089    0.6919   22.1150 H   0  0  0  0  0  0  0  0  0  0  0  0
    8.6895   -2.3529   26.5807 H   0  0  0  0  0  0  0  0  0  0  0  0
    9.9262   -4.3897   22.9916 H   0  0  0  0  0  0  0  0  0  0  0  0
    8.9224   -0.1998   25.4238 H   0  0  0  0  0  0  0  0  0  0  0  0
   10.0649   -2.2343   21.8258 H   0  0  0  0  0  0  0  0  0  0  0  0
   15.2326    1.4907   24.1414 H   0  0  0  0  0  0  0  0  0  0  0  0
   11.6318    2.9303   22.2615 H   0  0  0  0  0  0  0  0  0  0  0  0
   11.4241   -7.7171   26.2024 H   0  0  0  0  0  0  0  0  0  0  0  0
   10.4628   -8.1530   27.6277 H   0  0  0  0  0  0  0  0  0  0  0  0
   10.9949   -6.4779   27.3911 H   0  0  0  0  0  0  0  0  0  0  0  0
    9.3974    1.2912   24.5523 H   0  0  0  0  0  0  0  0  0  0  0  0
    9.5159    2.2168   23.0553 H   0  0  0  0  0  0  0  0  0  0  0  0
    8.5795   -6.7463   26.8138 H   0  0  0  0  0  0  0  0  0  0  0  0
    8.9965   -8.0064   25.6368 H   0  0  0  0  0  0  0  0  0  0  0  0
    8.9776   -4.7057   26.5317 H   0  0  0  0  0  0  0  0  0  0  0  0
    8.2278   -1.5705   21.0849 H   0  0  0  0  0  0  0  0  0  0  0  0
  1  2  1  0  0  0  0
  1  5  2  0  0  0  0
  2  6  2  0  0  0  0
  3  4  2  0  0  0  0
  3 11  1  0  0  0  0
  4 13  1  0  0  0  0
  5 14  1  0  0  0  0
  6 15  1  0  0  0  0
  7  9  2  0  0  0  0
  7 16  1  0  0  0  0
  8 10  1  0  0  0  0
  8 16  2  0  0  0  0
  9 17  1  0  0  0  0
 10 17  2  0  0  0  0
 11 18  2  0  0  0  0
 12 13  2  0  0  0  0
 12 18  1  0  0  0  0
 13 22  1  0  0  0  0
 14 15  2  0  0  0  0
 14 24  1  0  0  0  0
 15 26  1  0  0  0  0
 16 27  1  0  0  0  0
 17 29  1  0  0  0  0
 18 32  1  0  0  0  0
 19 23  1  0  0  0  0
 19 27  1  0  0  0  0
 19 30  2  0  0  0  0
 20 28  1  0  0  0  0
 20 29  1  0  0  0  0
 20 31  2  0  0  0  0
 21 23  1  0  0  0  0
 22 29  1  0  0  0  0
 24 25  2  0  0  0  0
 25 26  1  0  0  0  0
 26 28  1  0  0  0  0
  1 33  1  0  0  0  0
  2 34  1  0  0  0  0
  3 35  1  0  0  0  0
  4 36  1  0  0  0  0
  5 37  1  0  0  0  0
  6 38  1  0  0  0  0
  7 39  1  0  0  0  0
  8 40  1  0  0  0  0
  9 41  1  0  0  0  0
 10 42  1  0  0  0  0
 11 43  1  0  0  0  0
 12 44  1  0  0  0  0
 21 45  1  0  0  0  0
 21 46  1  0  0  0  0
 21 47  1  0  0  0  0
 22 48  1  0  0  0  0
 22 49  1  0  0  0  0
 23 50  1  0  0  0  0
 23 51  1  0  0  0  0
 27 52  1  0  0  0  0
 28 53  1  0  0  0  0
M  END
> <clash_score>
1.498663752905594

> <docking_score>
-5.126304626464844

> <overlap_score>
0.9913628101348877

$$$$
BENZO_2_1
  -OEChem-08222022163D

 51 54  0     0  0  0  0  0  0999 V2000
    3.9160    2.0630   19.5520 C   0  0  0  0  0  0  0  0  0  0  0  0
    4.2750    1.7050   20.8490 C   0  0  0  0  0  0  0  0  0  0  0  0
   13.4007    0.5725   24.7805 C   0  0  0  0  0  0  0  0  0  0  0  0
   12.0141    0.5273   24.6359 C   0  0  0  0  0  0  0  0  0  0  0  0
    4.6890    1.6810   18.4640 C   0  0  0  0  0  0  0  0  0  0  0  0
    5.4210    0.9600   21.0930 C   0  0  0  0  0  0  0  0  0  0  0  0
    9.0720   -1.1280   24.8640 C   0  0  0  0  0  0  0  0  0  0  0  0
    9.7200   -2.2600   22.8630 C   0  0  0  0  0  0  0  0  0  0  0  0
    8.9960   -2.3380   25.5320 C   0  0  0  0  0  0  0  0  0  0  0  0
    9.6730   -3.4710   23.5300 C   0  0  0  0  0  0  0  0  0  0  0  0
   14.1526    1.4666   24.0184 C   0  0  0  0  0  0  0  0  0  0  0  0
   12.1314    2.2702   22.9668 C   0  0  0  0  0  0  0  0  0  0  0  0
   11.3794    1.3761   23.7290 C   0  0  0  0  0  0  0  0  0  0  0  0
    5.8300    0.9190   18.6970 C   0  0  0  0  0  0  0  0  0  0  0  0
    6.1790    0.5730   19.9990 C   0  0  0  0  0  0  0  0  0  0  0  0
    9.3350   -1.0880   23.5010 C   0  0  0  0  0  0  0  0  0  0  0  0
    9.3070   -3.5340   24.8780 C   0  0  0  0  0  0  0  0  0  0  0  0
   13.5180    2.3154   23.1115 C   0  0  0  0  0  0  0  0  0  0  0  0
    9.0420    0.3700   21.5280 C   0  0  0  0  0  0  0  0  0  0  0  0
    8.0128   -5.2151   26.1416 C   0  0  0  0  0  0  0  0  0  0  0  0
   10.4372   -5.5860   25.6589 C   0  0  0  0  0  0  0  0  0  0  0  0
    9.8870    1.3260   23.5730 C   0  0  0  0  0  0  0  0  0  0  0  0
    6.7580    0.3810   17.8350 N   0  0  0  0  0  0  0  0  0  0  0  0
    7.6390   -0.2680   18.5410 N   0  0  0  0  0  0  0  0  0  0  0  0
    7.3170   -0.1610   19.8550 N   0  0  0  0  0  0  0  0  0  0  0  0
    8.1890   -0.7180   20.8700 N   0  0  0  0  0  0  0  0  0  0  0  0
    9.4560    0.1560   22.8130 N   0  0  0  0  0  0  0  0  0  0  0  0
    9.2543   -4.7552   25.5519 N   0  0  0  0  0  0  0  0  0  0  0  0
    9.2690    1.4140   20.9380 O   0  0  0  0  0  0  0  0  0  0  0  0
   14.4463    3.4175   22.1707 Cl  0  0  0  0  0  0  0  0  0  0  0  0
    3.0136    2.6526   19.3908 H   0  0  0  0  0  0  0  0  0  0  0  0
    3.6480    2.0140   21.6821 H   0  0  0  0  0  0  0  0  0  0  0  0
   13.8945   -0.0888   25.4867 H   0  0  0  0  0  0  0  0  0  0  0  0
   11.4361   -0.1726   25.2338 H   0  0  0  0  0  0  0  0  0  0  0  0
    4.4042    1.9741   17.4524 H   0  0  0  0  0  0  0  0  0  0  0  0
    5.7089    0.6919   22.1150 H   0  0  0  0  0  0  0  0  0  0  0  0
    8.9217   -0.1995   25.4232 H   0  0  0  0  0  0  0  0  0  0  0  0
   10.0643   -2.2341   21.8254 H   0  0  0  0  0  0  0  0  0  0  0  0
    8.6893   -2.3540   26.5808 H   0  0  0  0  0  0  0  0  0  0  0  0
    9.9257   -4.3898   22.9921 H   0  0  0  0  0  0  0  0  0  0  0  0
   15.2326    1.4907   24.1414 H   0  0  0  0  0  0  0  0  0  0  0  0
   11.6318    2.9303   22.2615 H   0  0  0  0  0  0  0  0  0  0  0  0
    8.1744   -6.1904   26.6238 H   0  0  0  0  0  0  0  0  0  0  0  0
    7.6718   -4.4870   26.8924 H   0  0  0  0  0  0  0  0  0  0  0  0
    7.2494   -5.3166   25.3561 H   0  0  0  0  0  0  0  0  0  0  0  0
   10.1947   -6.4995   26.2216 H   0  0  0  0  0  0  0  0  0  0  0  0
   10.7865   -5.8577   24.6518 H   0  0  0  0  0  0  0  0  0  0  0  0
   11.2285   -5.0312   26.1842 H   0  0  0  0  0  0  0  0  0  0  0  0
    9.3974    1.2912   24.5523 H   0  0  0  0  0  0  0  0  0  0  0  0
    9.5159    2.2168   23.0553 H   0  0  0  0  0  0  0  0  0  0  0  0
    8.2278   -1.5705   21.0849 H   0  0  0  0  0  0  0  0  0  0  0  0
  1  2  1  0  0  0  0
  1  5  2  0  0  0  0
  2  6  2  0  0  0  0
  3  4  2  0  0  0  0
  3 11  1  0  0  0  0
  4 13  1  0  0  0  0
  5 14  1  0  0  0  0
  6 15  1  0  0  0  0
  7  9  2  0  0  0  0
  7 16  1  0  0  0  0
  8 10  1  0  0  0  0
  8 16  2  0  0  0  0
  9 17  1  0  0  0  0
 10 17  2  0  0  0  0
 11 18  2  0  0  0  0
 12 13  2  0  0  0  0
 12 18  1  0  0  0  0
 13 22  1  0  0  0  0
 14 15  2  0  0  0  0
 14 23  1  0  0  0  0
 15 25  1  0  0  0  0
 16 27  1  0  0  0  0
 17 28  1  0  0  0  0
 18 30  1  0  0  0  0
 19 26  1  0  0  0  0
 19 27  1  0  0  0  0
 19 29  2  0  0  0  0
 20 28  1  0  0  0  0
 21 28  1  0  0  0  0
 22 27  1  0  0  0  0
 23 24  2  0  0  0  0
 24 25  1  0  0  0  0
 25 26  1  0  0  0  0
  1 31  1  0  0  0  0
  2 32  1  0  0  0  0
  3 33  1  0  0  0  0
  4 34  1  0  0  0  0
  5 35  1  0  0  0  0
  6 36  1  0  0  0  0
  7 37  1  0  0  0  0
  8 38  1  0  0  0  0
  9 39  1  0  0  0  0
 10 40  1  0  0  0  0
 11 41  1  0  0  0  0
 12 42  1  0  0  0  0
 20 43  1  0  0  0  0
 20 44  1  0  0  0  0
 20 45  1  0  0  0  0
 21 46  1  0  0  0  0
 21 47  1  0  0  0  0
 21 48  1  0  0  0  0
 22 49  1  0  0  0  0
 22 50  1  0  0  0  0
 26 51  1  0  0  0  0
M  END
> <clash_score>
0

> <docking_score>
-8.320582389831543

> <overlap_score>
0.9891857504844666

$$$$
BENZO_9_1
  -OEChem-08222022163D

 58 62  0     0  0  0  0  0  0999 V2000
   14.1526    1.4694   24.0176 C   0  0  0  0  0  0  0  0  0  0  0  0
   13.3741    0.8121   24.9701 C   0  0  0  0  0  0  0  0  0  0  0  0
   13.5446    2.0802   22.9208 C   0  0  0  0  0  0  0  0  0  0  0  0
    3.9160    2.0630   19.5520 C   0  0  0  0  0  0  0  0  0  0  0  0
    4.2750    1.7050   20.8490 C   0  0  0  0  0  0  0  0  0  0  0  0
   11.9875    0.7654   24.8259 C   0  0  0  0  0  0  0  0  0  0  0  0
   12.1580    2.0335   22.7765 C   0  0  0  0  0  0  0  0  0  0  0  0
    4.6890    1.6810   18.4640 C   0  0  0  0  0  0  0  0  0  0  0  0
    5.4210    0.9600   21.0930 C   0  0  0  0  0  0  0  0  0  0  0  0
    8.9960   -2.3380   25.5320 C   0  0  0  0  0  0  0  0  0  0  0  0
    9.6730   -3.4710   23.5300 C   0  0  0  0  0  0  0  0  0  0  0  0
    9.0720   -1.1280   24.8640 C   0  0  0  0  0  0  0  0  0  0  0  0
    9.7200   -2.2600   22.8630 C   0  0  0  0  0  0  0  0  0  0  0  0
   11.3794    1.3761   23.7290 C   0  0  0  0  0  0  0  0  0  0  0  0
    5.8300    0.9190   18.6970 C   0  0  0  0  0  0  0  0  0  0  0  0
    6.1790    0.5730   19.9990 C   0  0  0  0  0  0  0  0  0  0  0  0
    9.3070   -3.5340   24.8780 C   0  0  0  0  0  0  0  0  0  0  0  0
    9.3350   -1.0880   23.5010 C   0  0  0  0  0  0  0  0  0  0  0  0
    9.0420    0.3700   21.5280 C   0  0  0  0  0  0  0  0  0  0  0  0
    7.3635   -6.1361   27.1888 C   0  0  0  0  0  0  0  0  0  0  0  0
    8.1961   -4.9735   27.7341 C   0  0  0  0  0  0  0  0  0  0  0  0
    7.1942   -6.0394   25.6709 C   0  0  0  0  0  0  0  0  0  0  0  0
    9.5196   -4.8490   26.9797 C   0  0  0  0  0  0  0  0  0  0  0  0
    8.5442   -5.8838   24.9639 C   0  0  0  0  0  0  0  0  0  0  0  0
    9.8870    1.3260   23.5730 C   0  0  0  0  0  0  0  0  0  0  0  0
    6.7580    0.3810   17.8350 N   0  0  0  0  0  0  0  0  0  0  0  0
    7.6390   -0.2680   18.5410 N   0  0  0  0  0  0  0  0  0  0  0  0
    7.3170   -0.1610   19.8550 N   0  0  0  0  0  0  0  0  0  0  0  0
    9.2562   -4.7384   25.5422 N   0  0  0  0  0  0  0  0  0  0  0  0
    8.1890   -0.7180   20.8700 N   0  0  0  0  0  0  0  0  0  0  0  0
    9.4560    0.1560   22.8130 N   0  0  0  0  0  0  0  0  0  0  0  0
    9.2690    1.4140   20.9380 O   0  0  0  0  0  0  0  0  0  0  0  0
   15.2322    1.5068   24.1308 H   0  0  0  0  0  0  0  0  0  0  0  0
   13.8473    0.3374   25.8248 H   0  0  0  0  0  0  0  0  0  0  0  0
   14.1503    2.5930   22.1795 H   0  0  0  0  0  0  0  0  0  0  0  0
    3.0136    2.6526   19.3908 H   0  0  0  0  0  0  0  0  0  0  0  0
    3.6480    2.0140   21.6821 H   0  0  0  0  0  0  0  0  0  0  0  0
   11.3889    0.2508   25.5729 H   0  0  0  0  0  0  0  0  0  0  0  0
   11.6930    2.5120   21.9187 H   0  0  0  0  0  0  0  0  0  0  0  0
    4.4042    1.9741   17.4524 H   0  0  0  0  0  0  0  0  0  0  0  0
    5.7089    0.6919   22.1150 H   0  0  0  0  0  0  0  0  0  0  0  0
    8.6905   -2.3533   26.5810 H   0  0  0  0  0  0  0  0  0  0  0  0
    9.9266   -4.3896   22.9917 H   0  0  0  0  0  0  0  0  0  0  0  0
    8.9233   -0.1992   25.4231 H   0  0  0  0  0  0  0  0  0  0  0  0
   10.0650   -2.2330   21.8256 H   0  0  0  0  0  0  0  0  0  0  0  0
    7.8482   -7.0901   27.4469 H   0  0  0  0  0  0  0  0  0  0  0  0
    6.3760   -6.1438   27.6724 H   0  0  0  0  0  0  0  0  0  0  0  0
    7.6307   -4.0424   27.6403 H   0  0  0  0  0  0  0  0  0  0  0  0
    8.3915   -5.1310   28.7968 H   0  0  0  0  0  0  0  0  0  0  0  0
    6.6888   -6.9376   25.3010 H   0  0  0  0  0  0  0  0  0  0  0  0
    6.5515   -5.1859   25.4257 H   0  0  0  0  0  0  0  0  0  0  0  0
   10.0492   -3.9640   27.3414 H   0  0  0  0  0  0  0  0  0  0  0  0
   10.1431   -5.7254   27.1778 H   0  0  0  0  0  0  0  0  0  0  0  0
    9.1338   -6.7931   25.0868 H   0  0  0  0  0  0  0  0  0  0  0  0
    8.3656   -5.7264   23.8998 H   0  0  0  0  0  0  0  0  0  0  0  0
    9.3974    1.2912   24.5523 H   0  0  0  0  0  0  0  0  0  0  0  0
    9.5159    2.2168   23.0553 H   0  0  0  0  0  0  0  0  0  0  0  0
    8.2565   -1.5523   21.1108 H   0  0  0  0  0  0  0  0  0  0  0  0
  1  2  1  0  0  0  0
  1  3  2  0  0  0  0
  2  6  2  0  0  0  0
  3  7  1  0  0  0  0
  4  5  1  0  0  0  0
  4  8  2  0  0  0  0
  5  9  2  0  0  0  0
  6 14  1  0  0  0  0
  7 14  2  0  0  0  0
  8 15  1  0  0  0  0
  9 16  1  0  0  0  0
 10 12  2  0  0  0  0
 10 17  1  0  0  0  0
 11 13  1  0  0  0  0
 11 17  2  0  0  0  0
 12 18  1  0  0  0  0
 13 18  2  0  0  0  0
 14 25  1  0  0  0  0
 15 16  2  0  0  0  0
 15 26  1  0  0  0  0
 16 28  1  0  0  0  0
 17 29  1  0  0  0  0
 18 31  1  0  0  0  0
 19 30  1  0  0  0  0
 19 31  1  0  0  0  0
 19 32  2  0  0  0  0
 20 21  1  0  0  0  0
 20 22  1  0  0  0  0
 21 23  1  0  0  0  0
 22 24  1  0  0  0  0
 23 29  1  0  0  0  0
 24 29  1  0  0  0  0
 25 31  1  0  0  0  0
 26 27  2  0  0  0  0
 27 28  1  0  0  0  0
 28 30  1  0  0  0  0
  1 33  1  0  0  0  0
  2 34  1  0  0  0  0
  3 35  1  0  0  0  0
  4 36  1  0  0  0  0
  5 37  1  0  0  0  0
  6 38  1  0  0  0  0
  7 39  1  0  0  0  0
  8 40  1  0  0  0  0
  9 41  1  0  0  0  0
 10 42  1  0  0  0  0
 11 43  1  0  0  0  0
 12 44  1  0  0  0  0
 13 45  1  0  0  0  0
 20 46  1  0  0  0  0
 20 47  1  0  0  0  0
 21 48  1  0  0  0  0
 21 49  1  0  0  0  0
 22 50  1  0  0  0  0
 22 51  1  0  0  0  0
 23 52  1  0  0  0  0
 23 53  1  0  0  0  0
 24 54  1  0  0  0  0
 24 55  1  0  0  0  0
 25 56  1  0  0  0  0
 25 57  1  0  0  0  0
 30 58  1  0  0  0  0
M  END
> <clash_score>
0

> <docking_score>
-8.279372215270996

> <overlap_score>
0.9931821227073669

$$$$
BENZO_13_1
  -OEChem-08222022163D

 46 49  0     0  0  0  0  0  0999 V2000
   14.1526    1.4694   24.0176 C   0  0  0  0  0  0  0  0  0  0  0  0
   13.3741    0.8121   24.9701 C   0  0  0  0  0  0  0  0  0  0  0  0
   13.5446    2.0802   22.9208 C   0  0  0  0  0  0  0  0  0  0  0  0
    3.9160    2.0630   19.5520 C   0  0  0  0  0  0  0  0  0  0  0  0
    4.2750    1.7050   20.8490 C   0  0  0  0  0  0  0  0  0  0  0  0
   11.9875    0.7654   24.8258 C   0  0  0  0  0  0  0  0  0  0  0  0
   12.1580    2.0335   22.7765 C   0  0  0  0  0  0  0  0  0  0  0  0
    8.9960   -2.3380   25.5320 C   0  0  0  0  0  0  0  0  0  0  0  0
    9.6730   -3.4710   23.5300 C   0  0  0  0  0  0  0  0  0  0  0  0
    4.6890    1.6810   18.4640 C   0  0  0  0  0  0  0  0  0  0  0  0
    5.4210    0.9600   21.0930 C   0  0  0  0  0  0  0  0  0  0  0  0
    9.0720   -1.1280   24.8640 C   0  0  0  0  0  0  0  0  0  0  0  0
    9.7200   -2.2600   22.8630 C   0  0  0  0  0  0  0  0  0  0  0  0
    9.3070   -3.5340   24.8780 C   0  0  0  0  0  0  0  0  0  0  0  0
   11.3794    1.3761   23.7290 C   0  0  0  0  0  0  0  0  0  0  0  0
    5.8300    0.9190   18.6970 C   0  0  0  0  0  0  0  0  0  0  0  0
    6.1790    0.5730   19.9990 C   0  0  0  0  0  0  0  0  0  0  0  0
    9.3350   -1.0880   23.5010 C   0  0  0  0  0  0  0  0  0  0  0  0
    9.0420    0.3700   21.5280 C   0  0  0  0  0  0  0  0  0  0  0  0
    9.2505   -4.8264   25.5904 C   0  0  0  0  0  0  0  0  0  0  0  0
    9.8870    1.3260   23.5730 C   0  0  0  0  0  0  0  0  0  0  0  0
    6.7580    0.3810   17.8350 N   0  0  0  0  0  0  0  0  0  0  0  0
    7.6390   -0.2680   18.5410 N   0  0  0  0  0  0  0  0  0  0  0  0
    7.3170   -0.1610   19.8550 N   0  0  0  0  0  0  0  0  0  0  0  0
    8.1890   -0.7180   20.8700 N   0  0  0  0  0  0  0  0  0  0  0  0
    9.4560    0.1560   22.8130 N   0  0  0  0  0  0  0  0  0  0  0  0
    9.2690    1.4140   20.9380 O   0  0  0  0  0  0  0  0  0  0  0  0
   15.2322    1.5068   24.1308 H   0  0  0  0  0  0  0  0  0  0  0  0
   13.8473    0.3374   25.8248 H   0  0  0  0  0  0  0  0  0  0  0  0
   14.1503    2.5930   22.1795 H   0  0  0  0  0  0  0  0  0  0  0  0
    3.0136    2.6526   19.3908 H   0  0  0  0  0  0  0  0  0  0  0  0
    3.6480    2.0140   21.6821 H   0  0  0  0  0  0  0  0  0  0  0  0
   11.3889    0.2508   25.5729 H   0  0  0  0  0  0  0  0  0  0  0  0
   11.6930    2.5120   21.9187 H   0  0  0  0  0  0  0  0  0  0  0  0
    8.6919   -2.3557   26.5813 H   0  0  0  0  0  0  0  0  0  0  0  0
    9.9267   -4.3907   22.9939 H   0  0  0  0  0  0  0  0  0  0  0  0
    4.4042    1.9741   17.4524 H   0  0  0  0  0  0  0  0  0  0  0  0
    5.7089    0.6919   22.1150 H   0  0  0  0  0  0  0  0  0  0  0  0
    8.9217   -0.1995   25.4231 H   0  0  0  0  0  0  0  0  0  0  0  0
   10.0653   -2.2339   21.8256 H   0  0  0  0  0  0  0  0  0  0  0  0
    8.2503   -5.2678   25.5020 H   0  0  0  0  0  0  0  0  0  0  0  0
    9.9817   -5.5374   25.1845 H   0  0  0  0  0  0  0  0  0  0  0  0
    9.4841   -4.7043   26.6562 H   0  0  0  0  0  0  0  0  0  0  0  0
    9.3974    1.2912   24.5523 H   0  0  0  0  0  0  0  0  0  0  0  0
    9.5159    2.2168   23.0553 H   0  0  0  0  0  0  0  0  0  0  0  0
    8.2278   -1.5705   21.0849 H   0  0  0  0  0  0  0  0  0  0  0  0
  1  2  1  0  0  0  0
  1  3  2  0  0  0  0
  2  6  2  0  0  0  0
  3  7  1  0  0  0  0
  4  5  1  0  0  0  0
  4 10  2  0  0  0  0
  5 11  2  0  0  0  0
  6 15  1  0  0  0  0
  7 15  2  0  0  0  0
  8 12  2  0  0  0  0
  8 14  1  0  0  0  0
  9 13  1  0  0  0  0
  9 14  2  0  0  0  0
 10 16  1  0  0  0  0
 11 17  1  0  0  0  0
 12 18  1  0  0  0  0
 13 18  2  0  0  0  0
 14 20  1  0  0  0  0
 15 21  1  0  0  0  0
 16 17  2  0  0  0  0
 16 22  1  0  0  0  0
 17 24  1  0  0  0  0
 18 26  1  0  0  0  0
 19 25  1  0  0  0  0
 19 26  1  0  0  0  0
 19 27  2  0  0  0  0
 21 26  1  0  0  0  0
 22 23  2  0  0  0  0
 23 24  1  0  0  0  0
 24 25  1  0  0  0  0
  1 28  1  0  0  0  0
  2 29  1  0  0  0  0
  3 30  1  0  0  0  0
  4 31  1  0  0  0  0
  5 32  1  0  0  0  0
  6 33  1  0  0  0  0
  7 34  1  0  0  0  0
  8 35  1  0  0  0  0
  9 36  1  0  0  0  0
 10 37  1  0  0  0  0
 11 38  1  0  0  0  0
 12 39  1  0  0  0  0
 13 40  1  0  0  0  0
 20 41  1  0  0  0  0
 20 42  1  0  0  0  0
 20 43  1  0  0  0  0
 21 44  1  0  0  0  0
 21 45  1  0  0  0  0
 25 46  1  0  0  0  0
M  END
> <clash_score>
0

> <docking_score>
-8.524407386779785

> <overlap_score>
0.939452588558197

$$$$
BENZO_8_1
  -OEChem-08222022163D

 55 59  0     0  0  0  0  0  0999 V2000
    3.9160    2.0630   19.5520 C   0  0  0  0  0  0  0  0  0  0  0  0
    4.2750    1.7050   20.8490 C   0  0  0  0  0  0  0  0  0  0  0  0
    4.6890    1.6810   18.4640 C   0  0  0  0  0  0  0  0  0  0  0  0
    5.4210    0.9600   21.0930 C   0  0  0  0  0  0  0  0  0  0  0  0
    8.9960   -2.3380   25.5320 C   0  0  0  0  0  0  0  0  0  0  0  0
    9.6730   -3.4710   23.5300 C   0  0  0  0  0  0  0  0  0  0  0  0
    9.0720   -1.1280   24.8640 C   0  0  0  0  0  0  0  0  0  0  0  0
    9.7200   -2.2600   22.8630 C   0  0  0  0  0  0  0  0  0  0  0  0
   12.2913    1.4279   22.6355 C   0  0  0  0  0  0  0  0  0  0  0  0
   13.6024    1.4662   23.0564 C   0  0  0  0  0  0  0  0  0  0  0  0
   12.0284    1.3764   24.9443 C   0  0  0  0  0  0  0  0  0  0  0  0
   11.3794    1.3761   23.7290 C   0  0  0  0  0  0  0  0  0  0  0  0
    5.8300    0.9190   18.6970 C   0  0  0  0  0  0  0  0  0  0  0  0
    6.1790    0.5730   19.9990 C   0  0  0  0  0  0  0  0  0  0  0  0
    9.3070   -3.5340   24.8780 C   0  0  0  0  0  0  0  0  0  0  0  0
    9.3350   -1.0880   23.5010 C   0  0  0  0  0  0  0  0  0  0  0  0
    9.0420    0.3700   21.5280 C   0  0  0  0  0  0  0  0  0  0  0  0
    7.2235   -6.6199   26.3009 C   0  0  0  0  0  0  0  0  0  0  0  0
    7.4293   -5.3101   27.0652 C   0  0  0  0  0  0  0  0  0  0  0  0
    7.7217   -6.5099   24.8580 C   0  0  0  0  0  0  0  0  0  0  0  0
    8.8782   -4.8357   26.9548 C   0  0  0  0  0  0  0  0  0  0  0  0
    9.1652   -6.0007   24.7995 C   0  0  0  0  0  0  0  0  0  0  0  0
    9.8870    1.3260   23.5730 C   0  0  0  0  0  0  0  0  0  0  0  0
    6.7580    0.3810   17.8350 N   0  0  0  0  0  0  0  0  0  0  0  0
    7.6390   -0.2680   18.5410 N   0  0  0  0  0  0  0  0  0  0  0  0
    7.3170   -0.1610   19.8550 N   0  0  0  0  0  0  0  0  0  0  0  0
    9.2562   -4.7384   25.5422 N   0  0  0  0  0  0  0  0  0  0  0  0
    8.1890   -0.7180   20.8700 N   0  0  0  0  0  0  0  0  0  0  0  0
    9.4560    0.1560   22.8130 N   0  0  0  0  0  0  0  0  0  0  0  0
    9.2690    1.4140   20.9380 O   0  0  0  0  0  0  0  0  0  0  0  0
   13.7301    1.4394   24.7638 S   0  0  0  0  0  0  0  0  0  0  0  0
    3.0136    2.6526   19.3908 H   0  0  0  0  0  0  0  0  0  0  0  0
    3.6480    2.0140   21.6821 H   0  0  0  0  0  0  0  0  0  0  0  0
    4.4042    1.9741   17.4524 H   0  0  0  0  0  0  0  0  0  0  0  0
    5.7089    0.6919   22.1150 H   0  0  0  0  0  0  0  0  0  0  0  0
    8.6905   -2.3533   26.5810 H   0  0  0  0  0  0  0  0  0  0  0  0
    9.9266   -4.3896   22.9917 H   0  0  0  0  0  0  0  0  0  0  0  0
    8.9233   -0.1992   25.4231 H   0  0  0  0  0  0  0  0  0  0  0  0
   10.0650   -2.2330   21.8256 H   0  0  0  0  0  0  0  0  0  0  0  0
   12.0045    1.4365   21.5915 H   0  0  0  0  0  0  0  0  0  0  0  0
   14.4914    1.5078   22.4431 H   0  0  0  0  0  0  0  0  0  0  0  0
   11.5886    1.3416   25.9314 H   0  0  0  0  0  0  0  0  0  0  0  0
    7.7559   -7.4347   26.8149 H   0  0  0  0  0  0  0  0  0  0  0  0
    6.1572   -6.8883   26.3055 H   0  0  0  0  0  0  0  0  0  0  0  0
    6.7602   -4.5435   26.6651 H   0  0  0  0  0  0  0  0  0  0  0  0
    7.1684   -5.4551   28.1155 H   0  0  0  0  0  0  0  0  0  0  0  0
    7.6595   -7.4899   24.3736 H   0  0  0  0  0  0  0  0  0  0  0  0
    7.0706   -5.8317   24.2943 H   0  0  0  0  0  0  0  0  0  0  0  0
    8.9681   -3.8621   27.4435 H   0  0  0  0  0  0  0  0  0  0  0  0
    9.5387   -5.5390   27.4697 H   0  0  0  0  0  0  0  0  0  0  0  0
    9.8374   -6.7413   25.2344 H   0  0  0  0  0  0  0  0  0  0  0  0
    9.4414   -5.8515   23.7552 H   0  0  0  0  0  0  0  0  0  0  0  0
    9.3974    1.2912   24.5523 H   0  0  0  0  0  0  0  0  0  0  0  0
    9.5159    2.2168   23.0553 H   0  0  0  0  0  0  0  0  0  0  0  0
    8.2565   -1.5523   21.1108 H   0  0  0  0  0  0  0  0  0  0  0  0
  1  2  1  0  0  0  0
  1  3  2  0  0  0  0
  2  4  2  0  0  0  0
  3 13  1  0  0  0  0
  4 14  1  0  0  0  0
  5  7  2  0  0  0  0
  5 15  1  0  0  0  0
  6  8  1  0  0  0  0
  6 15  2  0  0  0  0
  7 16  1  0  0  0  0
  8 16  2  0  0  0  0
  9 10  2  0  0  0  0
  9 12  1  0  0  0  0
 10 31  1  0  0  0  0
 11 12  2  0  0  0  0
 11 31  1  0  0  0  0
 12 23  1  0  0  0  0
 13 14  2  0  0  0  0
 13 24  1  0  0  0  0
 14 26  1  0  0  0  0
 15 27  1  0  0  0  0
 16 29  1  0  0  0  0
 17 28  1  0  0  0  0
 17 29  1  0  0  0  0
 17 30  2  0  0  0  0
 18 19  1  0  0  0  0
 18 20  1  0  0  0  0
 19 21  1  0  0  0  0
 20 22  1  0  0  0  0
 21 27  1  0  0  0  0
 22 27  1  0  0  0  0
 23 29  1  0  0  0  0
 24 25  2  0  0  0  0
 25 26  1  0  0  0  0
 26 28  1  0  0  0  0
  1 32  1  0  0  0  0
  2 33  1  0  0  0  0
  3 34  1  0  0  0  0
  4 35  1  0  0  0  0
  5 36  1  0  0  0  0
  6 37  1  0  0  0  0
  7 38  1  0  0  0  0
  8 39  1  0  0  0  0
  9 40  1  0  0  0  0
 10 41  1  0  0  0  0
 11 42  1  0  0  0  0
 18 43  1  0  0  0  0
 18 44  1  0  0  0  0
 19 45  1  0  0  0  0
 19 46  1  0  0  0  0
 20 47  1  0  0  0  0
 20 48  1  0  0  0  0
 21 49  1  0  0  0  0
 21 50  1  0  0  0  0
 22 51  1  0  0  0  0
 22 52  1  0  0  0  0
 23 53  1  0  0  0  0
 23 54  1  0  0  0  0
 28 55  1  0  0  0  0
M  END
> <clash_score>
0

> <docking_score>
-8.181866645812988

> <overlap_score>
0.9782363772392273

$$$$
BENZO_15_1
  -OEChem-08222022163D

 46 49  0     0  0  0  0  0  0999 V2000
    3.9160    2.0630   19.5520 C   0  0  0  0  0  0  0  0  0  0  0  0
    4.2750    1.7050   20.8490 C   0  0  0  0  0  0  0  0  0  0  0  0
    8.9960   -2.3380   25.5320 C   0  0  0  0  0  0  0  0  0  0  0  0
    9.6730   -3.4710   23.5300 C   0  0  0  0  0  0  0  0  0  0  0  0
    4.6890    1.6810   18.4640 C   0  0  0  0  0  0  0  0  0  0  0  0
    5.4210    0.9600   21.0930 C   0  0  0  0  0  0  0  0  0  0  0  0
    9.0720   -1.1280   24.8640 C   0  0  0  0  0  0  0  0  0  0  0  0
    9.7200   -2.2600   22.8630 C   0  0  0  0  0  0  0  0  0  0  0  0
   12.2914    2.2071   23.0512 C   0  0  0  0  0  0  0  0  0  0  0  0
   12.1614    0.6214   24.5689 C   0  0  0  0  0  0  0  0  0  0  0  0
    9.3070   -3.5340   24.8780 C   0  0  0  0  0  0  0  0  0  0  0  0
   11.3794    1.3761   23.7290 C   0  0  0  0  0  0  0  0  0  0  0  0
    5.8300    0.9190   18.6970 C   0  0  0  0  0  0  0  0  0  0  0  0
    6.1790    0.5730   19.9990 C   0  0  0  0  0  0  0  0  0  0  0  0
    9.3350   -1.0880   23.5010 C   0  0  0  0  0  0  0  0  0  0  0  0
    9.0420    0.3700   21.5280 C   0  0  0  0  0  0  0  0  0  0  0  0
    9.2505   -4.8264   25.5904 C   0  0  0  0  0  0  0  0  0  0  0  0
   14.6267    0.5248   25.0067 C   0  0  0  0  0  0  0  0  0  0  0  0
    9.8870    1.3260   23.5730 C   0  0  0  0  0  0  0  0  0  0  0  0
   13.5560    2.0002   23.4280 N   0  0  0  0  0  0  0  0  0  0  0  0
    6.7580    0.3810   17.8350 N   0  0  0  0  0  0  0  0  0  0  0  0
    7.6390   -0.2680   18.5410 N   0  0  0  0  0  0  0  0  0  0  0  0
   13.4442    1.0306   24.3518 N   0  0  0  0  0  0  0  0  0  0  0  0
    7.3170   -0.1610   19.8550 N   0  0  0  0  0  0  0  0  0  0  0  0
    8.1890   -0.7180   20.8700 N   0  0  0  0  0  0  0  0  0  0  0  0
    9.4560    0.1560   22.8130 N   0  0  0  0  0  0  0  0  0  0  0  0
    9.2690    1.4140   20.9380 O   0  0  0  0  0  0  0  0  0  0  0  0
    3.0136    2.6526   19.3908 H   0  0  0  0  0  0  0  0  0  0  0  0
    3.6480    2.0140   21.6821 H   0  0  0  0  0  0  0  0  0  0  0  0
    8.6919   -2.3557   26.5813 H   0  0  0  0  0  0  0  0  0  0  0  0
    9.9267   -4.3907   22.9939 H   0  0  0  0  0  0  0  0  0  0  0  0
    4.4042    1.9741   17.4524 H   0  0  0  0  0  0  0  0  0  0  0  0
    5.7089    0.6919   22.1150 H   0  0  0  0  0  0  0  0  0  0  0  0
    8.9217   -0.1995   25.4231 H   0  0  0  0  0  0  0  0  0  0  0  0
   10.0653   -2.2339   21.8256 H   0  0  0  0  0  0  0  0  0  0  0  0
   12.0895    2.9562   22.2987 H   0  0  0  0  0  0  0  0  0  0  0  0
   11.9202   -0.1518   25.2857 H   0  0  0  0  0  0  0  0  0  0  0  0
    8.2503   -5.2678   25.5020 H   0  0  0  0  0  0  0  0  0  0  0  0
    9.9817   -5.5374   25.1845 H   0  0  0  0  0  0  0  0  0  0  0  0
    9.4841   -4.7043   26.6562 H   0  0  0  0  0  0  0  0  0  0  0  0
   15.0068   -0.3132   24.4165 H   0  0  0  0  0  0  0  0  0  0  0  0
   15.3758    1.3189   25.0698 H   0  0  0  0  0  0  0  0  0  0  0  0
   14.3676    0.1958   26.0170 H   0  0  0  0  0  0  0  0  0  0  0  0
    9.3974    1.2912   24.5523 H   0  0  0  0  0  0  0  0  0  0  0  0
    9.5159    2.2168   23.0553 H   0  0  0  0  0  0  0  0  0  0  0  0
    8.2278   -1.5705   21.0849 H   0  0  0  0  0  0  0  0  0  0  0  0
  1  2  1  0  0  0  0
  1  5  2  0  0  0  0
  2  6  2  0  0  0  0
  3  7  2  0  0  0  0
  3 11  1  0  0  0  0
  4  8  1  0  0  0  0
  4 11  2  0  0  0  0
  5 13  1  0  0  0  0
  6 14  1  0  0  0  0
  7 15  1  0  0  0  0
  8 15  2  0  0  0  0
  9 12  1  0  0  0  0
  9 20  2  0  0  0  0
 10 12  2  0  0  0  0
 10 23  1  0  0  0  0
 11 17  1  0  0  0  0
 12 19  1  0  0  0  0
 13 14  2  0  0  0  0
 13 21  1  0  0  0  0
 14 24  1  0  0  0  0
 15 26  1  0  0  0  0
 16 25  1  0  0  0  0
 16 26  1  0  0  0  0
 16 27  2  0  0  0  0
 18 23  1  0  0  0  0
 19 26  1  0  0  0  0
 20 23  1  0  0  0  0
 21 22  2  0  0  0  0
 22 24  1  0  0  0  0
 24 25  1  0  0  0  0
  1 28  1  0  0  0  0
  2 29  1  0  0  0  0
  3 30  1  0  0  0  0
  4 31  1  0  0  0  0
  5 32  1  0  0  0  0
  6 33  1  0  0  0  0
  7 34  1  0  0  0  0
  8 35  1  0  0  0  0
  9 36  1  0  0  0  0
 10 37  1  0  0  0  0
 17 38  1  0  0  0  0
 17 39  1  0  0  0  0
 17 40  1  0  0  0  0
 18 41  1  0  0  0  0
 18 42  1  0  0  0  0
 18 43  1  0  0  0  0
 19 44  1  0  0  0  0
 19 45  1  0  0  0  0
 25 46  1  0  0  0  0
M  END
> <clash_score>
0.619943645606779

> <docking_score>
-8.232418060302734

> <overlap_score>
0.9382389187812805

$$$$
BENZO_12_1
  -OEChem-08222022163D

 43 46  0     0  0  0  0  0  0999 V2000
    3.9160    2.0630   19.5520 C   0  0  0  0  0  0  0  0  0  0  0  0
    4.2750    1.7050   20.8490 C   0  0  0  0  0  0  0  0  0  0  0  0
    8.9960   -2.3380   25.5320 C   0  0  0  0  0  0  0  0  0  0  0  0
    9.6730   -3.4710   23.5300 C   0  0  0  0  0  0  0  0  0  0  0  0
    4.6890    1.6810   18.4640 C   0  0  0  0  0  0  0  0  0  0  0  0
    5.4210    0.9600   21.0930 C   0  0  0  0  0  0  0  0  0  0  0  0
    9.0720   -1.1280   24.8640 C   0  0  0  0  0  0  0  0  0  0  0  0
    9.7200   -2.2600   22.8630 C   0  0  0  0  0  0  0  0  0  0  0  0
   12.2111    0.2208   23.7905 C   0  0  0  0  0  0  0  0  0  0  0  0
   13.5412    0.5479   23.9363 C   0  0  0  0  0  0  0  0  0  0  0  0
   12.1057    2.5424   23.8305 C   0  0  0  0  0  0  0  0  0  0  0  0
    9.3070   -3.5340   24.8780 C   0  0  0  0  0  0  0  0  0  0  0  0
   11.3794    1.3761   23.7290 C   0  0  0  0  0  0  0  0  0  0  0  0
    5.8300    0.9190   18.6970 C   0  0  0  0  0  0  0  0  0  0  0  0
    6.1790    0.5730   19.9990 C   0  0  0  0  0  0  0  0  0  0  0  0
    9.3350   -1.0880   23.5010 C   0  0  0  0  0  0  0  0  0  0  0  0
    9.0420    0.3700   21.5280 C   0  0  0  0  0  0  0  0  0  0  0  0
    9.2505   -4.8264   25.5904 C   0  0  0  0  0  0  0  0  0  0  0  0
    9.8870    1.3260   23.5730 C   0  0  0  0  0  0  0  0  0  0  0  0
    6.7580    0.3810   17.8350 N   0  0  0  0  0  0  0  0  0  0  0  0
    7.6390   -0.2680   18.5410 N   0  0  0  0  0  0  0  0  0  0  0  0
    7.3170   -0.1610   19.8550 N   0  0  0  0  0  0  0  0  0  0  0  0
    8.1890   -0.7180   20.8700 N   0  0  0  0  0  0  0  0  0  0  0  0
    9.4560    0.1560   22.8130 N   0  0  0  0  0  0  0  0  0  0  0  0
    9.2690    1.4140   20.9380 O   0  0  0  0  0  0  0  0  0  0  0  0
   13.7831    2.2420   23.9988 S   0  0  0  0  0  0  0  0  0  0  0  0
    3.0136    2.6526   19.3908 H   0  0  0  0  0  0  0  0  0  0  0  0
    3.6480    2.0140   21.6821 H   0  0  0  0  0  0  0  0  0  0  0  0
    8.6919   -2.3557   26.5813 H   0  0  0  0  0  0  0  0  0  0  0  0
    9.9267   -4.3907   22.9939 H   0  0  0  0  0  0  0  0  0  0  0  0
    4.4042    1.9741   17.4524 H   0  0  0  0  0  0  0  0  0  0  0  0
    5.7089    0.6919   22.1150 H   0  0  0  0  0  0  0  0  0  0  0  0
    8.9217   -0.1995   25.4231 H   0  0  0  0  0  0  0  0  0  0  0  0
   10.0653   -2.2339   21.8256 H   0  0  0  0  0  0  0  0  0  0  0  0
   11.8558   -0.8003   23.7315 H   0  0  0  0  0  0  0  0  0  0  0  0
   14.3824   -0.1267   24.0100 H   0  0  0  0  0  0  0  0  0  0  0  0
   11.7354    3.5581   23.8155 H   0  0  0  0  0  0  0  0  0  0  0  0
    8.2503   -5.2678   25.5020 H   0  0  0  0  0  0  0  0  0  0  0  0
    9.9817   -5.5374   25.1845 H   0  0  0  0  0  0  0  0  0  0  0  0
    9.4841   -4.7043   26.6562 H   0  0  0  0  0  0  0  0  0  0  0  0
    9.3974    1.2912   24.5523 H   0  0  0  0  0  0  0  0  0  0  0  0
    9.5159    2.2168   23.0553 H   0  0  0  0  0  0  0  0  0  0  0  0
    8.2278   -1.5705   21.0849 H   0  0  0  0  0  0  0  0  0  0  0  0
  1  2  1  0  0  0  0
  1  5  2  0  0  0  0
  2  6  2  0  0  0  0
  3  7  2  0  0  0  0
  3 12  1  0  0  0  0
  4  8  1  0  0  0  0
  4 12  2  0  0  0  0
  5 14  1  0  0  0  0
  6 15  1  0  0  0  0
  7 16  1  0  0  0  0
  8 16  2  0  0  0  0
  9 10  2  0  0  0  0
  9 13  1  0  0  0  0
 10 26  1  0  0  0  0
 11 13  2  0  0  0  0
 11 26  1  0  0  0  0
 12 18  1  0  0  0  0
 13 19  1  0  0  0  0
 14 15  2  0  0  0  0
 14 20  1  0  0  0  0
 15 22  1  0  0  0  0
 16 24  1  0  0  0  0
 17 23  1  0  0  0  0
 17 24  1  0  0  0  0
 17 25  2  0  0  0  0
 19 24  1  0  0  0  0
 20 21  2  0  0  0  0
 21 22  1  0  0  0  0
 22 23  1  0  0  0  0
  1 27  1  0  0  0  0
  2 28  1  0  0  0  0
  3 29  1  0  0  0  0
  4 30  1  0  0  0  0
  5 31  1  0  0  0  0
  6 32  1  0  0  0  0
  7 33  1  0  0  0  0
  8 34  1  0  0  0  0
  9 35  1  0  0  0  0
 10 36  1  0  0  0  0
 11 37  1  0  0  0  0
 18 38  1  0  0  0  0
 18 39  1  0  0  0  0
 18 40  1  0  0  0  0
 19 41  1  0  0  0  0
 19 42  1  0  0  0  0
 23 43  1  0  0  0  0
M  END
> <clash_score>
0

> <docking_score>
-7.797576904296875

> <overlap_score>
0.924271285533905

$$$$
BENZO_14_1
  -OEChem-08222022163D

 46 49  0     0  0  0  0  0  0999 V2000
    3.9160    2.0630   19.5520 C   0  0  0  0  0  0  0  0  0  0  0  0
    4.2750    1.7050   20.8490 C   0  0  0  0  0  0  0  0  0  0  0  0
   13.4007    0.5725   24.7805 C   0  0  0  0  0  0  0  0  0  0  0  0
   12.0141    0.5273   24.6359 C   0  0  0  0  0  0  0  0  0  0  0  0
    8.9960   -2.3380   25.5320 C   0  0  0  0  0  0  0  0  0  0  0  0
    9.6730   -3.4710   23.5300 C   0  0  0  0  0  0  0  0  0  0  0  0
    4.6890    1.6810   18.4640 C   0  0  0  0  0  0  0  0  0  0  0  0
    5.4210    0.9600   21.0930 C   0  0  0  0  0  0  0  0  0  0  0  0
    9.0720   -1.1280   24.8640 C   0  0  0  0  0  0  0  0  0  0  0  0
    9.7200   -2.2600   22.8630 C   0  0  0  0  0  0  0  0  0  0  0  0
   14.1526    1.4666   24.0184 C   0  0  0  0  0  0  0  0  0  0  0  0
   12.1314    2.2702   22.9668 C   0  0  0  0  0  0  0  0  0  0  0  0
    9.3070   -3.5340   24.8780 C   0  0  0  0  0  0  0  0  0  0  0  0
   11.3794    1.3761   23.7290 C   0  0  0  0  0  0  0  0  0  0  0  0
    5.8300    0.9190   18.6970 C   0  0  0  0  0  0  0  0  0  0  0  0
    6.1790    0.5730   19.9990 C   0  0  0  0  0  0  0  0  0  0  0  0
    9.3350   -1.0880   23.5010 C   0  0  0  0  0  0  0  0  0  0  0  0
   13.5180    2.3154   23.1115 C   0  0  0  0  0  0  0  0  0  0  0  0
    9.0420    0.3700   21.5280 C   0  0  0  0  0  0  0  0  0  0  0  0
    9.2505   -4.8264   25.5904 C   0  0  0  0  0  0  0  0  0  0  0  0
    9.8870    1.3260   23.5730 C   0  0  0  0  0  0  0  0  0  0  0  0
    6.7580    0.3810   17.8350 N   0  0  0  0  0  0  0  0  0  0  0  0
    7.6390   -0.2680   18.5410 N   0  0  0  0  0  0  0  0  0  0  0  0
    7.3170   -0.1610   19.8550 N   0  0  0  0  0  0  0  0  0  0  0  0
    8.1890   -0.7180   20.8700 N   0  0  0  0  0  0  0  0  0  0  0  0
    9.4560    0.1560   22.8130 N   0  0  0  0  0  0  0  0  0  0  0  0
    9.2690    1.4140   20.9380 O   0  0  0  0  0  0  0  0  0  0  0  0
   14.4463    3.4175   22.1707 Cl  0  0  0  0  0  0  0  0  0  0  0  0
    3.0136    2.6526   19.3908 H   0  0  0  0  0  0  0  0  0  0  0  0
    3.6480    2.0140   21.6821 H   0  0  0  0  0  0  0  0  0  0  0  0
   13.8945   -0.0888   25.4867 H   0  0  0  0  0  0  0  0  0  0  0  0
   11.4361   -0.1726   25.2338 H   0  0  0  0  0  0  0  0  0  0  0  0
    8.6919   -2.3557   26.5813 H   0  0  0  0  0  0  0  0  0  0  0  0
    9.9267   -4.3907   22.9939 H   0  0  0  0  0  0  0  0  0  0  0  0
    4.4042    1.9741   17.4524 H   0  0  0  0  0  0  0  0  0  0  0  0
    5.7089    0.6919   22.1150 H   0  0  0  0  0  0  0  0  0  0  0  0
    8.9217   -0.1995   25.4231 H   0  0  0  0  0  0  0  0  0  0  0  0
   10.0653   -2.2339   21.8256 H   0  0  0  0  0  0  0  0  0  0  0  0
   15.2326    1.4907   24.1414 H   0  0  0  0  0  0  0  0  0  0  0  0
   11.6318    2.9303   22.2615 H   0  0  0  0  0  0  0  0  0  0  0  0
    8.2503   -5.2678   25.5020 H   0  0  0  0  0  0  0  0  0  0  0  0
    9.9817   -5.5374   25.1845 H   0  0  0  0  0  0  0  0  0  0  0  0
    9.4841   -4.7043   26.6562 H   0  0  0  0  0  0  0  0  0  0  0  0
    9.3974    1.2912   24.5523 H   0  0  0  0  0  0  0  0  0  0  0  0
    9.5159    2.2168   23.0553 H   0  0  0  0  0  0  0  0  0  0  0  0
    8.2278   -1.5705   21.0849 H   0  0  0  0  0  0  0  0  0  0  0  0
  1  2  1  0  0  0  0
  1  7  2  0  0  0  0
  2  8  2  0  0  0  0
  3  4  2  0  0  0  0
  3 11  1  0  0  0  0
  4 14  1  0  0  0  0
  5  9  2  0  0  0  0
  5 13  1  0  0  0  0
  6 10  1  0  0  0  0
  6 13  2  0  0  0  0
  7 15  1  0  0  0  0
  8 16  1  0  0  0  0
  9 17  1  0  0  0  0
 10 17  2  0  0  0  0
 11 18  2  0  0  0  0
 12 14  2  0  0  0  0
 12 18  1  0  0  0  0
 13 20  1  0  0  0  0
 14 21  1  0  0  0  0
 15 16  2  0  0  0  0
 15 22  1  0  0  0  0
 16 24  1  0  0  0  0
 17 26  1  0  0  0  0
 18 28  1  0  0  0  0
 19 25  1  0  0  0  0
 19 26  1  0  0  0  0
 19 27  2  0  0  0  0
 21 26  1  0  0  0  0
 22 23  2  0  0  0  0
 23 24  1  0  0  0  0
 24 25  1  0  0  0  0
  1 29  1  0  0  0  0
  2 30  1  0  0  0  0
  3 31  1  0  0  0  0
  4 32  1  0  0  0  0
  5 33  1  0  0  0  0
  6 34  1  0  0  0  0
  7 35  1  0  0  0  0
  8 36  1  0  0  0  0
  9 37  1  0  0  0  0
 10 38  1  0  0  0  0
 11 39  1  0  0  0  0
 12 40  1  0  0  0  0
 20 41  1  0  0  0  0
 20 42  1  0  0  0  0
 20 43  1  0  0  0  0
 21 44  1  0  0  0  0
 21 45  1  0  0  0  0
 25 46  1  0  0  0  0
M  END
> <clash_score>
0

> <docking_score>
-7.661375999450684

> <overlap_score>
0.9507184624671936

$$$$
BENZO_10_1
  -OEChem-08222022163D

 58 62  0     0  0  0  0  0  0999 V2000
    3.9160    2.0630   19.5520 C   0  0  0  0  0  0  0  0  0  0  0  0
    4.2750    1.7050   20.8490 C   0  0  0  0  0  0  0  0  0  0  0  0
   13.4007    0.5725   24.7805 C   0  0  0  0  0  0  0  0  0  0  0  0
   12.0141    0.5273   24.6359 C   0  0  0  0  0  0  0  0  0  0  0  0
    4.6890    1.6810   18.4640 C   0  0  0  0  0  0  0  0  0  0  0  0
    5.4210    0.9600   21.0930 C   0  0  0  0  0  0  0  0  0  0  0  0
    8.9960   -2.3380   25.5320 C   0  0  0  0  0  0  0  0  0  0  0  0
    9.6730   -3.4710   23.5300 C   0  0  0  0  0  0  0  0  0  0  0  0
    9.0720   -1.1280   24.8640 C   0  0  0  0  0  0  0  0  0  0  0  0
    9.7200   -2.2600   22.8630 C   0  0  0  0  0  0  0  0  0  0  0  0
   14.1526    1.4666   24.0184 C   0  0  0  0  0  0  0  0  0  0  0  0
   12.1314    2.2702   22.9668 C   0  0  0  0  0  0  0  0  0  0  0  0
   11.3794    1.3761   23.7290 C   0  0  0  0  0  0  0  0  0  0  0  0
    5.8300    0.9190   18.6970 C   0  0  0  0  0  0  0  0  0  0  0  0
    6.1790    0.5730   19.9990 C   0  0  0  0  0  0  0  0  0  0  0  0
    9.3070   -3.5340   24.8780 C   0  0  0  0  0  0  0  0  0  0  0  0
    9.3350   -1.0880   23.5010 C   0  0  0  0  0  0  0  0  0  0  0  0
   13.5180    2.3154   23.1115 C   0  0  0  0  0  0  0  0  0  0  0  0
    9.0420    0.3700   21.5280 C   0  0  0  0  0  0  0  0  0  0  0  0
    7.3635   -6.1361   27.1888 C   0  0  0  0  0  0  0  0  0  0  0  0
    8.1961   -4.9735   27.7341 C   0  0  0  0  0  0  0  0  0  0  0  0
    7.1942   -6.0394   25.6709 C   0  0  0  0  0  0  0  0  0  0  0  0
    9.5196   -4.8490   26.9797 C   0  0  0  0  0  0  0  0  0  0  0  0
    8.5442   -5.8838   24.9639 C   0  0  0  0  0  0  0  0  0  0  0  0
    9.8870    1.3260   23.5730 C   0  0  0  0  0  0  0  0  0  0  0  0
    6.7580    0.3810   17.8350 N   0  0  0  0  0  0  0  0  0  0  0  0
    7.6390   -0.2680   18.5410 N   0  0  0  0  0  0  0  0  0  0  0  0
    7.3170   -0.1610   19.8550 N   0  0  0  0  0  0  0  0  0  0  0  0
    9.2562   -4.7384   25.5422 N   0  0  0  0  0  0  0  0  0  0  0  0
    8.1890   -0.7180   20.8700 N   0  0  0  0  0  0  0  0  0  0  0  0
    9.4560    0.1560   22.8130 N   0  0  0  0  0  0  0  0  0  0  0  0
    9.2690    1.4140   20.9380 O   0  0  0  0  0  0  0  0  0  0  0  0
   14.4463    3.4175   22.1707 Cl  0  0  0  0  0  0  0  0  0  0  0  0
    3.0136    2.6526   19.3908 H   0  0  0  0  0  0  0  0  0  0  0  0
    3.6480    2.0140   21.6821 H   0  0  0  0  0  0  0  0  0  0  0  0
   13.8945   -0.0888   25.4867 H   0  0  0  0  0  0  0  0  0  0  0  0
   11.4361   -0.1726   25.2338 H   0  0  0  0  0  0  0  0  0  0  0  0
    4.4042    1.9741   17.4524 H   0  0  0  0  0  0  0  0  0  0  0  0
    5.7089    0.6919   22.1150 H   0  0  0  0  0  0  0  0  0  0  0  0
    8.6905   -2.3533   26.5810 H   0  0  0  0  0  0  0  0  0  0  0  0
    9.9266   -4.3896   22.9917 H   0  0  0  0  0  0  0  0  0  0  0  0
    8.9233   -0.1992   25.4231 H   0  0  0  0  0  0  0  0  0  0  0  0
   10.0650   -2.2330   21.8256 H   0  0  0  0  0  0  0  0  0  0  0  0
   15.2326    1.4907   24.1414 H   0  0  0  0  0  0  0  0  0  0  0  0
   11.6318    2.9303   22.2615 H   0  0  0  0  0  0  0  0  0  0  0  0
    7.8482   -7.0901   27.4469 H   0  0  0  0  0  0  0  0  0  0  0  0
    6.3760   -6.1438   27.6724 H   0  0  0  0  0  0  0  0  0  0  0  0
    7.6307   -4.0424   27.6403 H   0  0  0  0  0  0  0  0  0  0  0  0
    8.3915   -5.1310   28.7968 H   0  0  0  0  0  0  0  0  0  0  0  0
    6.6888   -6.9376   25.3010 H   0  0  0  0  0  0  0  0  0  0  0  0
    6.5515   -5.1859   25.4257 H   0  0  0  0  0  0  0  0  0  0  0  0
   10.0492   -3.9640   27.3414 H   0  0  0  0  0  0  0  0  0  0  0  0
   10.1431   -5.7254   27.1778 H   0  0  0  0  0  0  0  0  0  0  0  0
    9.1338   -6.7931   25.0868 H   0  0  0  0  0  0  0  0  0  0  0  0
    8.3656   -5.7264   23.8998 H   0  0  0  0  0  0  0  0  0  0  0  0
    9.3974    1.2912   24.5523 H   0  0  0  0  0  0  0  0  0  0  0  0
    9.5159    2.2168   23.0553 H   0  0  0  0  0  0  0  0  0  0  0  0
    8.2565   -1.5523   21.1108 H   0  0  0  0  0  0  0  0  0  0  0  0
  1  2  1  0  0  0  0
  1  5  2  0  0  0  0
  2  6  2  0  0  0  0
  3  4  2  0  0  0  0
  3 11  1  0  0  0  0
  4 13  1  0  0  0  0
  5 14  1  0  0  0  0
  6 15  1  0  0  0  0
  7  9  2  0  0  0  0
  7 16  1  0  0  0  0
  8 10  1  0  0  0  0
  8 16  2  0  0  0  0
  9 17  1  0  0  0  0
 10 17  2  0  0  0  0
 11 18  2  0  0  0  0
 12 13  2  0  0  0  0
 12 18  1  0  0  0  0
 13 25  1  0  0  0  0
 14 15  2  0  0  0  0
 14 26  1  0  0  0  0
 15 28  1  0  0  0  0
 16 29  1  0  0  0  0
 17 31  1  0  0  0  0
 18 33  1  0  0  0  0
 19 30  1  0  0  0  0
 19 31  1  0  0  0  0
 19 32  2  0  0  0  0
 20 21  1  0  0  0  0
 20 22  1  0  0  0  0
 21 23  1  0  0  0  0
 22 24  1  0  0  0  0
 23 29  1  0  0  0  0
 24 29  1  0  0  0  0
 25 31  1  0  0  0  0
 26 27  2  0  0  0  0
 27 28  1  0  0  0  0
 28 30  1  0  0  0  0
  1 34  1  0  0  0  0
  2 35  1  0  0  0  0
  3 36  1  0  0  0  0
  4 37  1  0  0  0  0
  5 38  1  0  0  0  0
  6 39  1  0  0  0  0
  7 40  1  0  0  0  0
  8 41  1  0  0  0  0
  9 42  1  0  0  0  0
 10 43  1  0  0  0  0
 11 44  1  0  0  0  0
 12 45  1  0  0  0  0
 20 46  1  0  0  0  0
 20 47  1  0  0  0  0
 21 48  1  0  0  0  0
 21 49  1  0  0  0  0
 22 50  1  0  0  0  0
 22 51  1  0  0  0  0
 23 52  1  0  0  0  0
 23 53  1  0  0  0  0
 24 54  1  0  0  0  0
 24 55  1  0  0  0  0
 25 56  1  0  0  0  0
 25 57  1  0  0  0  0
 30 58  1  0  0  0  0
M  END
> <clash_score>
0

> <docking_score>
-7.416352272033691

> <overlap_score>
1.004274845123291

$$$$
BENZO_11_1
  -OEChem-08222022163D

 58 62  0     0  0  0  0  0  0999 V2000
    3.9160    2.0630   19.5520 C   0  0  0  0  0  0  0  0  0  0  0  0
    4.2750    1.7050   20.8490 C   0  0  0  0  0  0  0  0  0  0  0  0
    4.6890    1.6810   18.4640 C   0  0  0  0  0  0  0  0  0  0  0  0
    5.4210    0.9600   21.0930 C   0  0  0  0  0  0  0  0  0  0  0  0
    8.9960   -2.3380   25.5320 C   0  0  0  0  0  0  0  0  0  0  0  0
    9.6730   -3.4710   23.5300 C   0  0  0  0  0  0  0  0  0  0  0  0
    9.0720   -1.1280   24.8640 C   0  0  0  0  0  0  0  0  0  0  0  0
    9.7200   -2.2600   22.8630 C   0  0  0  0  0  0  0  0  0  0  0  0
   12.1233    1.3811   24.9242 C   0  0  0  0  0  0  0  0  0  0  0  0
   12.3262    1.4247   22.7351 C   0  0  0  0  0  0  0  0  0  0  0  0
   11.3794    1.3761   23.7290 C   0  0  0  0  0  0  0  0  0  0  0  0
    5.8300    0.9190   18.6970 C   0  0  0  0  0  0  0  0  0  0  0  0
    6.1790    0.5730   19.9990 C   0  0  0  0  0  0  0  0  0  0  0  0
    9.3070   -3.5340   24.8780 C   0  0  0  0  0  0  0  0  0  0  0  0
    9.3350   -1.0880   23.5010 C   0  0  0  0  0  0  0  0  0  0  0  0
    9.0420    0.3700   21.5280 C   0  0  0  0  0  0  0  0  0  0  0  0
    7.3635   -6.1361   27.1888 C   0  0  0  0  0  0  0  0  0  0  0  0
    8.1961   -4.9735   27.7341 C   0  0  0  0  0  0  0  0  0  0  0  0
    7.1942   -6.0394   25.6709 C   0  0  0  0  0  0  0  0  0  0  0  0
    9.5196   -4.8490   26.9797 C   0  0  0  0  0  0  0  0  0  0  0  0
    8.5442   -5.8838   24.9639 C   0  0  0  0  0  0  0  0  0  0  0  0
   14.8305    1.5084   22.7418 C   0  0  0  0  0  0  0  0  0  0  0  0
    9.8870    1.3260   23.5730 C   0  0  0  0  0  0  0  0  0  0  0  0
   13.4410    1.4289   24.7112 N   0  0  0  0  0  0  0  0  0  0  0  0
    6.7580    0.3810   17.8350 N   0  0  0  0  0  0  0  0  0  0  0  0
    7.6390   -0.2680   18.5410 N   0  0  0  0  0  0  0  0  0  0  0  0
   13.5326    1.4543   23.3706 N   0  0  0  0  0  0  0  0  0  0  0  0
    7.3170   -0.1610   19.8550 N   0  0  0  0  0  0  0  0  0  0  0  0
    9.2562   -4.7384   25.5422 N   0  0  0  0  0  0  0  0  0  0  0  0
    8.1890   -0.7180   20.8700 N   0  0  0  0  0  0  0  0  0  0  0  0
    9.4560    0.1560   22.8130 N   0  0  0  0  0  0  0  0  0  0  0  0
    9.2690    1.4140   20.9380 O   0  0  0  0  0  0  0  0  0  0  0  0
    3.0136    2.6526   19.3908 H   0  0  0  0  0  0  0  0  0  0  0  0
    3.6480    2.0140   21.6821 H   0  0  0  0  0  0  0  0  0  0  0  0
    4.4042    1.9741   17.4524 H   0  0  0  0  0  0  0  0  0  0  0  0
    5.7089    0.6919   22.1150 H   0  0  0  0  0  0  0  0  0  0  0  0
    8.6905   -2.3533   26.5810 H   0  0  0  0  0  0  0  0  0  0  0  0
    9.9266   -4.3896   22.9917 H   0  0  0  0  0  0  0  0  0  0  0  0
    8.9233   -0.1992   25.4231 H   0  0  0  0  0  0  0  0  0  0  0  0
   10.0650   -2.2330   21.8256 H   0  0  0  0  0  0  0  0  0  0  0  0
   11.7624    1.3510   25.9426 H   0  0  0  0  0  0  0  0  0  0  0  0
   12.2462    1.4390   21.6566 H   0  0  0  0  0  0  0  0  0  0  0  0
    7.8482   -7.0901   27.4469 H   0  0  0  0  0  0  0  0  0  0  0  0
    6.3760   -6.1438   27.6724 H   0  0  0  0  0  0  0  0  0  0  0  0
    7.6307   -4.0424   27.6403 H   0  0  0  0  0  0  0  0  0  0  0  0
    8.3915   -5.1310   28.7968 H   0  0  0  0  0  0  0  0  0  0  0  0
    6.6888   -6.9376   25.3010 H   0  0  0  0  0  0  0  0  0  0  0  0
    6.5515   -5.1859   25.4257 H   0  0  0  0  0  0  0  0  0  0  0  0
   10.0492   -3.9640   27.3414 H   0  0  0  0  0  0  0  0  0  0  0  0
   10.1431   -5.7254   27.1778 H   0  0  0  0  0  0  0  0  0  0  0  0
    9.1338   -6.7931   25.0868 H   0  0  0  0  0  0  0  0  0  0  0  0
    8.3656   -5.7264   23.8998 H   0  0  0  0  0  0  0  0  0  0  0  0
   15.0990    2.5601   22.6124 H   0  0  0  0  0  0  0  0  0  0  0  0
   15.5636    1.0018   23.3756 H   0  0  0  0  0  0  0  0  0  0  0  0
   14.7841    1.0025   21.7733 H   0  0  0  0  0  0  0  0  0  0  0  0
    9.3974    1.2912   24.5523 H   0  0  0  0  0  0  0  0  0  0  0  0
    9.5159    2.2168   23.0553 H   0  0  0  0  0  0  0  0  0  0  0  0
    8.2565   -1.5523   21.1108 H   0  0  0  0  0  0  0  0  0  0  0  0
  1  2  1  0  0  0  0
  1  3  2  0  0  0  0
  2  4  2  0  0  0  0
  3 12  1  0  0  0  0
  4 13  1  0  0  0  0
  5  7  2  0  0  0  0
  5 14  1  0  0  0  0
  6  8  1  0  0  0  0
  6 14  2  0  0  0  0
  7 15  1  0  0  0  0
  8 15  2  0  0  0  0
  9 11  1  0  0  0  0
  9 24  2  0  0  0  0
 10 11  2  0  0  0  0
 10 27  1  0  0  0  0
 11 23  1  0  0  0  0
 12 13  2  0  0  0  0
 12 25  1  0  0  0  0
 13 28  1  0  0  0  0
 14 29  1  0  0  0  0
 15 31  1  0  0  0  0
 16 30  1  0  0  0  0
 16 31  1  0  0  0  0
 16 32  2  0  0  0  0
 17 18  1  0  0  0  0
 17 19  1  0  0  0  0
 18 20  1  0  0  0  0
 19 21  1  0  0  0  0
 20 29  1  0  0  0  0
 21 29  1  0  0  0  0
 22 27  1  0  0  0  0
 23 31  1  0  0  0  0
 24 27  1  0  0  0  0
 25 26  2  0  0  0  0
 26 28  1  0  0  0  0
 28 30  1  0  0  0  0
  1 33  1  0  0  0  0
  2 34  1  0  0  0  0
  3 35  1  0  0  0  0
  4 36  1  0  0  0  0
  5 37  1  0  0  0  0
  6 38  1  0  0  0  0
  7 39  1  0  0  0  0
  8 40  1  0  0  0  0
  9 41  1  0  0  0  0
 10 42  1  0  0  0  0
 17 43  1  0  0  0  0
 17 44  1  0  0  0  0
 18 45  1  0  0  0  0
 18 46  1  0  0  0  0
 19 47  1  0  0  0  0
 19 48  1  0  0  0  0
 20 49  1  0  0  0  0
 20 50  1  0  0  0  0
 21 51  1  0  0  0  0
 21 52  1  0  0  0  0
 22 53  1  0  0  0  0
 22 54  1  0  0  0  0
 22 55  1  0  0  0  0
 23 56  1  0  0  0  0
 23 57  1  0  0  0  0
 30 58  1  0  0  0  0
M  END
> <clash_score>
0

> <docking_score>
-7.995509147644043

> <overlap_score>
0.9881091117858887

$$$$
BENZO_17_1
  -OEChem-08222022163D

 47 50  0     0  0  0  0  0  0999 V2000
   14.1526    1.4694   24.0176 C   0  0  0  0  0  0  0  0  0  0  0  0
   13.3741    0.8121   24.9701 C   0  0  0  0  0  0  0  0  0  0  0  0
   13.5446    2.0802   22.9208 C   0  0  0  0  0  0  0  0  0  0  0  0
    3.9160    2.0630   19.5520 C   0  0  0  0  0  0  0  0  0  0  0  0
    4.2750    1.7050   20.8490 C   0  0  0  0  0  0  0  0  0  0  0  0
   11.9875    0.7654   24.8258 C   0  0  0  0  0  0  0  0  0  0  0  0
   12.1580    2.0335   22.7765 C   0  0  0  0  0  0  0  0  0  0  0  0
    4.6890    1.6810   18.4640 C   0  0  0  0  0  0  0  0  0  0  0  0
    5.4210    0.9600   21.0930 C   0  0  0  0  0  0  0  0  0  0  0  0
    9.0720   -1.1280   24.8640 C   0  0  0  0  0  0  0  0  0  0  0  0
    9.7200   -2.2600   22.8630 C   0  0  0  0  0  0  0  0  0  0  0  0
    8.9960   -2.3380   25.5320 C   0  0  0  0  0  0  0  0  0  0  0  0
    9.6730   -3.4710   23.5300 C   0  0  0  0  0  0  0  0  0  0  0  0
   11.3794    1.3761   23.7290 C   0  0  0  0  0  0  0  0  0  0  0  0
    5.8300    0.9190   18.6970 C   0  0  0  0  0  0  0  0  0  0  0  0
    6.1790    0.5730   19.9990 C   0  0  0  0  0  0  0  0  0  0  0  0
    9.3350   -1.0880   23.5010 C   0  0  0  0  0  0  0  0  0  0  0  0
    9.3070   -3.5340   24.8780 C   0  0  0  0  0  0  0  0  0  0  0  0
    9.0420    0.3700   21.5280 C   0  0  0  0  0  0  0  0  0  0  0  0
    9.5894   -5.8809   24.7798 C   0  0  0  0  0  0  0  0  0  0  0  0
    9.8870    1.3260   23.5730 C   0  0  0  0  0  0  0  0  0  0  0  0
    6.7580    0.3810   17.8350 N   0  0  0  0  0  0  0  0  0  0  0  0
    7.6390   -0.2680   18.5410 N   0  0  0  0  0  0  0  0  0  0  0  0
    7.3170   -0.1610   19.8550 N   0  0  0  0  0  0  0  0  0  0  0  0
    8.1890   -0.7180   20.8700 N   0  0  0  0  0  0  0  0  0  0  0  0
    9.4560    0.1560   22.8130 N   0  0  0  0  0  0  0  0  0  0  0  0
    9.2690    1.4140   20.9380 O   0  0  0  0  0  0  0  0  0  0  0  0
    9.2555   -4.7124   25.5274 O   0  0  0  0  0  0  0  0  0  0  0  0
   15.2322    1.5068   24.1308 H   0  0  0  0  0  0  0  0  0  0  0  0
   13.8473    0.3374   25.8248 H   0  0  0  0  0  0  0  0  0  0  0  0
   14.1503    2.5930   22.1795 H   0  0  0  0  0  0  0  0  0  0  0  0
    3.0136    2.6526   19.3908 H   0  0  0  0  0  0  0  0  0  0  0  0
    3.6480    2.0140   21.6821 H   0  0  0  0  0  0  0  0  0  0  0  0
   11.3889    0.2508   25.5729 H   0  0  0  0  0  0  0  0  0  0  0  0
   11.6930    2.5120   21.9187 H   0  0  0  0  0  0  0  0  0  0  0  0
    4.4042    1.9741   17.4524 H   0  0  0  0  0  0  0  0  0  0  0  0
    5.7089    0.6919   22.1150 H   0  0  0  0  0  0  0  0  0  0  0  0
    8.9221   -0.1995   25.4231 H   0  0  0  0  0  0  0  0  0  0  0  0
   10.0642   -2.2347   21.8253 H   0  0  0  0  0  0  0  0  0  0  0  0
    8.6902   -2.3588   26.5805 H   0  0  0  0  0  0  0  0  0  0  0  0
    9.9254   -4.3921   22.9961 H   0  0  0  0  0  0  0  0  0  0  0  0
    9.5074   -6.7611   25.4222 H   0  0  0  0  0  0  0  0  0  0  0  0
   10.6088   -5.7902   24.3963 H   0  0  0  0  0  0  0  0  0  0  0  0
    8.8944   -5.9778   23.9424 H   0  0  0  0  0  0  0  0  0  0  0  0
    9.3974    1.2912   24.5523 H   0  0  0  0  0  0  0  0  0  0  0  0
    9.5159    2.2168   23.0553 H   0  0  0  0  0  0  0  0  0  0  0  0
    8.2278   -1.5705   21.0849 H   0  0  0  0  0  0  0  0  0  0  0  0
  1  2  1  0  0  0  0
  1  3  2  0  0  0  0
  2  6  2  0  0  0  0
  3  7  1  0  0  0  0
  4  5  1  0  0  0  0
  4  8  2  0  0  0  0
  5  9  2  0  0  0  0
  6 14  1  0  0  0  0
  7 14  2  0  0  0  0
  8 15  1  0  0  0  0
  9 16  1  0  0  0  0
 10 12  2  0  0  0  0
 10 17  1  0  0  0  0
 11 13  1  0  0  0  0
 11 17  2  0  0  0  0
 12 18  1  0  0  0  0
 13 18  2  0  0  0  0
 14 21  1  0  0  0  0
 15 16  2  0  0  0  0
 15 22  1  0  0  0  0
 16 24  1  0  0  0  0
 17 26  1  0  0  0  0
 18 28  1  0  0  0  0
 19 25  1  0  0  0  0
 19 26  1  0  0  0  0
 19 27  2  0  0  0  0
 20 28  1  0  0  0  0
 21 26  1  0  0  0  0
 22 23  2  0  0  0  0
 23 24  1  0  0  0  0
 24 25  1  0  0  0  0
  1 29  1  0  0  0  0
  2 30  1  0  0  0  0
  3 31  1  0  0  0  0
  4 32  1  0  0  0  0
  5 33  1  0  0  0  0
  6 34  1  0  0  0  0
  7 35  1  0  0  0  0
  8 36  1  0  0  0  0
  9 37  1  0  0  0  0
 10 38  1  0  0  0  0
 11 39  1  0  0  0  0
 12 40  1  0  0  0  0
 13 41  1  0  0  0  0
 20 42  1  0  0  0  0
 20 43  1  0  0  0  0
 20 44  1  0  0  0  0
 21 45  1  0  0  0  0
 21 46  1  0  0  0  0
 25 47  1  0  0  0  0
M  END
> <clash_score>
0

> <docking_score>
-8.230517387390137

> <overlap_score>
0.96425461769104

$$$$
BENZO_16_1
  -OEChem-08222022163D

 44 47  0     0  0  0  0  0  0999 V2000
    3.9160    2.0630   19.5520 C   0  0  0  0  0  0  0  0  0  0  0  0
    4.2750    1.7050   20.8490 C   0  0  0  0  0  0  0  0  0  0  0  0
    4.6890    1.6810   18.4640 C   0  0  0  0  0  0  0  0  0  0  0  0
    5.4210    0.9600   21.0930 C   0  0  0  0  0  0  0  0  0  0  0  0
    9.0720   -1.1280   24.8640 C   0  0  0  0  0  0  0  0  0  0  0  0
    9.7200   -2.2600   22.8630 C   0  0  0  0  0  0  0  0  0  0  0  0
    8.9960   -2.3380   25.5320 C   0  0  0  0  0  0  0  0  0  0  0  0
    9.6730   -3.4710   23.5300 C   0  0  0  0  0  0  0  0  0  0  0  0
   12.2111    0.2208   23.7905 C   0  0  0  0  0  0  0  0  0  0  0  0
   13.5412    0.5479   23.9363 C   0  0  0  0  0  0  0  0  0  0  0  0
   12.1057    2.5424   23.8305 C   0  0  0  0  0  0  0  0  0  0  0  0
   11.3794    1.3761   23.7290 C   0  0  0  0  0  0  0  0  0  0  0  0
    5.8300    0.9190   18.6970 C   0  0  0  0  0  0  0  0  0  0  0  0
    6.1790    0.5730   19.9990 C   0  0  0  0  0  0  0  0  0  0  0  0
    9.3350   -1.0880   23.5010 C   0  0  0  0  0  0  0  0  0  0  0  0
    9.3070   -3.5340   24.8780 C   0  0  0  0  0  0  0  0  0  0  0  0
    9.0420    0.3700   21.5280 C   0  0  0  0  0  0  0  0  0  0  0  0
    9.5894   -5.8809   24.7798 C   0  0  0  0  0  0  0  0  0  0  0  0
    9.8870    1.3260   23.5730 C   0  0  0  0  0  0  0  0  0  0  0  0
    6.7580    0.3810   17.8350 N   0  0  0  0  0  0  0  0  0  0  0  0
    7.6390   -0.2680   18.5410 N   0  0  0  0  0  0  0  0  0  0  0  0
    7.3170   -0.1610   19.8550 N   0  0  0  0  0  0  0  0  0  0  0  0
    8.1890   -0.7180   20.8700 N   0  0  0  0  0  0  0  0  0  0  0  0
    9.4560    0.1560   22.8130 N   0  0  0  0  0  0  0  0  0  0  0  0
    9.2690    1.4140   20.9380 O   0  0  0  0  0  0  0  0  0  0  0  0
    9.2555   -4.7124   25.5274 O   0  0  0  0  0  0  0  0  0  0  0  0
   13.7831    2.2420   23.9988 S   0  0  0  0  0  0  0  0  0  0  0  0
    3.0136    2.6526   19.3908 H   0  0  0  0  0  0  0  0  0  0  0  0
    3.6480    2.0140   21.6821 H   0  0  0  0  0  0  0  0  0  0  0  0
    4.4042    1.9741   17.4524 H   0  0  0  0  0  0  0  0  0  0  0  0
    5.7089    0.6919   22.1150 H   0  0  0  0  0  0  0  0  0  0  0  0
    8.9221   -0.1995   25.4231 H   0  0  0  0  0  0  0  0  0  0  0  0
   10.0642   -2.2347   21.8253 H   0  0  0  0  0  0  0  0  0  0  0  0
    8.6902   -2.3588   26.5805 H   0  0  0  0  0  0  0  0  0  0  0  0
    9.9254   -4.3921   22.9961 H   0  0  0  0  0  0  0  0  0  0  0  0
   11.8558   -0.8003   23.7315 H   0  0  0  0  0  0  0  0  0  0  0  0
   14.3824   -0.1267   24.0100 H   0  0  0  0  0  0  0  0  0  0  0  0
   11.7354    3.5581   23.8155 H   0  0  0  0  0  0  0  0  0  0  0  0
    9.5074   -6.7611   25.4222 H   0  0  0  0  0  0  0  0  0  0  0  0
   10.6088   -5.7902   24.3963 H   0  0  0  0  0  0  0  0  0  0  0  0
    8.8944   -5.9778   23.9424 H   0  0  0  0  0  0  0  0  0  0  0  0
    9.3974    1.2912   24.5523 H   0  0  0  0  0  0  0  0  0  0  0  0
    9.5159    2.2168   23.0553 H   0  0  0  0  0  0  0  0  0  0  0  0
    8.2278   -1.5705   21.0849 H   0  0  0  0  0  0  0  0  0  0  0  0
  1  2  1  0  0  0  0
  1  3  2  0  0  0  0
  2  4  2  0  0  0  0
  3 13  1  0  0  0  0
  4 14  1  0  0  0  0
  5  7  2  0  0  0  0
  5 15  1  0  0  0  0
  6  8  1  0  0  0  0
  6 15  2  0  0  0  0
  7 16  1  0  0  0  0
  8 16  2  0  0  0  0
  9 10  2  0  0  0  0
  9 12  1  0  0  0  0
 10 27  1  0  0  0  0
 11 12  2  0  0  0  0
 11 27  1  0  0  0  0
 12 19  1  0  0  0  0
 13 14  2  0  0  0  0
 13 20  1  0  0  0  0
 14 22  1  0  0  0  0
 15 24  1  0  0  0  0
 16 26  1  0  0  0  0
 17 23  1  0  0  0  0
 17 24  1  0  0  0  0
 17 25  2  0  0  0  0
 18 26  1  0  0  0  0
 19 24  1  0  0  0  0
 20 21  2  0  0  0  0
 21 22  1  0  0  0  0
 22 23  1  0  0  0  0
  1 28  1  0  0  0  0
  2 29  1  0  0  0  0
  3 30  1  0  0  0  0
  4 31  1  0  0  0  0
  5 32  1  0  0  0  0
  6 33  1  0  0  0  0
  7 34  1  0  0  0  0
  8 35  1  0  0  0  0
  9 36  1  0  0  0  0
 10 37  1  0  0  0  0
 11 38  1  0  0  0  0
 18 39  1  0  0  0  0
 18 40  1  0  0  0  0
 18 41  1  0  0  0  0
 19 42  1  0  0  0  0
 19 43  1  0  0  0  0
 23 44  1  0  0  0  0
M  END
> <clash_score>
0

> <docking_score>
-7.503689289093018

> <overlap_score>
0.9491583108901978

$$$$
BENZO_18_1
  -OEChem-08222022163D

 47 50  0     0  0  0  0  0  0999 V2000
    3.9160    2.0630   19.5520 C   0  0  0  0  0  0  0  0  0  0  0  0
    4.2750    1.7050   20.8490 C   0  0  0  0  0  0  0  0  0  0  0  0
   13.4007    0.5725   24.7805 C   0  0  0  0  0  0  0  0  0  0  0  0
   12.0141    0.5273   24.6359 C   0  0  0  0  0  0  0  0  0  0  0  0
    4.6890    1.6810   18.4640 C   0  0  0  0  0  0  0  0  0  0  0  0
    5.4210    0.9600   21.0930 C   0  0  0  0  0  0  0  0  0  0  0  0
    9.0720   -1.1280   24.8640 C   0  0  0  0  0  0  0  0  0  0  0  0
    9.7200   -2.2600   22.8630 C   0  0  0  0  0  0  0  0  0  0  0  0
    8.9960   -2.3380   25.5320 C   0  0  0  0  0  0  0  0  0  0  0  0
    9.6730   -3.4710   23.5300 C   0  0  0  0  0  0  0  0  0  0  0  0
   14.1526    1.4666   24.0184 C   0  0  0  0  0  0  0  0  0  0  0  0
   12.1314    2.2702   22.9668 C   0  0  0  0  0  0  0  0  0  0  0  0
   11.3794    1.3761   23.7290 C   0  0  0  0  0  0  0  0  0  0  0  0
    5.8300    0.9190   18.6970 C   0  0  0  0  0  0  0  0  0  0  0  0
    6.1790    0.5730   19.9990 C   0  0  0  0  0  0  0  0  0  0  0  0
    9.3350   -1.0880   23.5010 C   0  0  0  0  0  0  0  0  0  0  0  0
    9.3070   -3.5340   24.8780 C   0  0  0  0  0  0  0  0  0  0  0  0
   13.5180    2.3154   23.1115 C   0  0  0  0  0  0  0  0  0  0  0  0
    9.0420    0.3700   21.5280 C   0  0  0  0  0  0  0  0  0  0  0  0
    8.8720   -4.6805   26.9013 C   0  0  0  0  0  0  0  0  0  0  0  0
    9.8870    1.3260   23.5730 C   0  0  0  0  0  0  0  0  0  0  0  0
    6.7580    0.3810   17.8350 N   0  0  0  0  0  0  0  0  0  0  0  0
    7.6390   -0.2680   18.5410 N   0  0  0  0  0  0  0  0  0  0  0  0
    7.3170   -0.1610   19.8550 N   0  0  0  0  0  0  0  0  0  0  0  0
    8.1890   -0.7180   20.8700 N   0  0  0  0  0  0  0  0  0  0  0  0
    9.4560    0.1560   22.8130 N   0  0  0  0  0  0  0  0  0  0  0  0
    9.2690    1.4140   20.9380 O   0  0  0  0  0  0  0  0  0  0  0  0
    9.2555   -4.7124   25.5274 O   0  0  0  0  0  0  0  0  0  0  0  0
   14.4463    3.4175   22.1707 Cl  0  0  0  0  0  0  0  0  0  0  0  0
    3.0136    2.6526   19.3908 H   0  0  0  0  0  0  0  0  0  0  0  0
    3.6480    2.0140   21.6821 H   0  0  0  0  0  0  0  0  0  0  0  0
   13.8945   -0.0888   25.4867 H   0  0  0  0  0  0  0  0  0  0  0  0
   11.4361   -0.1726   25.2338 H   0  0  0  0  0  0  0  0  0  0  0  0
    4.4042    1.9741   17.4524 H   0  0  0  0  0  0  0  0  0  0  0  0
    5.7089    0.6919   22.1150 H   0  0  0  0  0  0  0  0  0  0  0  0
    8.9221   -0.1995   25.4231 H   0  0  0  0  0  0  0  0  0  0  0  0
   10.0642   -2.2347   21.8253 H   0  0  0  0  0  0  0  0  0  0  0  0
    8.6902   -2.3588   26.5805 H   0  0  0  0  0  0  0  0  0  0  0  0
    9.9254   -4.3921   22.9961 H   0  0  0  0  0  0  0  0  0  0  0  0
   15.2326    1.4907   24.1414 H   0  0  0  0  0  0  0  0  0  0  0  0
   11.6318    2.9303   22.2615 H   0  0  0  0  0  0  0  0  0  0  0  0
    8.8711   -5.6964   27.3038 H   0  0  0  0  0  0  0  0  0  0  0  0
    7.8758   -4.2402   26.9923 H   0  0  0  0  0  0  0  0  0  0  0  0
    9.5894   -4.0716   27.4566 H   0  0  0  0  0  0  0  0  0  0  0  0
    9.3974    1.2912   24.5523 H   0  0  0  0  0  0  0  0  0  0  0  0
    9.5159    2.2168   23.0553 H   0  0  0  0  0  0  0  0  0  0  0  0
    8.2278   -1.5705   21.0849 H   0  0  0  0  0  0  0  0  0  0  0  0
  1  2  1  0  0  0  0
  1  5  2  0  0  0  0
  2  6  2  0  0  0  0
  3  4  2  0  0  0  0
  3 11  1  0  0  0  0
  4 13  1  0  0  0  0
  5 14  1  0  0  0  0
  6 15  1  0  0  0  0
  7  9  2  0  0  0  0
  7 16  1  0  0  0  0
  8 10  1  0  0  0  0
  8 16  2  0  0  0  0
  9 17  1  0  0  0  0
 10 17  2  0  0  0  0
 11 18  2  0  0  0  0
 12 13  2  0  0  0  0
 12 18  1  0  0  0  0
 13 21  1  0  0  0  0
 14 15  2  0  0  0  0
 14 22  1  0  0  0  0
 15 24  1  0  0  0  0
 16 26  1  0  0  0  0
 17 28  1  0  0  0  0
 18 29  1  0  0  0  0
 19 25  1  0  0  0  0
 19 26  1  0  0  0  0
 19 27  2  0  0  0  0
 20 28  1  0  0  0  0
 21 26  1  0  0  0  0
 22 23  2  0  0  0  0
 23 24  1  0  0  0  0
 24 25  1  0  0  0  0
  1 30  1  0  0  0  0
  2 31  1  0  0  0  0
  3 32  1  0  0  0  0
  4 33  1  0  0  0  0
  5 34  1  0  0  0  0
  6 35  1  0  0  0  0
  7 36  1  0  0  0  0
  8 37  1  0  0  0  0
  9 38  1  0  0  0  0
 10 39  1  0  0  0  0
 11 40  1  0  0  0  0
 12 41  1  0  0  0  0
 20 42  1  0  0  0  0
 20 43  1  0  0  0  0
 20 44  1  0  0  0  0
 21 45  1  0  0  0  0
 21 46  1  0  0  0  0
 25 47  1  0  0  0  0
M  END
> <clash_score>
0

> <docking_score>
-7.397683143615723

> <overlap_score>
0.9730233550071716

$$$$
BENZO_19_1
  -OEChem-08222022163D

 47 50  0     0  0  0  0  0  0999 V2000
    3.9160    2.0630   19.5520 C   0  0  0  0  0  0  0  0  0  0  0  0
    4.2750    1.7050   20.8490 C   0  0  0  0  0  0  0  0  0  0  0  0
    4.6890    1.6810   18.4640 C   0  0  0  0  0  0  0  0  0  0  0  0
    5.4210    0.9600   21.0930 C   0  0  0  0  0  0  0  0  0  0  0  0
    9.0720   -1.1280   24.8640 C   0  0  0  0  0  0  0  0  0  0  0  0
    9.7200   -2.2600   22.8630 C   0  0  0  0  0  0  0  0  0  0  0  0
    8.9960   -2.3380   25.5320 C   0  0  0  0  0  0  0  0  0  0  0  0
    9.6730   -3.4710   23.5300 C   0  0  0  0  0  0  0  0  0  0  0  0
   12.2914    2.2071   23.0512 C   0  0  0  0  0  0  0  0  0  0  0  0
   12.1614    0.6214   24.5689 C   0  0  0  0  0  0  0  0  0  0  0  0
   11.3794    1.3761   23.7290 C   0  0  0  0  0  0  0  0  0  0  0  0
    5.8300    0.9190   18.6970 C   0  0  0  0  0  0  0  0  0  0  0  0
    6.1790    0.5730   19.9990 C   0  0  0  0  0  0  0  0  0  0  0  0
    9.3350   -1.0880   23.5010 C   0  0  0  0  0  0  0  0  0  0  0  0
    9.3070   -3.5340   24.8780 C   0  0  0  0  0  0  0  0  0  0  0  0
    9.0420    0.3700   21.5280 C   0  0  0  0  0  0  0  0  0  0  0  0
   14.6267    0.5248   25.0067 C   0  0  0  0  0  0  0  0  0  0  0  0
    8.8720   -4.6805   26.9013 C   0  0  0  0  0  0  0  0  0  0  0  0
    9.8870    1.3260   23.5730 C   0  0  0  0  0  0  0  0  0  0  0  0
   13.5560    2.0002   23.4280 N   0  0  0  0  0  0  0  0  0  0  0  0
    6.7580    0.3810   17.8350 N   0  0  0  0  0  0  0  0  0  0  0  0
    7.6390   -0.2680   18.5410 N   0  0  0  0  0  0  0  0  0  0  0  0
   13.4442    1.0306   24.3518 N   0  0  0  0  0  0  0  0  0  0  0  0
    7.3170   -0.1610   19.8550 N   0  0  0  0  0  0  0  0  0  0  0  0
    8.1890   -0.7180   20.8700 N   0  0  0  0  0  0  0  0  0  0  0  0
    9.4560    0.1560   22.8130 N   0  0  0  0  0  0  0  0  0  0  0  0
    9.2690    1.4140   20.9380 O   0  0  0  0  0  0  0  0  0  0  0  0
    9.2555   -4.7124   25.5274 O   0  0  0  0  0  0  0  0  0  0  0  0
    3.0136    2.6526   19.3908 H   0  0  0  0  0  0  0  0  0  0  0  0
    3.6480    2.0140   21.6821 H   0  0  0  0  0  0  0  0  0  0  0  0
    4.4042    1.9741   17.4524 H   0  0  0  0  0  0  0  0  0  0  0  0
    5.7089    0.6919   22.1150 H   0  0  0  0  0  0  0  0  0  0  0  0
    8.9221   -0.1995   25.4231 H   0  0  0  0  0  0  0  0  0  0  0  0
   10.0642   -2.2347   21.8253 H   0  0  0  0  0  0  0  0  0  0  0  0
    8.6902   -2.3588   26.5805 H   0  0  0  0  0  0  0  0  0  0  0  0
    9.9254   -4.3921   22.9961 H   0  0  0  0  0  0  0  0  0  0  0  0
   12.0895    2.9562   22.2987 H   0  0  0  0  0  0  0  0  0  0  0  0
   11.9202   -0.1518   25.2857 H   0  0  0  0  0  0  0  0  0  0  0  0
   15.0068   -0.3132   24.4165 H   0  0  0  0  0  0  0  0  0  0  0  0
   15.3758    1.3189   25.0698 H   0  0  0  0  0  0  0  0  0  0  0  0
   14.3676    0.1958   26.0170 H   0  0  0  0  0  0  0  0  0  0  0  0
    8.8711   -5.6964   27.3038 H   0  0  0  0  0  0  0  0  0  0  0  0
    7.8758   -4.2402   26.9923 H   0  0  0  0  0  0  0  0  0  0  0  0
    9.5894   -4.0716   27.4566 H   0  0  0  0  0  0  0  0  0  0  0  0
    9.3974    1.2912   24.5523 H   0  0  0  0  0  0  0  0  0  0  0  0
    9.5159    2.2168   23.0553 H   0  0  0  0  0  0  0  0  0  0  0  0
    8.2278   -1.5705   21.0849 H   0  0  0  0  0  0  0  0  0  0  0  0
  1  2  1  0  0  0  0
  1  3  2  0  0  0  0
  2  4  2  0  0  0  0
  3 12  1  0  0  0  0
  4 13  1  0  0  0  0
  5  7  2  0  0  0  0
  5 14  1  0  0  0  0
  6  8  1  0  0  0  0
  6 14  2  0  0  0  0
  7 15  1  0  0  0  0
  8 15  2  0  0  0  0
  9 11  1  0  0  0  0
  9 20  2  0  0  0  0
 10 11  2  0  0  0  0
 10 23  1  0  0  0  0
 11 19  1  0  0  0  0
 12 13  2  0  0  0  0
 12 21  1  0  0  0  0
 13 24  1  0  0  0  0
 14 26  1  0  0  0  0
 15 28  1  0  0  0  0
 16 25  1  0  0  0  0
 16 26  1  0  0  0  0
 16 27  2  0  0  0  0
 17 23  1  0  0  0  0
 18 28  1  0  0  0  0
 19 26  1  0  0  0  0
 20 23  1  0  0  0  0
 21 22  2  0  0  0  0
 22 24  1  0  0  0  0
 24 25  1  0  0  0  0
  1 29  1  0  0  0  0
  2 30  1  0  0  0  0
  3 31  1  0  0  0  0
  4 32  1  0  0  0  0
  5 33  1  0  0  0  0
  6 34  1  0  0  0  0
  7 35  1  0  0  0  0
  8 36  1  0  0  0  0
  9 37  1  0  0  0  0
 10 38  1  0  0  0  0
 17 39  1  0  0  0  0
 17 40  1  0  0  0  0
 17 41  1  0  0  0  0
 18 42  1  0  0  0  0
 18 43  1  0  0  0  0
 18 44  1  0  0  0  0
 19 45  1  0  0  0  0
 19 46  1  0  0  0  0
 25 47  1  0  0  0  0
M  END
> <clash_score>
0.619943645606779

> <docking_score>
-7.968723297119141

> <overlap_score>
0.9605907797813416

$$$$
BENZO_21_1
  -OEChem-08222022163D

 57 61  0     0  0  0  0  0  0999 V2000
   14.1526    1.4694   24.0176 C   0  0  0  0  0  0  0  0  0  0  0  0
   13.3741    0.8121   24.9701 C   0  0  0  0  0  0  0  0  0  0  0  0
   13.5446    2.0802   22.9208 C   0  0  0  0  0  0  0  0  0  0  0  0
    3.9160    2.0630   19.5520 C   0  0  0  0  0  0  0  0  0  0  0  0
    4.2750    1.7050   20.8490 C   0  0  0  0  0  0  0  0  0  0  0  0
   11.9875    0.7654   24.8259 C   0  0  0  0  0  0  0  0  0  0  0  0
   12.1580    2.0335   22.7765 C   0  0  0  0  0  0  0  0  0  0  0  0
    4.6890    1.6810   18.4640 C   0  0  0  0  0  0  0  0  0  0  0  0
    5.4210    0.9600   21.0930 C   0  0  0  0  0  0  0  0  0  0  0  0
    8.9960   -2.3380   25.5320 C   0  0  0  0  0  0  0  0  0  0  0  0
    9.6730   -3.4710   23.5300 C   0  0  0  0  0  0  0  0  0  0  0  0
    9.0720   -1.1280   24.8640 C   0  0  0  0  0  0  0  0  0  0  0  0
    9.7200   -2.2600   22.8630 C   0  0  0  0  0  0  0  0  0  0  0  0
   11.3794    1.3761   23.7290 C   0  0  0  0  0  0  0  0  0  0  0  0
    5.8300    0.9190   18.6970 C   0  0  0  0  0  0  0  0  0  0  0  0
    6.1790    0.5730   19.9990 C   0  0  0  0  0  0  0  0  0  0  0  0
    9.3070   -3.5340   24.8780 C   0  0  0  0  0  0  0  0  0  0  0  0
    9.3350   -1.0880   23.5010 C   0  0  0  0  0  0  0  0  0  0  0  0
    8.3597   -5.0073   26.6307 C   0  0  0  0  0  0  0  0  0  0  0  0
    9.0420    0.3700   21.5280 C   0  0  0  0  0  0  0  0  0  0  0  0
    8.4720   -6.3981   27.2296 C   0  0  0  0  0  0  0  0  0  0  0  0
    9.9252   -6.7605   27.4803 C   0  0  0  0  0  0  0  0  0  0  0  0
   10.7833   -6.6094   26.2282 C   0  0  0  0  0  0  0  0  0  0  0  0
   10.0539   -5.9099   25.0823 C   0  0  0  0  0  0  0  0  0  0  0  0
    9.8870    1.3260   23.5730 C   0  0  0  0  0  0  0  0  0  0  0  0
    6.7580    0.3810   17.8350 N   0  0  0  0  0  0  0  0  0  0  0  0
    7.6390   -0.2680   18.5410 N   0  0  0  0  0  0  0  0  0  0  0  0
    7.3170   -0.1610   19.8550 N   0  0  0  0  0  0  0  0  0  0  0  0
    9.2530   -4.7797   25.5644 N   0  0  0  0  0  0  0  0  0  0  0  0
    8.1890   -0.7180   20.8700 N   0  0  0  0  0  0  0  0  0  0  0  0
    9.4560    0.1560   22.8130 N   0  0  0  0  0  0  0  0  0  0  0  0
    7.4954   -4.2356   27.0450 O   0  0  0  0  0  0  0  0  0  0  0  0
    9.2690    1.4140   20.9380 O   0  0  0  0  0  0  0  0  0  0  0  0
   15.2322    1.5068   24.1308 H   0  0  0  0  0  0  0  0  0  0  0  0
   13.8473    0.3374   25.8248 H   0  0  0  0  0  0  0  0  0  0  0  0
   14.1503    2.5930   22.1795 H   0  0  0  0  0  0  0  0  0  0  0  0
    3.0136    2.6526   19.3908 H   0  0  0  0  0  0  0  0  0  0  0  0
    3.6480    2.0140   21.6821 H   0  0  0  0  0  0  0  0  0  0  0  0
   11.3889    0.2508   25.5729 H   0  0  0  0  0  0  0  0  0  0  0  0
   11.6930    2.5120   21.9187 H   0  0  0  0  0  0  0  0  0  0  0  0
    4.4042    1.9741   17.4524 H   0  0  0  0  0  0  0  0  0  0  0  0
    5.7089    0.6919   22.1150 H   0  0  0  0  0  0  0  0  0  0  0  0
    8.6895   -2.3529   26.5807 H   0  0  0  0  0  0  0  0  0  0  0  0
    9.9262   -4.3897   22.9916 H   0  0  0  0  0  0  0  0  0  0  0  0
    8.9224   -0.1998   25.4238 H   0  0  0  0  0  0  0  0  0  0  0  0
   10.0649   -2.2343   21.8258 H   0  0  0  0  0  0  0  0  0  0  0  0
    7.9325   -6.4148   28.1641 H   0  0  0  0  0  0  0  0  0  0  0  0
    8.0254   -7.0920   26.5333 H   0  0  0  0  0  0  0  0  0  0  0  0
   10.3387   -6.1267   28.2923 H   0  0  0  0  0  0  0  0  0  0  0  0
    9.9904   -7.8023   27.8537 H   0  0  0  0  0  0  0  0  0  0  0  0
   11.7037   -6.0404   26.4771 H   0  0  0  0  0  0  0  0  0  0  0  0
   11.1411   -7.6068   25.8918 H   0  0  0  0  0  0  0  0  0  0  0  0
   10.7782   -5.5162   24.3756 H   0  0  0  0  0  0  0  0  0  0  0  0
    9.4042   -6.6189   24.5807 H   0  0  0  0  0  0  0  0  0  0  0  0
    9.3974    1.2912   24.5523 H   0  0  0  0  0  0  0  0  0  0  0  0
    9.5159    2.2168   23.0553 H   0  0  0  0  0  0  0  0  0  0  0  0
    8.2565   -1.5523   21.1108 H   0  0  0  0  0  0  0  0  0  0  0  0
  1  2  1  0  0  0  0
  1  3  2  0  0  0  0
  2  6  2  0  0  0  0
  3  7  1  0  0  0  0
  4  5  1  0  0  0  0
  4  8  2  0  0  0  0
  5  9  2  0  0  0  0
  6 14  1  0  0  0  0
  7 14  2  0  0  0  0
  8 15  1  0  0  0  0
  9 16  1  0  0  0  0
 10 12  2  0  0  0  0
 10 17  1  0  0  0  0
 11 13  1  0  0  0  0
 11 17  2  0  0  0  0
 12 18  1  0  0  0  0
 13 18  2  0  0  0  0
 14 25  1  0  0  0  0
 15 16  2  0  0  0  0
 15 26  1  0  0  0  0
 16 28  1  0  0  0  0
 17 29  1  0  0  0  0
 18 31  1  0  0  0  0
 19 21  1  0  0  0  0
 19 29  1  0  0  0  0
 19 32  2  0  0  0  0
 20 30  1  0  0  0  0
 20 31  1  0  0  0  0
 20 33  2  0  0  0  0
 21 22  1  0  0  0  0
 22 23  1  0  0  0  0
 23 24  1  0  0  0  0
 24 29  1  0  0  0  0
 25 31  1  0  0  0  0
 26 27  2  0  0  0  0
 27 28  1  0  0  0  0
 28 30  1  0  0  0  0
  1 34  1  0  0  0  0
  2 35  1  0  0  0  0
  3 36  1  0  0  0  0
  4 37  1  0  0  0  0
  5 38  1  0  0  0  0
  6 39  1  0  0  0  0
  7 40  1  0  0  0  0
  8 41  1  0  0  0  0
  9 42  1  0  0  0  0
 10 43  1  0  0  0  0
 11 44  1  0  0  0  0
 12 45  1  0  0  0  0
 13 46  1  0  0  0  0
 21 47  1  0  0  0  0
 21 48  1  0  0  0  0
 22 49  1  0  0  0  0
 22 50  1  0  0  0  0
 23 51  1  0  0  0  0
 23 52  1  0  0  0  0
 24 53  1  0  0  0  0
 24 54  1  0  0  0  0
 25 55  1  0  0  0  0
 25 56  1  0  0  0  0
 30 57  1  0  0  0  0
M  END
> <clash_score>
0.7790763812073098

> <docking_score>
-7.620327949523926

> <overlap_score>
1.0041024684906006

$$$$
BENZO_20_1
  -OEChem-08222022163D

 54 58  0     0  0  0  0  0  0999 V2000
    3.9160    2.0630   19.5520 C   0  0  0  0  0  0  0  0  0  0  0  0
    4.2750    1.7050   20.8490 C   0  0  0  0  0  0  0  0  0  0  0  0
    4.6890    1.6810   18.4640 C   0  0  0  0  0  0  0  0  0  0  0  0
    5.4210    0.9600   21.0930 C   0  0  0  0  0  0  0  0  0  0  0  0
    8.9960   -2.3380   25.5320 C   0  0  0  0  0  0  0  0  0  0  0  0
    9.6730   -3.4710   23.5300 C   0  0  0  0  0  0  0  0  0  0  0  0
    9.0720   -1.1280   24.8640 C   0  0  0  0  0  0  0  0  0  0  0  0
    9.7200   -2.2600   22.8630 C   0  0  0  0  0  0  0  0  0  0  0  0
   12.2913    1.4279   22.6355 C   0  0  0  0  0  0  0  0  0  0  0  0
   13.6024    1.4662   23.0564 C   0  0  0  0  0  0  0  0  0  0  0  0
   12.0284    1.3764   24.9443 C   0  0  0  0  0  0  0  0  0  0  0  0
   11.3794    1.3761   23.7290 C   0  0  0  0  0  0  0  0  0  0  0  0
    5.8300    0.9190   18.6970 C   0  0  0  0  0  0  0  0  0  0  0  0
    6.1790    0.5730   19.9990 C   0  0  0  0  0  0  0  0  0  0  0  0
    9.3070   -3.5340   24.8780 C   0  0  0  0  0  0  0  0  0  0  0  0
    9.3350   -1.0880   23.5010 C   0  0  0  0  0  0  0  0  0  0  0  0
    8.3596   -5.0074   26.6308 C   0  0  0  0  0  0  0  0  0  0  0  0
    9.0420    0.3700   21.5280 C   0  0  0  0  0  0  0  0  0  0  0  0
    8.4579   -6.4047   27.2169 C   0  0  0  0  0  0  0  0  0  0  0  0
    8.4717   -7.4504   26.1159 C   0  0  0  0  0  0  0  0  0  0  0  0
    9.5645   -7.1893   25.0842 C   0  0  0  0  0  0  0  0  0  0  0  0
   10.2327   -5.8252   25.2501 C   0  0  0  0  0  0  0  0  0  0  0  0
    9.8870    1.3260   23.5730 C   0  0  0  0  0  0  0  0  0  0  0  0
    6.7580    0.3810   17.8350 N   0  0  0  0  0  0  0  0  0  0  0  0
    7.6390   -0.2680   18.5410 N   0  0  0  0  0  0  0  0  0  0  0  0
    7.3170   -0.1610   19.8550 N   0  0  0  0  0  0  0  0  0  0  0  0
    9.2529   -4.7798   25.5645 N   0  0  0  0  0  0  0  0  0  0  0  0
    8.1890   -0.7180   20.8700 N   0  0  0  0  0  0  0  0  0  0  0  0
    9.4560    0.1560   22.8130 N   0  0  0  0  0  0  0  0  0  0  0  0
    7.5990   -4.1865   27.1424 O   0  0  0  0  0  0  0  0  0  0  0  0
    9.2690    1.4140   20.9380 O   0  0  0  0  0  0  0  0  0  0  0  0
   13.7301    1.4394   24.7638 S   0  0  0  0  0  0  0  0  0  0  0  0
    3.0136    2.6526   19.3908 H   0  0  0  0  0  0  0  0  0  0  0  0
    3.6480    2.0140   21.6821 H   0  0  0  0  0  0  0  0  0  0  0  0
    4.4042    1.9741   17.4524 H   0  0  0  0  0  0  0  0  0  0  0  0
    5.7089    0.6919   22.1150 H   0  0  0  0  0  0  0  0  0  0  0  0
    8.6895   -2.3529   26.5807 H   0  0  0  0  0  0  0  0  0  0  0  0
    9.9262   -4.3897   22.9916 H   0  0  0  0  0  0  0  0  0  0  0  0
    8.9224   -0.1998   25.4238 H   0  0  0  0  0  0  0  0  0  0  0  0
   10.0649   -2.2343   21.8258 H   0  0  0  0  0  0  0  0  0  0  0  0
   12.0045    1.4365   21.5915 H   0  0  0  0  0  0  0  0  0  0  0  0
   14.4914    1.5078   22.4430 H   0  0  0  0  0  0  0  0  0  0  0  0
   11.5886    1.3416   25.9314 H   0  0  0  0  0  0  0  0  0  0  0  0
    9.3706   -6.4745   27.7885 H   0  0  0  0  0  0  0  0  0  0  0  0
    7.6055   -6.5497   27.8636 H   0  0  0  0  0  0  0  0  0  0  0  0
    8.6095   -8.4604   26.5550 H   0  0  0  0  0  0  0  0  0  0  0  0
    7.4835   -7.4763   25.6142 H   0  0  0  0  0  0  0  0  0  0  0  0
   10.3359   -7.9850   25.1531 H   0  0  0  0  0  0  0  0  0  0  0  0
    9.1458   -7.2796   24.0582 H   0  0  0  0  0  0  0  0  0  0  0  0
   10.9408   -5.8640   26.0725 H   0  0  0  0  0  0  0  0  0  0  0  0
   10.7521   -5.5631   24.3347 H   0  0  0  0  0  0  0  0  0  0  0  0
    9.3974    1.2912   24.5523 H   0  0  0  0  0  0  0  0  0  0  0  0
    9.5159    2.2168   23.0554 H   0  0  0  0  0  0  0  0  0  0  0  0
    8.2565   -1.5523   21.1108 H   0  0  0  0  0  0  0  0  0  0  0  0
  1  2  1  0  0  0  0
  1  3  2  0  0  0  0
  2  4  2  0  0  0  0
  3 13  1  0  0  0  0
  4 14  1  0  0  0  0
  5  7  2  0  0  0  0
  5 15  1  0  0  0  0
  6  8  1  0  0  0  0
  6 15  2  0  0  0  0
  7 16  1  0  0  0  0
  8 16  2  0  0  0  0
  9 10  2  0  0  0  0
  9 12  1  0  0  0  0
 10 32  1  0  0  0  0
 11 12  2  0  0  0  0
 11 32  1  0  0  0  0
 12 23  1  0  0  0  0
 13 14  2  0  0  0  0
 13 24  1  0  0  0  0
 14 26  1  0  0  0  0
 15 27  1  0  0  0  0
 16 29  1  0  0  0  0
 17 19  1  0  0  0  0
 17 27  1  0  0  0  0
 17 30  2  0  0  0  0
 18 28  1  0  0  0  0
 18 29  1  0  0  0  0
 18 31  2  0  0  0  0
 19 20  1  0  0  0  0
 20 21  1  0  0  0  0
 21 22  1  0  0  0  0
 22 27  1  0  0  0  0
 23 29  1  0  0  0  0
 24 25  2  0  0  0  0
 25 26  1  0  0  0  0
 26 28  1  0  0  0  0
  1 33  1  0  0  0  0
  2 34  1  0  0  0  0
  3 35  1  0  0  0  0
  4 36  1  0  0  0  0
  5 37  1  0  0  0  0
  6 38  1  0  0  0  0
  7 39  1  0  0  0  0
  8 40  1  0  0  0  0
  9 41  1  0  0  0  0
 10 42  1  0  0  0  0
 11 43  1  0  0  0  0
 19 44  1  0  0  0  0
 19 45  1  0  0  0  0
 20 46  1  0  0  0  0
 20 47  1  0  0  0  0
 21 48  1  0  0  0  0
 21 49  1  0  0  0  0
 22 50  1  0  0  0  0
 22 51  1  0  0  0  0
 23 52  1  0  0  0  0
 23 53  1  0  0  0  0
 28 54  1  0  0  0  0
M  END
> <clash_score>
0.6354463265328341

> <docking_score>
-7.535644054412842

> <overlap_score>
0.9878004789352417

$$$$
BENZO_22_1
  -OEChem-08222022163D

 57 61  0     0  0  0  0  0  0999 V2000
    3.9160    2.0630   19.5520 C   0  0  0  0  0  0  0  0  0  0  0  0
    4.2750    1.7050   20.8490 C   0  0  0  0  0  0  0  0  0  0  0  0
   13.4007    0.5725   24.7805 C   0  0  0  0  0  0  0  0  0  0  0  0
   12.0141    0.5273   24.6359 C   0  0  0  0  0  0  0  0  0  0  0  0
    4.6890    1.6810   18.4640 C   0  0  0  0  0  0  0  0  0  0  0  0
    5.4210    0.9600   21.0930 C   0  0  0  0  0  0  0  0  0  0  0  0
    8.9960   -2.3380   25.5320 C   0  0  0  0  0  0  0  0  0  0  0  0
    9.6730   -3.4710   23.5300 C   0  0  0  0  0  0  0  0  0  0  0  0
    9.0720   -1.1280   24.8640 C   0  0  0  0  0  0  0  0  0  0  0  0
    9.7200   -2.2600   22.8630 C   0  0  0  0  0  0  0  0  0  0  0  0
   14.1526    1.4666   24.0184 C   0  0  0  0  0  0  0  0  0  0  0  0
   12.1314    2.2702   22.9668 C   0  0  0  0  0  0  0  0  0  0  0  0
   11.3794    1.3761   23.7290 C   0  0  0  0  0  0  0  0  0  0  0  0
    5.8300    0.9190   18.6970 C   0  0  0  0  0  0  0  0  0  0  0  0
    6.1790    0.5730   19.9990 C   0  0  0  0  0  0  0  0  0  0  0  0
    9.3070   -3.5340   24.8780 C   0  0  0  0  0  0  0  0  0  0  0  0
    9.3350   -1.0880   23.5010 C   0  0  0  0  0  0  0  0  0  0  0  0
   13.5180    2.3154   23.1115 C   0  0  0  0  0  0  0  0  0  0  0  0
    8.3597   -5.0073   26.6307 C   0  0  0  0  0  0  0  0  0  0  0  0
    9.0420    0.3700   21.5280 C   0  0  0  0  0  0  0  0  0  0  0  0
    8.4720   -6.3981   27.2296 C   0  0  0  0  0  0  0  0  0  0  0  0
    9.9252   -6.7605   27.4803 C   0  0  0  0  0  0  0  0  0  0  0  0
   10.7833   -6.6094   26.2282 C   0  0  0  0  0  0  0  0  0  0  0  0
   10.0539   -5.9099   25.0823 C   0  0  0  0  0  0  0  0  0  0  0  0
    9.8870    1.3260   23.5730 C   0  0  0  0  0  0  0  0  0  0  0  0
    6.7580    0.3810   17.8350 N   0  0  0  0  0  0  0  0  0  0  0  0
    7.6390   -0.2680   18.5410 N   0  0  0  0  0  0  0  0  0  0  0  0
    7.3170   -0.1610   19.8550 N   0  0  0  0  0  0  0  0  0  0  0  0
    9.2530   -4.7797   25.5644 N   0  0  0  0  0  0  0  0  0  0  0  0
    8.1890   -0.7180   20.8700 N   0  0  0  0  0  0  0  0  0  0  0  0
    9.4560    0.1560   22.8130 N   0  0  0  0  0  0  0  0  0  0  0  0
    7.4954   -4.2356   27.0450 O   0  0  0  0  0  0  0  0  0  0  0  0
    9.2690    1.4140   20.9380 O   0  0  0  0  0  0  0  0  0  0  0  0
   14.4464    3.4175   22.1707 Cl  0  0  0  0  0  0  0  0  0  0  0  0
    3.0136    2.6526   19.3908 H   0  0  0  0  0  0  0  0  0  0  0  0
    3.6480    2.0140   21.6821 H   0  0  0  0  0  0  0  0  0  0  0  0
   13.8945   -0.0888   25.4867 H   0  0  0  0  0  0  0  0  0  0  0  0
   11.4361   -0.1726   25.2338 H   0  0  0  0  0  0  0  0  0  0  0  0
    4.4042    1.9741   17.4524 H   0  0  0  0  0  0  0  0  0  0  0  0
    5.7089    0.6919   22.1150 H   0  0  0  0  0  0  0  0  0  0  0  0
    8.6895   -2.3529   26.5807 H   0  0  0  0  0  0  0  0  0  0  0  0
    9.9262   -4.3897   22.9916 H   0  0  0  0  0  0  0  0  0  0  0  0
    8.9224   -0.1998   25.4238 H   0  0  0  0  0  0  0  0  0  0  0  0
   10.0649   -2.2343   21.8258 H   0  0  0  0  0  0  0  0  0  0  0  0
   15.2326    1.4907   24.1414 H   0  0  0  0  0  0  0  0  0  0  0  0
   11.6318    2.9303   22.2615 H   0  0  0  0  0  0  0  0  0  0  0  0
    7.9325   -6.4148   28.1641 H   0  0  0  0  0  0  0  0  0  0  0  0
    8.0254   -7.0920   26.5333 H   0  0  0  0  0  0  0  0  0  0  0  0
   10.3387   -6.1267   28.2923 H   0  0  0  0  0  0  0  0  0  0  0  0
    9.9904   -7.8023   27.8537 H   0  0  0  0  0  0  0  0  0  0  0  0
   11.7037   -6.0404   26.4771 H   0  0  0  0  0  0  0  0  0  0  0  0
   11.1411   -7.6068   25.8918 H   0  0  0  0  0  0  0  0  0  0  0  0
   10.7782   -5.5162   24.3756 H   0  0  0  0  0  0  0  0  0  0  0  0
    9.4042   -6.6189   24.5807 H   0  0  0  0  0  0  0  0  0  0  0  0
    9.3974    1.2912   24.5523 H   0  0  0  0  0  0  0  0  0  0  0  0
    9.5159    2.2168   23.0553 H   0  0  0  0  0  0  0  0  0  0  0  0
    8.2565   -1.5523   21.1108 H   0  0  0  0  0  0  0  0  0  0  0  0
  1  2  1  0  0  0  0
  1  5  2  0  0  0  0
  2  6  2  0  0  0  0
  3  4  2  0  0  0  0
  3 11  1  0  0  0  0
  4 13  1  0  0  0  0
  5 14  1  0  0  0  0
  6 15  1  0  0  0  0
  7  9  2  0  0  0  0
  7 16  1  0  0  0  0
  8 10  1  0  0  0  0
  8 16  2  0  0  0  0
  9 17  1  0  0  0  0
 10 17  2  0  0  0  0
 11 18  2  0  0  0  0
 12 13  2  0  0  0  0
 12 18  1  0  0  0  0
 13 25  1  0  0  0  0
 14 15  2  0  0  0  0
 14 26  1  0  0  0  0
 15 28  1  0  0  0  0
 16 29  1  0  0  0  0
 17 31  1  0  0  0  0
 18 34  1  0  0  0  0
 19 21  1  0  0  0  0
 19 29  1  0  0  0  0
 19 32  2  0  0  0  0
 20 30  1  0  0  0  0
 20 31  1  0  0  0  0
 20 33  2  0  0  0  0
 21 22  1  0  0  0  0
 22 23  1  0  0  0  0
 23 24  1  0  0  0  0
 24 29  1  0  0  0  0
 25 31  1  0  0  0  0
 26 27  2  0  0  0  0
 27 28  1  0  0  0  0
 28 30  1  0  0  0  0
  1 35  1  0  0  0  0
  2 36  1  0  0  0  0
  3 37  1  0  0  0  0
  4 38  1  0  0  0  0
  5 39  1  0  0  0  0
  6 40  1  0  0  0  0
  7 41  1  0  0  0  0
  8 42  1  0  0  0  0
  9 43  1  0  0  0  0
 10 44  1  0  0  0  0
 11 45  1  0  0  0  0
 12 46  1  0  0  0  0
 21 47  1  0  0  0  0
 21 48  1  0  0  0  0
 22 49  1  0  0  0  0
 22 50  1  0  0  0  0
 23 51  1  0  0  0  0
 23 52  1  0  0  0  0
 24 53  1  0  0  0  0
 24 54  1  0  0  0  0
 25 55  1  0  0  0  0
 25 56  1  0  0  0  0
 30 57  1  0  0  0  0
M  END
> <clash_score>
0.7790763812073098

> <docking_score>
-6.757294654846191

> <overlap_score>
1.015157699584961

$$$$
BENZO_23_1
  -OEChem-08222022163D

 57 61  0     0  0  0  0  0  0999 V2000
    3.9160    2.0630   19.5520 C   0  0  0  0  0  0  0  0  0  0  0  0
    4.2750    1.7050   20.8490 C   0  0  0  0  0  0  0  0  0  0  0  0
    4.6890    1.6810   18.4640 C   0  0  0  0  0  0  0  0  0  0  0  0
    5.4210    0.9600   21.0930 C   0  0  0  0  0  0  0  0  0  0  0  0
    8.9960   -2.3380   25.5320 C   0  0  0  0  0  0  0  0  0  0  0  0
    9.6730   -3.4710   23.5300 C   0  0  0  0  0  0  0  0  0  0  0  0
    9.0720   -1.1280   24.8640 C   0  0  0  0  0  0  0  0  0  0  0  0
    9.7200   -2.2600   22.8630 C   0  0  0  0  0  0  0  0  0  0  0  0
   12.1233    1.3811   24.9242 C   0  0  0  0  0  0  0  0  0  0  0  0
   12.3262    1.4247   22.7351 C   0  0  0  0  0  0  0  0  0  0  0  0
   11.3794    1.3761   23.7290 C   0  0  0  0  0  0  0  0  0  0  0  0
    5.8300    0.9190   18.6970 C   0  0  0  0  0  0  0  0  0  0  0  0
    6.1790    0.5730   19.9990 C   0  0  0  0  0  0  0  0  0  0  0  0
    9.3070   -3.5340   24.8780 C   0  0  0  0  0  0  0  0  0  0  0  0
    9.3350   -1.0880   23.5010 C   0  0  0  0  0  0  0  0  0  0  0  0
    8.3597   -5.0073   26.6307 C   0  0  0  0  0  0  0  0  0  0  0  0
    9.0420    0.3700   21.5280 C   0  0  0  0  0  0  0  0  0  0  0  0
    8.4720   -6.3981   27.2296 C   0  0  0  0  0  0  0  0  0  0  0  0
    9.9252   -6.7605   27.4803 C   0  0  0  0  0  0  0  0  0  0  0  0
   10.7833   -6.6094   26.2282 C   0  0  0  0  0  0  0  0  0  0  0  0
   10.0539   -5.9099   25.0823 C   0  0  0  0  0  0  0  0  0  0  0  0
   14.8305    1.5084   22.7418 C   0  0  0  0  0  0  0  0  0  0  0  0
    9.8870    1.3260   23.5730 C   0  0  0  0  0  0  0  0  0  0  0  0
   13.4410    1.4289   24.7112 N   0  0  0  0  0  0  0  0  0  0  0  0
    6.7580    0.3810   17.8350 N   0  0  0  0  0  0  0  0  0  0  0  0
    7.6390   -0.2680   18.5410 N   0  0  0  0  0  0  0  0  0  0  0  0
   13.5326    1.4543   23.3707 N   0  0  0  0  0  0  0  0  0  0  0  0
    7.3170   -0.1610   19.8550 N   0  0  0  0  0  0  0  0  0  0  0  0
    9.2530   -4.7797   25.5644 N   0  0  0  0  0  0  0  0  0  0  0  0
    8.1890   -0.7180   20.8700 N   0  0  0  0  0  0  0  0  0  0  0  0
    9.4560    0.1560   22.8130 N   0  0  0  0  0  0  0  0  0  0  0  0
    7.4954   -4.2356   27.0450 O   0  0  0  0  0  0  0  0  0  0  0  0
    9.2690    1.4140   20.9380 O   0  0  0  0  0  0  0  0  0  0  0  0
    3.0136    2.6526   19.3908 H   0  0  0  0  0  0  0  0  0  0  0  0
    3.6480    2.0140   21.6821 H   0  0  0  0  0  0  0  0  0  0  0  0
    4.4042    1.9741   17.4524 H   0  0  0  0  0  0  0  0  0  0  0  0
    5.7089    0.6919   22.1150 H   0  0  0  0  0  0  0  0  0  0  0  0
    8.6895   -2.3529   26.5807 H   0  0  0  0  0  0  0  0  0  0  0  0
    9.9262   -4.3897   22.9916 H   0  0  0  0  0  0  0  0  0  0  0  0
    8.9224   -0.1998   25.4238 H   0  0  0  0  0  0  0  0  0  0  0  0
   10.0649   -2.2343   21.8258 H   0  0  0  0  0  0  0  0  0  0  0  0
   11.7624    1.3510   25.9426 H   0  0  0  0  0  0  0  0  0  0  0  0
   12.2462    1.4390   21.6566 H   0  0  0  0  0  0  0  0  0  0  0  0
    7.9325   -6.4148   28.1641 H   0  0  0  0  0  0  0  0  0  0  0  0
    8.0254   -7.0920   26.5333 H   0  0  0  0  0  0  0  0  0  0  0  0
   10.3387   -6.1267   28.2923 H   0  0  0  0  0  0  0  0  0  0  0  0
    9.9904   -7.8023   27.8537 H   0  0  0  0  0  0  0  0  0  0  0  0
   11.7037   -6.0404   26.4771 H   0  0  0  0  0  0  0  0  0  0  0  0
   11.1411   -7.6068   25.8918 H   0  0  0  0  0  0  0  0  0  0  0  0
   10.7782   -5.5162   24.3756 H   0  0  0  0  0  0  0  0  0  0  0  0
    9.4042   -6.6189   24.5807 H   0  0  0  0  0  0  0  0  0  0  0  0
   15.0990    2.5601   22.6124 H   0  0  0  0  0  0  0  0  0  0  0  0
   15.5636    1.0018   23.3756 H   0  0  0  0  0  0  0  0  0  0  0  0
   14.7841    1.0025   21.7733 H   0  0  0  0  0  0  0  0  0  0  0  0
    9.3974    1.2912   24.5523 H   0  0  0  0  0  0  0  0  0  0  0  0
    9.5159    2.2168   23.0553 H   0  0  0  0  0  0  0  0  0  0  0  0
    8.2565   -1.5523   21.1108 H   0  0  0  0  0  0  0  0  0  0  0  0
  1  2  1  0  0  0  0
  1  3  2  0  0  0  0
  2  4  2  0  0  0  0
  3 12  1  0  0  0  0
  4 13  1  0  0  0  0
  5  7  2  0  0  0  0
  5 14  1  0  0  0  0
  6  8  1  0  0  0  0
  6 14  2  0  0  0  0
  7 15  1  0  0  0  0
  8 15  2  0  0  0  0
  9 11  1  0  0  0  0
  9 24  2  0  0  0  0
 10 11  2  0  0  0  0
 10 27  1  0  0  0  0
 11 23  1  0  0  0  0
 12 13  2  0  0  0  0
 12 25  1  0  0  0  0
 13 28  1  0  0  0  0
 14 29  1  0  0  0  0
 15 31  1  0  0  0  0
 16 18  1  0  0  0  0
 16 29  1  0  0  0  0
 16 32  2  0  0  0  0
 17 30  1  0  0  0  0
 17 31  1  0  0  0  0
 17 33  2  0  0  0  0
 18 19  1  0  0  0  0
 19 20  1  0  0  0  0
 20 21  1  0  0  0  0
 21 29  1  0  0  0  0
 22 27  1  0  0  0  0
 23 31  1  0  0  0  0
 24 27  1  0  0  0  0
 25 26  2  0  0  0  0
 26 28  1  0  0  0  0
 28 30  1  0  0  0  0
  1 34  1  0  0  0  0
  2 35  1  0  0  0  0
  3 36  1  0  0  0  0
  4 37  1  0  0  0  0
  5 38  1  0  0  0  0
  6 39  1  0  0  0  0
  7 40  1  0  0  0  0
  8 41  1  0  0  0  0
  9 42  1  0  0  0  0
 10 43  1  0  0  0  0
 18 44  1  0  0  0  0
 18 45  1  0  0  0  0
 19 46  1  0  0  0  0
 19 47  1  0  0  0  0
 20 48  1  0  0  0  0
 20 49  1  0  0  0  0
 21 50  1  0  0  0  0
 21 51  1  0  0  0  0
 22 52  1  0  0  0  0
 22 53  1  0  0  0  0
 22 54  1  0  0  0  0
 23 55  1  0  0  0  0
 23 56  1  0  0  0  0
 30 57  1  0  0  0  0
M  END
> <clash_score>
0.7790763812073098

> <docking_score>
-7.336463928222656

> <overlap_score>
0.999036431312561

$$$$
BENZO_25_1
  -OEChem-08222022163D

 56 60  0     0  0  0  0  0  0999 V2000
   14.1526    1.4694   24.0176 C   0  0  0  0  0  0  0  0  0  0  0  0
   13.3741    0.8121   24.9701 C   0  0  0  0  0  0  0  0  0  0  0  0
   13.5446    2.0802   22.9208 C   0  0  0  0  0  0  0  0  0  0  0  0
    3.9160    2.0630   19.5520 C   0  0  0  0  0  0  0  0  0  0  0  0
    4.2750    1.7050   20.8490 C   0  0  0  0  0  0  0  0  0  0  0  0
   11.9875    0.7654   24.8258 C   0  0  0  0  0  0  0  0  0  0  0  0
   12.1580    2.0335   22.7765 C   0  0  0  0  0  0  0  0  0  0  0  0
    4.6890    1.6810   18.4640 C   0  0  0  0  0  0  0  0  0  0  0  0
    5.4210    0.9600   21.0930 C   0  0  0  0  0  0  0  0  0  0  0  0
    8.9960   -2.3380   25.5320 C   0  0  0  0  0  0  0  0  0  0  0  0
    9.6730   -3.4710   23.5300 C   0  0  0  0  0  0  0  0  0  0  0  0
    9.0720   -1.1280   24.8640 C   0  0  0  0  0  0  0  0  0  0  0  0
    9.7200   -2.2600   22.8630 C   0  0  0  0  0  0  0  0  0  0  0  0
   11.3794    1.3761   23.7290 C   0  0  0  0  0  0  0  0  0  0  0  0
    5.8300    0.9190   18.6970 C   0  0  0  0  0  0  0  0  0  0  0  0
    6.1790    0.5730   19.9990 C   0  0  0  0  0  0  0  0  0  0  0  0
    9.3070   -3.5340   24.8780 C   0  0  0  0  0  0  0  0  0  0  0  0
    9.3350   -1.0880   23.5010 C   0  0  0  0  0  0  0  0  0  0  0  0
    9.0420    0.3700   21.5280 C   0  0  0  0  0  0  0  0  0  0  0  0
   10.0771   -5.0255   26.7193 C   0  0  0  0  0  0  0  0  0  0  0  0
    8.0926   -5.6195   25.4071 C   0  0  0  0  0  0  0  0  0  0  0  0
    9.1933   -4.9427   27.9592 C   0  0  0  0  0  0  0  0  0  0  0  0
    7.2756   -5.5290   26.6967 C   0  0  0  0  0  0  0  0  0  0  0  0
    9.8870    1.3260   23.5730 C   0  0  0  0  0  0  0  0  0  0  0  0
    6.7580    0.3810   17.8350 N   0  0  0  0  0  0  0  0  0  0  0  0
    7.6390   -0.2680   18.5410 N   0  0  0  0  0  0  0  0  0  0  0  0
    7.3170   -0.1610   19.8550 N   0  0  0  0  0  0  0  0  0  0  0  0
    9.2563   -4.7368   25.5413 N   0  0  0  0  0  0  0  0  0  0  0  0
    8.1890   -0.7180   20.8700 N   0  0  0  0  0  0  0  0  0  0  0  0
    9.4560    0.1560   22.8130 N   0  0  0  0  0  0  0  0  0  0  0  0
    9.2690    1.4140   20.9380 O   0  0  0  0  0  0  0  0  0  0  0  0
    8.0883   -5.8459   27.8325 O   0  0  0  0  0  0  0  0  0  0  0  0
   15.2322    1.5068   24.1308 H   0  0  0  0  0  0  0  0  0  0  0  0
   13.8473    0.3374   25.8248 H   0  0  0  0  0  0  0  0  0  0  0  0
   14.1503    2.5930   22.1795 H   0  0  0  0  0  0  0  0  0  0  0  0
    3.0136    2.6526   19.3908 H   0  0  0  0  0  0  0  0  0  0  0  0
    3.6480    2.0140   21.6821 H   0  0  0  0  0  0  0  0  0  0  0  0
   11.3889    0.2508   25.5729 H   0  0  0  0  0  0  0  0  0  0  0  0
   11.6930    2.5120   21.9187 H   0  0  0  0  0  0  0  0  0  0  0  0
    4.4042    1.9741   17.4524 H   0  0  0  0  0  0  0  0  0  0  0  0
    5.7089    0.6919   22.1150 H   0  0  0  0  0  0  0  0  0  0  0  0
    8.6905   -2.3533   26.5810 H   0  0  0  0  0  0  0  0  0  0  0  0
    9.9266   -4.3896   22.9917 H   0  0  0  0  0  0  0  0  0  0  0  0
    8.9233   -0.1992   25.4232 H   0  0  0  0  0  0  0  0  0  0  0  0
   10.0650   -2.2330   21.8256 H   0  0  0  0  0  0  0  0  0  0  0  0
   10.8985   -4.3115   26.8085 H   0  0  0  0  0  0  0  0  0  0  0  0
   10.4915   -6.0334   26.6323 H   0  0  0  0  0  0  0  0  0  0  0  0
    8.4327   -6.6456   25.2620 H   0  0  0  0  0  0  0  0  0  0  0  0
    7.4725   -5.3241   24.5619 H   0  0  0  0  0  0  0  0  0  0  0  0
    9.7636   -5.2398   28.8419 H   0  0  0  0  0  0  0  0  0  0  0  0
    8.8236   -3.9268   28.1248 H   0  0  0  0  0  0  0  0  0  0  0  0
    6.8339   -4.5337   26.8232 H   0  0  0  0  0  0  0  0  0  0  0  0
    6.4550   -6.2521   26.6643 H   0  0  0  0  0  0  0  0  0  0  0  0
    9.3974    1.2912   24.5523 H   0  0  0  0  0  0  0  0  0  0  0  0
    9.5159    2.2168   23.0554 H   0  0  0  0  0  0  0  0  0  0  0  0
    8.2565   -1.5523   21.1108 H   0  0  0  0  0  0  0  0  0  0  0  0
  1  2  1  0  0  0  0
  1  3  2  0  0  0  0
  2  6  2  0  0  0  0
  3  7  1  0  0  0  0
  4  5  1  0  0  0  0
  4  8  2  0  0  0  0
  5  9  2  0  0  0  0
  6 14  1  0  0  0  0
  7 14  2  0  0  0  0
  8 15  1  0  0  0  0
  9 16  1  0  0  0  0
 10 12  2  0  0  0  0
 10 17  1  0  0  0  0
 11 13  1  0  0  0  0
 11 17  2  0  0  0  0
 12 18  1  0  0  0  0
 13 18  2  0  0  0  0
 14 24  1  0  0  0  0
 15 16  2  0  0  0  0
 15 25  1  0  0  0  0
 16 27  1  0  0  0  0
 17 28  1  0  0  0  0
 18 30  1  0  0  0  0
 19 29  1  0  0  0  0
 19 30  1  0  0  0  0
 19 31  2  0  0  0  0
 20 22  1  0  0  0  0
 20 28  1  0  0  0  0
 21 23  1  0  0  0  0
 21 28  1  0  0  0  0
 22 32  1  0  0  0  0
 23 32  1  0  0  0  0
 24 30  1  0  0  0  0
 25 26  2  0  0  0  0
 26 27  1  0  0  0  0
 27 29  1  0  0  0  0
  1 33  1  0  0  0  0
  2 34  1  0  0  0  0
  3 35  1  0  0  0  0
  4 36  1  0  0  0  0
  5 37  1  0  0  0  0
  6 38  1  0  0  0  0
  7 39  1  0  0  0  0
  8 40  1  0  0  0  0
  9 41  1  0  0  0  0
 10 42  1  0  0  0  0
 11 43  1  0  0  0  0
 12 44  1  0  0  0  0
 13 45  1  0  0  0  0
 20 46  1  0  0  0  0
 20 47  1  0  0  0  0
 21 48  1  0  0  0  0
 21 49  1  0  0  0  0
 22 50  1  0  0  0  0
 22 51  1  0  0  0  0
 23 52  1  0  0  0  0
 23 53  1  0  0  0  0
 24 54  1  0  0  0  0
 24 55  1  0  0  0  0
 29 56  1  0  0  0  0
M  END
> <clash_score>
0

> <docking_score>
-8.601471900939941

> <overlap_score>
0.990332305431366

$$$$
BENZO_24_1
  -OEChem-08222022163D

 53 57  0     0  0  0  0  0  0999 V2000
    3.9160    2.0630   19.5520 C   0  0  0  0  0  0  0  0  0  0  0  0
    4.2750    1.7050   20.8490 C   0  0  0  0  0  0  0  0  0  0  0  0
    4.6890    1.6810   18.4640 C   0  0  0  0  0  0  0  0  0  0  0  0
    5.4210    0.9600   21.0930 C   0  0  0  0  0  0  0  0  0  0  0  0
    8.9960   -2.3380   25.5320 C   0  0  0  0  0  0  0  0  0  0  0  0
    9.6730   -3.4710   23.5300 C   0  0  0  0  0  0  0  0  0  0  0  0
    9.0720   -1.1280   24.8640 C   0  0  0  0  0  0  0  0  0  0  0  0
    9.7200   -2.2600   22.8630 C   0  0  0  0  0  0  0  0  0  0  0  0
   12.2111    0.2208   23.7905 C   0  0  0  0  0  0  0  0  0  0  0  0
   13.5412    0.5479   23.9363 C   0  0  0  0  0  0  0  0  0  0  0  0
   12.1057    2.5424   23.8305 C   0  0  0  0  0  0  0  0  0  0  0  0
   11.3794    1.3761   23.7290 C   0  0  0  0  0  0  0  0  0  0  0  0
    5.8300    0.9190   18.6970 C   0  0  0  0  0  0  0  0  0  0  0  0
    6.1790    0.5730   19.9990 C   0  0  0  0  0  0  0  0  0  0  0  0
    9.3070   -3.5340   24.8780 C   0  0  0  0  0  0  0  0  0  0  0  0
    9.3350   -1.0880   23.5010 C   0  0  0  0  0  0  0  0  0  0  0  0
    9.0420    0.3700   21.5280 C   0  0  0  0  0  0  0  0  0  0  0  0
    9.5174   -4.8597   26.9770 C   0  0  0  0  0  0  0  0  0  0  0  0
    8.5165   -5.8725   24.9808 C   0  0  0  0  0  0  0  0  0  0  0  0
    8.1868   -5.0439   27.6987 C   0  0  0  0  0  0  0  0  0  0  0  0
    7.2200   -6.0347   25.7755 C   0  0  0  0  0  0  0  0  0  0  0  0
    9.8870    1.3260   23.5730 C   0  0  0  0  0  0  0  0  0  0  0  0
    6.7580    0.3810   17.8350 N   0  0  0  0  0  0  0  0  0  0  0  0
    7.6390   -0.2680   18.5410 N   0  0  0  0  0  0  0  0  0  0  0  0
    7.3170   -0.1610   19.8550 N   0  0  0  0  0  0  0  0  0  0  0  0
    9.2563   -4.7368   25.5413 N   0  0  0  0  0  0  0  0  0  0  0  0
    8.1890   -0.7180   20.8700 N   0  0  0  0  0  0  0  0  0  0  0  0
    9.4560    0.1560   22.8130 N   0  0  0  0  0  0  0  0  0  0  0  0
    9.2690    1.4140   20.9380 O   0  0  0  0  0  0  0  0  0  0  0  0
    7.4994   -6.1853   27.1719 O   0  0  0  0  0  0  0  0  0  0  0  0
   13.7831    2.2420   23.9988 S   0  0  0  0  0  0  0  0  0  0  0  0
    3.0136    2.6526   19.3908 H   0  0  0  0  0  0  0  0  0  0  0  0
    3.6480    2.0140   21.6821 H   0  0  0  0  0  0  0  0  0  0  0  0
    4.4042    1.9741   17.4524 H   0  0  0  0  0  0  0  0  0  0  0  0
    5.7089    0.6919   22.1150 H   0  0  0  0  0  0  0  0  0  0  0  0
    8.6905   -2.3533   26.5810 H   0  0  0  0  0  0  0  0  0  0  0  0
    9.9266   -4.3896   22.9917 H   0  0  0  0  0  0  0  0  0  0  0  0
    8.9233   -0.1992   25.4232 H   0  0  0  0  0  0  0  0  0  0  0  0
   10.0650   -2.2330   21.8256 H   0  0  0  0  0  0  0  0  0  0  0  0
   11.8558   -0.8003   23.7315 H   0  0  0  0  0  0  0  0  0  0  0  0
   14.3824   -0.1267   24.0100 H   0  0  0  0  0  0  0  0  0  0  0  0
   11.7354    3.5581   23.8155 H   0  0  0  0  0  0  0  0  0  0  0  0
   10.0205   -3.9698   27.3609 H   0  0  0  0  0  0  0  0  0  0  0  0
   10.1535   -5.7310   27.1549 H   0  0  0  0  0  0  0  0  0  0  0  0
    9.1181   -6.7773   25.0755 H   0  0  0  0  0  0  0  0  0  0  0  0
    8.2812   -5.7064   23.9304 H   0  0  0  0  0  0  0  0  0  0  0  0
    8.3628   -5.2252   28.7611 H   0  0  0  0  0  0  0  0  0  0  0  0
    7.5530   -4.1570   27.6103 H   0  0  0  0  0  0  0  0  0  0  0  0
    6.5459   -5.1839   25.6221 H   0  0  0  0  0  0  0  0  0  0  0  0
    6.6948   -6.9354   25.4436 H   0  0  0  0  0  0  0  0  0  0  0  0
    9.3974    1.2912   24.5523 H   0  0  0  0  0  0  0  0  0  0  0  0
    9.5159    2.2168   23.0554 H   0  0  0  0  0  0  0  0  0  0  0  0
    8.2565   -1.5523   21.1108 H   0  0  0  0  0  0  0  0  0  0  0  0
  1  2  1  0  0  0  0
  1  3  2  0  0  0  0
  2  4  2  0  0  0  0
  3 13  1  0  0  0  0
  4 14  1  0  0  0  0
  5  7  2  0  0  0  0
  5 15  1  0  0  0  0
  6  8  1  0  0  0  0
  6 15  2  0  0  0  0
  7 16  1  0  0  0  0
  8 16  2  0  0  0  0
  9 10  2  0  0  0  0
  9 12  1  0  0  0  0
 10 31  1  0  0  0  0
 11 12  2  0  0  0  0
 11 31  1  0  0  0  0
 12 22  1  0  0  0  0
 13 14  2  0  0  0  0
 13 23  1  0  0  0  0
 14 25  1  0  0  0  0
 15 26  1  0  0  0  0
 16 28  1  0  0  0  0
 17 27  1  0  0  0  0
 17 28  1  0  0  0  0
 17 29  2  0  0  0  0
 18 20  1  0  0  0  0
 18 26  1  0  0  0  0
 19 21  1  0  0  0  0
 19 26  1  0  0  0  0
 20 30  1  0  0  0  0
 21 30  1  0  0  0  0
 22 28  1  0  0  0  0
 23 24  2  0  0  0  0
 24 25  1  0  0  0  0
 25 27  1  0  0  0  0
  1 32  1  0  0  0  0
  2 33  1  0  0  0  0
  3 34  1  0  0  0  0
  4 35  1  0  0  0  0
  5 36  1  0  0  0  0
  6 37  1  0  0  0  0
  7 38  1  0  0  0  0
  8 39  1  0  0  0  0
  9 40  1  0  0  0  0
 10 41  1  0  0  0  0
 11 42  1  0  0  0  0
 18 43  1  0  0  0  0
 18 44  1  0  0  0  0
 19 45  1  0  0  0  0
 19 46  1  0  0  0  0
 20 47  1  0  0  0  0
 20 48  1  0  0  0  0
 21 49  1  0  0  0  0
 21 50  1  0  0  0  0
 22 51  1  0  0  0  0
 22 52  1  0  0  0  0
 27 53  1  0  0  0  0
M  END
> <clash_score>
0

> <docking_score>
-7.836746692657471

> <overlap_score>
0.9791509509086609

$$$$
BENZO_29_1
  -OEChem-08222022163D

 52 55  0     0  0  0  0  0  0999 V2000
   14.1526    1.4694   24.0176 C   0  0  0  0  0  0  0  0  0  0  0  0
   13.3741    0.8121   24.9701 C   0  0  0  0  0  0  0  0  0  0  0  0
   13.5446    2.0802   22.9208 C   0  0  0  0  0  0  0  0  0  0  0  0
    3.9160    2.0630   19.5520 C   0  0  0  0  0  0  0  0  0  0  0  0
    4.2750    1.7050   20.8490 C   0  0  0  0  0  0  0  0  0  0  0  0
   11.9875    0.7654   24.8258 C   0  0  0  0  0  0  0  0  0  0  0  0
   12.1580    2.0335   22.7765 C   0  0  0  0  0  0  0  0  0  0  0  0
    4.6890    1.6810   18.4640 C   0  0  0  0  0  0  0  0  0  0  0  0
    5.4210    0.9600   21.0930 C   0  0  0  0  0  0  0  0  0  0  0  0
    9.0720   -1.1280   24.8640 C   0  0  0  0  0  0  0  0  0  0  0  0
    9.7200   -2.2600   22.8630 C   0  0  0  0  0  0  0  0  0  0  0  0
    8.9960   -2.3380   25.5320 C   0  0  0  0  0  0  0  0  0  0  0  0
    9.6730   -3.4710   23.5300 C   0  0  0  0  0  0  0  0  0  0  0  0
    7.6390   -0.2680   18.5410 C   0  0  0  0  0  0  0  0  0  0  0  0
   11.3794    1.3761   23.7290 C   0  0  0  0  0  0  0  0  0  0  0  0
    5.8300    0.9190   18.6970 C   0  0  0  0  0  0  0  0  0  0  0  0
    6.1790    0.5730   19.9990 C   0  0  0  0  0  0  0  0  0  0  0  0
    9.3350   -1.0880   23.5010 C   0  0  0  0  0  0  0  0  0  0  0  0
    9.3070   -3.5340   24.8780 C   0  0  0  0  0  0  0  0  0  0  0  0
    9.0420    0.3700   21.5280 C   0  0  0  0  0  0  0  0  0  0  0  0
    8.0128   -5.2151   26.1416 C   0  0  0  0  0  0  0  0  0  0  0  0
   10.4372   -5.5860   25.6589 C   0  0  0  0  0  0  0  0  0  0  0  0
    9.8870    1.3260   23.5730 C   0  0  0  0  0  0  0  0  0  0  0  0
    6.7580    0.3810   17.8350 N   0  0  0  0  0  0  0  0  0  0  0  0
    7.3170   -0.1610   19.8550 N   0  0  0  0  0  0  0  0  0  0  0  0
    8.1890   -0.7180   20.8700 N   0  0  0  0  0  0  0  0  0  0  0  0
    9.4560    0.1560   22.8130 N   0  0  0  0  0  0  0  0  0  0  0  0
    9.2543   -4.7552   25.5519 N   0  0  0  0  0  0  0  0  0  0  0  0
    9.2690    1.4140   20.9380 O   0  0  0  0  0  0  0  0  0  0  0  0
   15.2322    1.5068   24.1308 H   0  0  0  0  0  0  0  0  0  0  0  0
   13.8473    0.3374   25.8248 H   0  0  0  0  0  0  0  0  0  0  0  0
   14.1503    2.5930   22.1795 H   0  0  0  0  0  0  0  0  0  0  0  0
    3.0134    2.6521   19.3911 H   0  0  0  0  0  0  0  0  0  0  0  0
    3.6460    2.0127   21.6812 H   0  0  0  0  0  0  0  0  0  0  0  0
   11.3889    0.2508   25.5729 H   0  0  0  0  0  0  0  0  0  0  0  0
   11.6930    2.5120   21.9187 H   0  0  0  0  0  0  0  0  0  0  0  0
    4.4037    1.9731   17.4543 H   0  0  0  0  0  0  0  0  0  0  0  0
    5.7084    0.6923   22.1132 H   0  0  0  0  0  0  0  0  0  0  0  0
    8.9217   -0.1995   25.4232 H   0  0  0  0  0  0  0  0  0  0  0  0
   10.0643   -2.2341   21.8254 H   0  0  0  0  0  0  0  0  0  0  0  0
    8.6893   -2.3540   26.5808 H   0  0  0  0  0  0  0  0  0  0  0  0
    9.9257   -4.3898   22.9921 H   0  0  0  0  0  0  0  0  0  0  0  0
    8.4862   -0.8060   18.1787 H   0  0  0  0  0  0  0  0  0  0  0  0
    8.1744   -6.1904   26.6238 H   0  0  0  0  0  0  0  0  0  0  0  0
    7.6718   -4.4870   26.8924 H   0  0  0  0  0  0  0  0  0  0  0  0
    7.2494   -5.3166   25.3561 H   0  0  0  0  0  0  0  0  0  0  0  0
   10.1946   -6.4995   26.2216 H   0  0  0  0  0  0  0  0  0  0  0  0
   10.7865   -5.8578   24.6518 H   0  0  0  0  0  0  0  0  0  0  0  0
   11.2285   -5.0312   26.1842 H   0  0  0  0  0  0  0  0  0  0  0  0
    9.3974    1.2912   24.5523 H   0  0  0  0  0  0  0  0  0  0  0  0
    9.5159    2.2168   23.0553 H   0  0  0  0  0  0  0  0  0  0  0  0
    8.2233   -1.5737   21.0809 H   0  0  0  0  0  0  0  0  0  0  0  0
  1  2  1  0  0  0  0
  1  3  2  0  0  0  0
  2  6  2  0  0  0  0
  3  7  1  0  0  0  0
  4  5  1  0  0  0  0
  4  8  2  0  0  0  0
  5  9  2  0  0  0  0
  6 15  1  0  0  0  0
  7 15  2  0  0  0  0
  8 16  1  0  0  0  0
  9 17  1  0  0  0  0
 10 12  2  0  0  0  0
 10 18  1  0  0  0  0
 11 13  1  0  0  0  0
 11 18  2  0  0  0  0
 12 19  1  0  0  0  0
 13 19  2  0  0  0  0
 14 24  2  0  0  0  0
 14 25  1  0  0  0  0
 15 23  1  0  0  0  0
 16 17  2  0  0  0  0
 16 24  1  0  0  0  0
 17 25  1  0  0  0  0
 18 27  1  0  0  0  0
 19 28  1  0  0  0  0
 20 26  1  0  0  0  0
 20 27  1  0  0  0  0
 20 29  2  0  0  0  0
 21 28  1  0  0  0  0
 22 28  1  0  0  0  0
 23 27  1  0  0  0  0
 25 26  1  0  0  0  0
  1 30  1  0  0  0  0
  2 31  1  0  0  0  0
  3 32  1  0  0  0  0
  4 33  1  0  0  0  0
  5 34  1  0  0  0  0
  6 35  1  0  0  0  0
  7 36  1  0  0  0  0
  8 37  1  0  0  0  0
  9 38  1  0  0  0  0
 10 39  1  0  0  0  0
 11 40  1  0  0  0  0
 12 41  1  0  0  0  0
 13 42  1  0  0  0  0
 14 43  1  0  0  0  0
 21 44  1  0  0  0  0
 21 45  1  0  0  0  0
 21 46  1  0  0  0  0
 22 47  1  0  0  0  0
 22 48  1  0  0  0  0
 22 49  1  0  0  0  0
 23 50  1  0  0  0  0
 23 51  1  0  0  0  0
 26 52  1  0  0  0  0
M  END
> <clash_score>
0

> <docking_score>
-9.45349407196045

> <overlap_score>
0.9780116677284241

$$$$
BENZO_28_1
  -OEChem-08222022163D

 49 52  0     0  0  0  0  0  0999 V2000
    3.9160    2.0630   19.5520 C   0  0  0  0  0  0  0  0  0  0  0  0
    4.2750    1.7050   20.8490 C   0  0  0  0  0  0  0  0  0  0  0  0
    4.6890    1.6810   18.4640 C   0  0  0  0  0  0  0  0  0  0  0  0
    5.4210    0.9600   21.0930 C   0  0  0  0  0  0  0  0  0  0  0  0
    9.0720   -1.1280   24.8640 C   0  0  0  0  0  0  0  0  0  0  0  0
    9.7200   -2.2600   22.8630 C   0  0  0  0  0  0  0  0  0  0  0  0
    8.9960   -2.3380   25.5320 C   0  0  0  0  0  0  0  0  0  0  0  0
    9.6730   -3.4710   23.5300 C   0  0  0  0  0  0  0  0  0  0  0  0
   12.2913    1.4279   22.6355 C   0  0  0  0  0  0  0  0  0  0  0  0
   13.6024    1.4661   23.0564 C   0  0  0  0  0  0  0  0  0  0  0  0
   12.0284    1.3764   24.9443 C   0  0  0  0  0  0  0  0  0  0  0  0
    7.6390   -0.2680   18.5410 C   0  0  0  0  0  0  0  0  0  0  0  0
   11.3794    1.3761   23.7290 C   0  0  0  0  0  0  0  0  0  0  0  0
    5.8300    0.9190   18.6970 C   0  0  0  0  0  0  0  0  0  0  0  0
    6.1790    0.5730   19.9990 C   0  0  0  0  0  0  0  0  0  0  0  0
    9.3350   -1.0880   23.5010 C   0  0  0  0  0  0  0  0  0  0  0  0
    9.3070   -3.5340   24.8780 C   0  0  0  0  0  0  0  0  0  0  0  0
    9.0420    0.3700   21.5280 C   0  0  0  0  0  0  0  0  0  0  0  0
    8.8742   -4.8064   26.9496 C   0  0  0  0  0  0  0  0  0  0  0  0
    9.5655   -5.9897   24.8591 C   0  0  0  0  0  0  0  0  0  0  0  0
    9.8870    1.3260   23.5730 C   0  0  0  0  0  0  0  0  0  0  0  0
    6.7580    0.3810   17.8350 N   0  0  0  0  0  0  0  0  0  0  0  0
    7.3170   -0.1610   19.8550 N   0  0  0  0  0  0  0  0  0  0  0  0
    8.1890   -0.7180   20.8700 N   0  0  0  0  0  0  0  0  0  0  0  0
    9.4560    0.1560   22.8130 N   0  0  0  0  0  0  0  0  0  0  0  0
    9.2543   -4.7552   25.5519 N   0  0  0  0  0  0  0  0  0  0  0  0
    9.2690    1.4140   20.9380 O   0  0  0  0  0  0  0  0  0  0  0  0
   13.7301    1.4394   24.7638 S   0  0  0  0  0  0  0  0  0  0  0  0
    3.0134    2.6521   19.3911 H   0  0  0  0  0  0  0  0  0  0  0  0
    3.6460    2.0127   21.6812 H   0  0  0  0  0  0  0  0  0  0  0  0
    4.4037    1.9731   17.4543 H   0  0  0  0  0  0  0  0  0  0  0  0
    5.7084    0.6923   22.1132 H   0  0  0  0  0  0  0  0  0  0  0  0
    8.9217   -0.1995   25.4232 H   0  0  0  0  0  0  0  0  0  0  0  0
   10.0643   -2.2341   21.8254 H   0  0  0  0  0  0  0  0  0  0  0  0
    8.6893   -2.3540   26.5808 H   0  0  0  0  0  0  0  0  0  0  0  0
    9.9257   -4.3898   22.9921 H   0  0  0  0  0  0  0  0  0  0  0  0
   12.0045    1.4365   21.5915 H   0  0  0  0  0  0  0  0  0  0  0  0
   14.4914    1.5078   22.4431 H   0  0  0  0  0  0  0  0  0  0  0  0
   11.5886    1.3416   25.9314 H   0  0  0  0  0  0  0  0  0  0  0  0
    8.4862   -0.8060   18.1787 H   0  0  0  0  0  0  0  0  0  0  0  0
    8.8922   -5.8499   27.2971 H   0  0  0  0  0  0  0  0  0  0  0  0
    9.5819   -4.2098   27.5440 H   0  0  0  0  0  0  0  0  0  0  0  0
    7.8599   -4.3978   27.0688 H   0  0  0  0  0  0  0  0  0  0  0  0
    9.4683   -6.8360   25.5551 H   0  0  0  0  0  0  0  0  0  0  0  0
    8.8685   -6.1243   24.0189 H   0  0  0  0  0  0  0  0  0  0  0  0
   10.5961   -5.9459   24.4772 H   0  0  0  0  0  0  0  0  0  0  0  0
    9.3974    1.2912   24.5523 H   0  0  0  0  0  0  0  0  0  0  0  0
    9.5159    2.2168   23.0553 H   0  0  0  0  0  0  0  0  0  0  0  0
    8.2233   -1.5737   21.0809 H   0  0  0  0  0  0  0  0  0  0  0  0
  1  2  1  0  0  0  0
  1  3  2  0  0  0  0
  2  4  2  0  0  0  0
  3 14  1  0  0  0  0
  4 15  1  0  0  0  0
  5  7  2  0  0  0  0
  5 16  1  0  0  0  0
  6  8  1  0  0  0  0
  6 16  2  0  0  0  0
  7 17  1  0  0  0  0
  8 17  2  0  0  0  0
  9 10  2  0  0  0  0
  9 13  1  0  0  0  0
 10 28  1  0  0  0  0
 11 13  2  0  0  0  0
 11 28  1  0  0  0  0
 12 22  2  0  0  0  0
 12 23  1  0  0  0  0
 13 21  1  0  0  0  0
 14 15  2  0  0  0  0
 14 22  1  0  0  0  0
 15 23  1  0  0  0  0
 16 25  1  0  0  0  0
 17 26  1  0  0  0  0
 18 24  1  0  0  0  0
 18 25  1  0  0  0  0
 18 27  2  0  0  0  0
 19 26  1  0  0  0  0
 20 26  1  0  0  0  0
 21 25  1  0  0  0  0
 23 24  1  0  0  0  0
  1 29  1  0  0  0  0
  2 30  1  0  0  0  0
  3 31  1  0  0  0  0
  4 32  1  0  0  0  0
  5 33  1  0  0  0  0
  6 34  1  0  0  0  0
  7 35  1  0  0  0  0
  8 36  1  0  0  0  0
  9 37  1  0  0  0  0
 10 38  1  0  0  0  0
 11 39  1  0  0  0  0
 12 40  1  0  0  0  0
 19 41  1  0  0  0  0
 19 42  1  0  0  0  0
 19 43  1  0  0  0  0
 20 44  1  0  0  0  0
 20 45  1  0  0  0  0
 20 46  1  0  0  0  0
 21 47  1  0  0  0  0
 21 48  1  0  0  0  0
 24 49  1  0  0  0  0
M  END
> <clash_score>
0

> <docking_score>
-9.210471153259277

> <overlap_score>
0.9639393091201782

$$$$
BENZO_26_1
  -OEChem-08222022163D

 56 60  0     0  0  0  0  0  0999 V2000
    3.9160    2.0630   19.5520 C   0  0  0  0  0  0  0  0  0  0  0  0
    4.2750    1.7050   20.8490 C   0  0  0  0  0  0  0  0  0  0  0  0
   13.4006    0.5725   24.7805 C   0  0  0  0  0  0  0  0  0  0  0  0
   12.0141    0.5273   24.6359 C   0  0  0  0  0  0  0  0  0  0  0  0
    4.6890    1.6810   18.4640 C   0  0  0  0  0  0  0  0  0  0  0  0
    5.4210    0.9600   21.0930 C   0  0  0  0  0  0  0  0  0  0  0  0
    8.9960   -2.3380   25.5320 C   0  0  0  0  0  0  0  0  0  0  0  0
    9.6730   -3.4710   23.5300 C   0  0  0  0  0  0  0  0  0  0  0  0
    9.0720   -1.1280   24.8640 C   0  0  0  0  0  0  0  0  0  0  0  0
    9.7200   -2.2600   22.8630 C   0  0  0  0  0  0  0  0  0  0  0  0
   14.1526    1.4666   24.0184 C   0  0  0  0  0  0  0  0  0  0  0  0
   12.1314    2.2702   22.9668 C   0  0  0  0  0  0  0  0  0  0  0  0
   11.3794    1.3761   23.7290 C   0  0  0  0  0  0  0  0  0  0  0  0
    5.8300    0.9190   18.6970 C   0  0  0  0  0  0  0  0  0  0  0  0
    6.1790    0.5730   19.9990 C   0  0  0  0  0  0  0  0  0  0  0  0
    9.3070   -3.5340   24.8780 C   0  0  0  0  0  0  0  0  0  0  0  0
    9.3350   -1.0880   23.5010 C   0  0  0  0  0  0  0  0  0  0  0  0
   13.5180    2.3154   23.1115 C   0  0  0  0  0  0  0  0  0  0  0  0
    9.0420    0.3700   21.5280 C   0  0  0  0  0  0  0  0  0  0  0  0
   10.0771   -5.0255   26.7193 C   0  0  0  0  0  0  0  0  0  0  0  0
    8.0926   -5.6195   25.4071 C   0  0  0  0  0  0  0  0  0  0  0  0
    9.1933   -4.9427   27.9592 C   0  0  0  0  0  0  0  0  0  0  0  0
    7.2756   -5.5290   26.6967 C   0  0  0  0  0  0  0  0  0  0  0  0
    9.8870    1.3260   23.5730 C   0  0  0  0  0  0  0  0  0  0  0  0
    6.7580    0.3810   17.8350 N   0  0  0  0  0  0  0  0  0  0  0  0
    7.6390   -0.2680   18.5410 N   0  0  0  0  0  0  0  0  0  0  0  0
    7.3170   -0.1610   19.8550 N   0  0  0  0  0  0  0  0  0  0  0  0
    9.2563   -4.7368   25.5413 N   0  0  0  0  0  0  0  0  0  0  0  0
    8.1890   -0.7180   20.8700 N   0  0  0  0  0  0  0  0  0  0  0  0
    9.4560    0.1560   22.8130 N   0  0  0  0  0  0  0  0  0  0  0  0
    9.2690    1.4140   20.9380 O   0  0  0  0  0  0  0  0  0  0  0  0
    8.0883   -5.8459   27.8325 O   0  0  0  0  0  0  0  0  0  0  0  0
   14.4463    3.4175   22.1707 Cl  0  0  0  0  0  0  0  0  0  0  0  0
    3.0136    2.6526   19.3908 H   0  0  0  0  0  0  0  0  0  0  0  0
    3.6480    2.0140   21.6821 H   0  0  0  0  0  0  0  0  0  0  0  0
   13.8945   -0.0888   25.4867 H   0  0  0  0  0  0  0  0  0  0  0  0
   11.4361   -0.1726   25.2338 H   0  0  0  0  0  0  0  0  0  0  0  0
    4.4042    1.9741   17.4524 H   0  0  0  0  0  0  0  0  0  0  0  0
    5.7089    0.6919   22.1150 H   0  0  0  0  0  0  0  0  0  0  0  0
    8.6905   -2.3533   26.5810 H   0  0  0  0  0  0  0  0  0  0  0  0
    9.9266   -4.3896   22.9917 H   0  0  0  0  0  0  0  0  0  0  0  0
    8.9233   -0.1992   25.4232 H   0  0  0  0  0  0  0  0  0  0  0  0
   10.0650   -2.2330   21.8256 H   0  0  0  0  0  0  0  0  0  0  0  0
   15.2326    1.4907   24.1414 H   0  0  0  0  0  0  0  0  0  0  0  0
   11.6318    2.9303   22.2615 H   0  0  0  0  0  0  0  0  0  0  0  0
   10.8985   -4.3115   26.8085 H   0  0  0  0  0  0  0  0  0  0  0  0
   10.4915   -6.0334   26.6323 H   0  0  0  0  0  0  0  0  0  0  0  0
    8.4327   -6.6456   25.2620 H   0  0  0  0  0  0  0  0  0  0  0  0
    7.4725   -5.3241   24.5619 H   0  0  0  0  0  0  0  0  0  0  0  0
    9.7636   -5.2398   28.8419 H   0  0  0  0  0  0  0  0  0  0  0  0
    8.8236   -3.9268   28.1248 H   0  0  0  0  0  0  0  0  0  0  0  0
    6.8339   -4.5337   26.8232 H   0  0  0  0  0  0  0  0  0  0  0  0
    6.4550   -6.2521   26.6643 H   0  0  0  0  0  0  0  0  0  0  0  0
    9.3974    1.2912   24.5523 H   0  0  0  0  0  0  0  0  0  0  0  0
    9.5159    2.2168   23.0554 H   0  0  0  0  0  0  0  0  0  0  0  0
    8.2565   -1.5523   21.1108 H   0  0  0  0  0  0  0  0  0  0  0  0
  1  2  1  0  0  0  0
  1  5  2  0  0  0  0
  2  6  2  0  0  0  0
  3  4  2  0  0  0  0
  3 11  1  0  0  0  0
  4 13  1  0  0  0  0
  5 14  1  0  0  0  0
  6 15  1  0  0  0  0
  7  9  2  0  0  0  0
  7 16  1  0  0  0  0
  8 10  1  0  0  0  0
  8 16  2  0  0  0  0
  9 17  1  0  0  0  0
 10 17  2  0  0  0  0
 11 18  2  0  0  0  0
 12 13  2  0  0  0  0
 12 18  1  0  0  0  0
 13 24  1  0  0  0  0
 14 15  2  0  0  0  0
 14 25  1  0  0  0  0
 15 27  1  0  0  0  0
 16 28  1  0  0  0  0
 17 30  1  0  0  0  0
 18 33  1  0  0  0  0
 19 29  1  0  0  0  0
 19 30  1  0  0  0  0
 19 31  2  0  0  0  0
 20 22  1  0  0  0  0
 20 28  1  0  0  0  0
 21 23  1  0  0  0  0
 21 28  1  0  0  0  0
 22 32  1  0  0  0  0
 23 32  1  0  0  0  0
 24 30  1  0  0  0  0
 25 26  2  0  0  0  0
 26 27  1  0  0  0  0
 27 29  1  0  0  0  0
  1 34  1  0  0  0  0
  2 35  1  0  0  0  0
  3 36  1  0  0  0  0
  4 37  1  0  0  0  0
  5 38  1  0  0  0  0
  6 39  1  0  0  0  0
  7 40  1  0  0  0  0
  8 41  1  0  0  0  0
  9 42  1  0  0  0  0
 10 43  1  0  0  0  0
 11 44  1  0  0  0  0
 12 45  1  0  0  0  0
 20 46  1  0  0  0  0
 20 47  1  0  0  0  0
 21 48  1  0  0  0  0
 21 49  1  0  0  0  0
 22 50  1  0  0  0  0
 22 51  1  0  0  0  0
 23 52  1  0  0  0  0
 23 53  1  0  0  0  0
 24 54  1  0  0  0  0
 24 55  1  0  0  0  0
 29 56  1  0  0  0  0
M  END
> <clash_score>
0

> <docking_score>
-7.738448143005371

> <overlap_score>
1.0014259815216064

$$$$
BENZO_27_1
  -OEChem-08222022163D

 56 60  0     0  0  0  0  0  0999 V2000
    3.9160    2.0630   19.5520 C   0  0  0  0  0  0  0  0  0  0  0  0
    4.2750    1.7050   20.8490 C   0  0  0  0  0  0  0  0  0  0  0  0
    4.6890    1.6810   18.4640 C   0  0  0  0  0  0  0  0  0  0  0  0
    5.4210    0.9600   21.0930 C   0  0  0  0  0  0  0  0  0  0  0  0
    8.9960   -2.3380   25.5320 C   0  0  0  0  0  0  0  0  0  0  0  0
    9.6730   -3.4710   23.5300 C   0  0  0  0  0  0  0  0  0  0  0  0
    9.0720   -1.1280   24.8640 C   0  0  0  0  0  0  0  0  0  0  0  0
    9.7200   -2.2600   22.8630 C   0  0  0  0  0  0  0  0  0  0  0  0
   12.2914    2.2071   23.0512 C   0  0  0  0  0  0  0  0  0  0  0  0
   12.1614    0.6214   24.5689 C   0  0  0  0  0  0  0  0  0  0  0  0
   11.3794    1.3761   23.7290 C   0  0  0  0  0  0  0  0  0  0  0  0
    5.8300    0.9190   18.6970 C   0  0  0  0  0  0  0  0  0  0  0  0
    6.1790    0.5730   19.9990 C   0  0  0  0  0  0  0  0  0  0  0  0
    9.3070   -3.5340   24.8780 C   0  0  0  0  0  0  0  0  0  0  0  0
    9.3350   -1.0880   23.5010 C   0  0  0  0  0  0  0  0  0  0  0  0
    9.0420    0.3700   21.5280 C   0  0  0  0  0  0  0  0  0  0  0  0
   10.0771   -5.0255   26.7193 C   0  0  0  0  0  0  0  0  0  0  0  0
    8.0926   -5.6195   25.4071 C   0  0  0  0  0  0  0  0  0  0  0  0
    9.1933   -4.9427   27.9592 C   0  0  0  0  0  0  0  0  0  0  0  0
    7.2756   -5.5290   26.6967 C   0  0  0  0  0  0  0  0  0  0  0  0
   14.6267    0.5248   25.0067 C   0  0  0  0  0  0  0  0  0  0  0  0
    9.8870    1.3260   23.5730 C   0  0  0  0  0  0  0  0  0  0  0  0
   13.5560    2.0002   23.4280 N   0  0  0  0  0  0  0  0  0  0  0  0
    6.7580    0.3810   17.8350 N   0  0  0  0  0  0  0  0  0  0  0  0
    7.6390   -0.2680   18.5410 N   0  0  0  0  0  0  0  0  0  0  0  0
   13.4442    1.0306   24.3518 N   0  0  0  0  0  0  0  0  0  0  0  0
    7.3170   -0.1610   19.8550 N   0  0  0  0  0  0  0  0  0  0  0  0
    9.2563   -4.7368   25.5413 N   0  0  0  0  0  0  0  0  0  0  0  0
    8.1890   -0.7180   20.8700 N   0  0  0  0  0  0  0  0  0  0  0  0
    9.4560    0.1560   22.8130 N   0  0  0  0  0  0  0  0  0  0  0  0
    9.2690    1.4140   20.9380 O   0  0  0  0  0  0  0  0  0  0  0  0
    8.0883   -5.8459   27.8325 O   0  0  0  0  0  0  0  0  0  0  0  0
    3.0136    2.6526   19.3908 H   0  0  0  0  0  0  0  0  0  0  0  0
    3.6480    2.0140   21.6821 H   0  0  0  0  0  0  0  0  0  0  0  0
    4.4042    1.9741   17.4524 H   0  0  0  0  0  0  0  0  0  0  0  0
    5.7089    0.6919   22.1150 H   0  0  0  0  0  0  0  0  0  0  0  0
    8.6905   -2.3533   26.5810 H   0  0  0  0  0  0  0  0  0  0  0  0
    9.9266   -4.3896   22.9917 H   0  0  0  0  0  0  0  0  0  0  0  0
    8.9233   -0.1992   25.4232 H   0  0  0  0  0  0  0  0  0  0  0  0
   10.0650   -2.2330   21.8256 H   0  0  0  0  0  0  0  0  0  0  0  0
   12.0895    2.9562   22.2987 H   0  0  0  0  0  0  0  0  0  0  0  0
   11.9201   -0.1518   25.2857 H   0  0  0  0  0  0  0  0  0  0  0  0
   10.8985   -4.3115   26.8085 H   0  0  0  0  0  0  0  0  0  0  0  0
   10.4915   -6.0334   26.6323 H   0  0  0  0  0  0  0  0  0  0  0  0
    8.4327   -6.6456   25.2620 H   0  0  0  0  0  0  0  0  0  0  0  0
    7.4725   -5.3241   24.5619 H   0  0  0  0  0  0  0  0  0  0  0  0
    9.7636   -5.2398   28.8419 H   0  0  0  0  0  0  0  0  0  0  0  0
    8.8236   -3.9268   28.1248 H   0  0  0  0  0  0  0  0  0  0  0  0
    6.8339   -4.5337   26.8232 H   0  0  0  0  0  0  0  0  0  0  0  0
    6.4550   -6.2521   26.6643 H   0  0  0  0  0  0  0  0  0  0  0  0
   15.0068   -0.3132   24.4165 H   0  0  0  0  0  0  0  0  0  0  0  0
   15.3758    1.3189   25.0698 H   0  0  0  0  0  0  0  0  0  0  0  0
   14.3676    0.1958   26.0170 H   0  0  0  0  0  0  0  0  0  0  0  0
    9.3974    1.2912   24.5523 H   0  0  0  0  0  0  0  0  0  0  0  0
    9.5159    2.2168   23.0554 H   0  0  0  0  0  0  0  0  0  0  0  0
    8.2565   -1.5523   21.1108 H   0  0  0  0  0  0  0  0  0  0  0  0
  1  2  1  0  0  0  0
  1  3  2  0  0  0  0
  2  4  2  0  0  0  0
  3 12  1  0  0  0  0
  4 13  1  0  0  0  0
  5  7  2  0  0  0  0
  5 14  1  0  0  0  0
  6  8  1  0  0  0  0
  6 14  2  0  0  0  0
  7 15  1  0  0  0  0
  8 15  2  0  0  0  0
  9 11  1  0  0  0  0
  9 23  2  0  0  0  0
 10 11  2  0  0  0  0
 10 26  1  0  0  0  0
 11 22  1  0  0  0  0
 12 13  2  0  0  0  0
 12 24  1  0  0  0  0
 13 27  1  0  0  0  0
 14 28  1  0  0  0  0
 15 30  1  0  0  0  0
 16 29  1  0  0  0  0
 16 30  1  0  0  0  0
 16 31  2  0  0  0  0
 17 19  1  0  0  0  0
 17 28  1  0  0  0  0
 18 20  1  0  0  0  0
 18 28  1  0  0  0  0
 19 32  1  0  0  0  0
 20 32  1  0  0  0  0
 21 26  1  0  0  0  0
 22 30  1  0  0  0  0
 23 26  1  0  0  0  0
 24 25  2  0  0  0  0
 25 27  1  0  0  0  0
 27 29  1  0  0  0  0
  1 33  1  0  0  0  0
  2 34  1  0  0  0  0
  3 35  1  0  0  0  0
  4 36  1  0  0  0  0
  5 37  1  0  0  0  0
  6 38  1  0  0  0  0
  7 39  1  0  0  0  0
  8 40  1  0  0  0  0
  9 41  1  0  0  0  0
 10 42  1  0  0  0  0
 17 43  1  0  0  0  0
 17 44  1  0  0  0  0
 18 45  1  0  0  0  0
 18 46  1  0  0  0  0
 19 47  1  0  0  0  0
 19 48  1  0  0  0  0
 20 49  1  0  0  0  0
 20 50  1  0  0  0  0
 21 51  1  0  0  0  0
 21 52  1  0  0  0  0
 21 53  1  0  0  0  0
 22 54  1  0  0  0  0
 22 55  1  0  0  0  0
 29 56  1  0  0  0  0
M  END
> <clash_score>
0.6199415991294811

> <docking_score>
-8.30947208404541

> <overlap_score>
0.9891133904457092

$$$$
BENZO_31_1
  -OEChem-08222022163D

 52 55  0     0  0  0  0  0  0999 V2000
    3.9160    2.0630   19.5520 C   0  0  0  0  0  0  0  0  0  0  0  0
    4.2750    1.7050   20.8490 C   0  0  0  0  0  0  0  0  0  0  0  0
    4.6890    1.6810   18.4640 C   0  0  0  0  0  0  0  0  0  0  0  0
    5.4210    0.9600   21.0930 C   0  0  0  0  0  0  0  0  0  0  0  0
    9.0720   -1.1280   24.8640 C   0  0  0  0  0  0  0  0  0  0  0  0
    9.7200   -2.2600   22.8630 C   0  0  0  0  0  0  0  0  0  0  0  0
    8.9960   -2.3380   25.5320 C   0  0  0  0  0  0  0  0  0  0  0  0
    9.6730   -3.4710   23.5300 C   0  0  0  0  0  0  0  0  0  0  0  0
   12.2914    2.2071   23.0512 C   0  0  0  0  0  0  0  0  0  0  0  0
   12.1614    0.6214   24.5689 C   0  0  0  0  0  0  0  0  0  0  0  0
    7.6390   -0.2680   18.5410 C   0  0  0  0  0  0  0  0  0  0  0  0
   11.3794    1.3761   23.7290 C   0  0  0  0  0  0  0  0  0  0  0  0
    5.8300    0.9190   18.6970 C   0  0  0  0  0  0  0  0  0  0  0  0
    6.1790    0.5730   19.9990 C   0  0  0  0  0  0  0  0  0  0  0  0
    9.3350   -1.0880   23.5010 C   0  0  0  0  0  0  0  0  0  0  0  0
    9.3070   -3.5340   24.8780 C   0  0  0  0  0  0  0  0  0  0  0  0
    9.0420    0.3700   21.5280 C   0  0  0  0  0  0  0  0  0  0  0  0
   14.6267    0.5248   25.0067 C   0  0  0  0  0  0  0  0  0  0  0  0
    8.0128   -5.2151   26.1416 C   0  0  0  0  0  0  0  0  0  0  0  0
   10.4372   -5.5860   25.6589 C   0  0  0  0  0  0  0  0  0  0  0  0
    9.8870    1.3260   23.5730 C   0  0  0  0  0  0  0  0  0  0  0  0
   13.5560    2.0002   23.4280 N   0  0  0  0  0  0  0  0  0  0  0  0
    6.7580    0.3810   17.8350 N   0  0  0  0  0  0  0  0  0  0  0  0
   13.4442    1.0306   24.3518 N   0  0  0  0  0  0  0  0  0  0  0  0
    7.3170   -0.1610   19.8550 N   0  0  0  0  0  0  0  0  0  0  0  0
    8.1890   -0.7180   20.8700 N   0  0  0  0  0  0  0  0  0  0  0  0
    9.4560    0.1560   22.8130 N   0  0  0  0  0  0  0  0  0  0  0  0
    9.2543   -4.7552   25.5519 N   0  0  0  0  0  0  0  0  0  0  0  0
    9.2690    1.4140   20.9380 O   0  0  0  0  0  0  0  0  0  0  0  0
    3.0134    2.6521   19.3911 H   0  0  0  0  0  0  0  0  0  0  0  0
    3.6460    2.0127   21.6812 H   0  0  0  0  0  0  0  0  0  0  0  0
    4.4037    1.9731   17.4543 H   0  0  0  0  0  0  0  0  0  0  0  0
    5.7084    0.6923   22.1132 H   0  0  0  0  0  0  0  0  0  0  0  0
    8.9217   -0.1995   25.4232 H   0  0  0  0  0  0  0  0  0  0  0  0
   10.0643   -2.2341   21.8254 H   0  0  0  0  0  0  0  0  0  0  0  0
    8.6893   -2.3540   26.5808 H   0  0  0  0  0  0  0  0  0  0  0  0
    9.9257   -4.3898   22.9921 H   0  0  0  0  0  0  0  0  0  0  0  0
   12.0895    2.9562   22.2987 H   0  0  0  0  0  0  0  0  0  0  0  0
   11.9202   -0.1518   25.2857 H   0  0  0  0  0  0  0  0  0  0  0  0
    8.4862   -0.8060   18.1787 H   0  0  0  0  0  0  0  0  0  0  0  0
   15.0068   -0.3132   24.4165 H   0  0  0  0  0  0  0  0  0  0  0  0
   15.3758    1.3189   25.0698 H   0  0  0  0  0  0  0  0  0  0  0  0
   14.3676    0.1958   26.0170 H   0  0  0  0  0  0  0  0  0  0  0  0
    8.1744   -6.1904   26.6238 H   0  0  0  0  0  0  0  0  0  0  0  0
    7.6718   -4.4870   26.8924 H   0  0  0  0  0  0  0  0  0  0  0  0
    7.2494   -5.3166   25.3561 H   0  0  0  0  0  0  0  0  0  0  0  0
   10.1946   -6.4995   26.2216 H   0  0  0  0  0  0  0  0  0  0  0  0
   10.7865   -5.8578   24.6518 H   0  0  0  0  0  0  0  0  0  0  0  0
   11.2285   -5.0312   26.1842 H   0  0  0  0  0  0  0  0  0  0  0  0
    9.3974    1.2912   24.5523 H   0  0  0  0  0  0  0  0  0  0  0  0
    9.5159    2.2168   23.0553 H   0  0  0  0  0  0  0  0  0  0  0  0
    8.2233   -1.5737   21.0809 H   0  0  0  0  0  0  0  0  0  0  0  0
  1  2  1  0  0  0  0
  1  3  2  0  0  0  0
  2  4  2  0  0  0  0
  3 13  1  0  0  0  0
  4 14  1  0  0  0  0
  5  7  2  0  0  0  0
  5 15  1  0  0  0  0
  6  8  1  0  0  0  0
  6 15  2  0  0  0  0
  7 16  1  0  0  0  0
  8 16  2  0  0  0  0
  9 12  1  0  0  0  0
  9 22  2  0  0  0  0
 10 12  2  0  0  0  0
 10 24  1  0  0  0  0
 11 23  2  0  0  0  0
 11 25  1  0  0  0  0
 12 21  1  0  0  0  0
 13 14  2  0  0  0  0
 13 23  1  0  0  0  0
 14 25  1  0  0  0  0
 15 27  1  0  0  0  0
 16 28  1  0  0  0  0
 17 26  1  0  0  0  0
 17 27  1  0  0  0  0
 17 29  2  0  0  0  0
 18 24  1  0  0  0  0
 19 28  1  0  0  0  0
 20 28  1  0  0  0  0
 21 27  1  0  0  0  0
 22 24  1  0  0  0  0
 25 26  1  0  0  0  0
  1 30  1  0  0  0  0
  2 31  1  0  0  0  0
  3 32  1  0  0  0  0
  4 33  1  0  0  0  0
  5 34  1  0  0  0  0
  6 35  1  0  0  0  0
  7 36  1  0  0  0  0
  8 37  1  0  0  0  0
  9 38  1  0  0  0  0
 10 39  1  0  0  0  0
 11 40  1  0  0  0  0
 18 41  1  0  0  0  0
 18 42  1  0  0  0  0
 18 43  1  0  0  0  0
 19 44  1  0  0  0  0
 19 45  1  0  0  0  0
 19 46  1  0  0  0  0
 20 47  1  0  0  0  0
 20 48  1  0  0  0  0
 20 49  1  0  0  0  0
 21 50  1  0  0  0  0
 21 51  1  0  0  0  0
 26 52  1  0  0  0  0
M  END
> <clash_score>
0.6199434752611445

> <docking_score>
-9.16149616241455

> <overlap_score>
0.9767897725105286

$$$$
BENZO_30_1
  -OEChem-08222022163D

 52 55  0     0  0  0  0  0  0999 V2000
    3.9160    2.0630   19.5520 C   0  0  0  0  0  0  0  0  0  0  0  0
    4.2750    1.7050   20.8490 C   0  0  0  0  0  0  0  0  0  0  0  0
   13.4007    0.5725   24.7805 C   0  0  0  0  0  0  0  0  0  0  0  0
   12.0141    0.5273   24.6359 C   0  0  0  0  0  0  0  0  0  0  0  0
    4.6890    1.6810   18.4640 C   0  0  0  0  0  0  0  0  0  0  0  0
    5.4210    0.9600   21.0930 C   0  0  0  0  0  0  0  0  0  0  0  0
    9.0720   -1.1280   24.8640 C   0  0  0  0  0  0  0  0  0  0  0  0
    9.7200   -2.2600   22.8630 C   0  0  0  0  0  0  0  0  0  0  0  0
    8.9960   -2.3380   25.5320 C   0  0  0  0  0  0  0  0  0  0  0  0
    9.6730   -3.4710   23.5300 C   0  0  0  0  0  0  0  0  0  0  0  0
   14.1526    1.4666   24.0184 C   0  0  0  0  0  0  0  0  0  0  0  0
   12.1314    2.2702   22.9668 C   0  0  0  0  0  0  0  0  0  0  0  0
    7.6390   -0.2680   18.5410 C   0  0  0  0  0  0  0  0  0  0  0  0
   11.3794    1.3761   23.7290 C   0  0  0  0  0  0  0  0  0  0  0  0
    5.8300    0.9190   18.6970 C   0  0  0  0  0  0  0  0  0  0  0  0
    6.1790    0.5730   19.9990 C   0  0  0  0  0  0  0  0  0  0  0  0
    9.3350   -1.0880   23.5010 C   0  0  0  0  0  0  0  0  0  0  0  0
    9.3070   -3.5340   24.8780 C   0  0  0  0  0  0  0  0  0  0  0  0
   13.5180    2.3154   23.1115 C   0  0  0  0  0  0  0  0  0  0  0  0
    9.0420    0.3700   21.5280 C   0  0  0  0  0  0  0  0  0  0  0  0
    8.0128   -5.2151   26.1416 C   0  0  0  0  0  0  0  0  0  0  0  0
   10.4372   -5.5860   25.6589 C   0  0  0  0  0  0  0  0  0  0  0  0
    9.8870    1.3260   23.5730 C   0  0  0  0  0  0  0  0  0  0  0  0
    6.7580    0.3810   17.8350 N   0  0  0  0  0  0  0  0  0  0  0  0
    7.3170   -0.1610   19.8550 N   0  0  0  0  0  0  0  0  0  0  0  0
    8.1890   -0.7180   20.8700 N   0  0  0  0  0  0  0  0  0  0  0  0
    9.4560    0.1560   22.8130 N   0  0  0  0  0  0  0  0  0  0  0  0
    9.2543   -4.7552   25.5519 N   0  0  0  0  0  0  0  0  0  0  0  0
    9.2690    1.4140   20.9380 O   0  0  0  0  0  0  0  0  0  0  0  0
   14.4463    3.4175   22.1707 Cl  0  0  0  0  0  0  0  0  0  0  0  0
    3.0134    2.6521   19.3911 H   0  0  0  0  0  0  0  0  0  0  0  0
    3.6460    2.0127   21.6812 H   0  0  0  0  0  0  0  0  0  0  0  0
   13.8945   -0.0888   25.4867 H   0  0  0  0  0  0  0  0  0  0  0  0
   11.4361   -0.1726   25.2338 H   0  0  0  0  0  0  0  0  0  0  0  0
    4.4037    1.9731   17.4543 H   0  0  0  0  0  0  0  0  0  0  0  0
    5.7084    0.6923   22.1132 H   0  0  0  0  0  0  0  0  0  0  0  0
    8.9217   -0.1995   25.4232 H   0  0  0  0  0  0  0  0  0  0  0  0
   10.0643   -2.2341   21.8254 H   0  0  0  0  0  0  0  0  0  0  0  0
    8.6893   -2.3540   26.5808 H   0  0  0  0  0  0  0  0  0  0  0  0
    9.9257   -4.3898   22.9921 H   0  0  0  0  0  0  0  0  0  0  0  0
   15.2326    1.4907   24.1414 H   0  0  0  0  0  0  0  0  0  0  0  0
   11.6318    2.9303   22.2615 H   0  0  0  0  0  0  0  0  0  0  0  0
    8.4862   -0.8060   18.1787 H   0  0  0  0  0  0  0  0  0  0  0  0
    8.1744   -6.1904   26.6238 H   0  0  0  0  0  0  0  0  0  0  0  0
    7.6718   -4.4870   26.8924 H   0  0  0  0  0  0  0  0  0  0  0  0
    7.2494   -5.3166   25.3561 H   0  0  0  0  0  0  0  0  0  0  0  0
   10.1946   -6.4995   26.2216 H   0  0  0  0  0  0  0  0  0  0  0  0
   10.7865   -5.8578   24.6518 H   0  0  0  0  0  0  0  0  0  0  0  0
   11.2285   -5.0312   26.1842 H   0  0  0  0  0  0  0  0  0  0  0  0
    9.3974    1.2912   24.5523 H   0  0  0  0  0  0  0  0  0  0  0  0
    9.5159    2.2168   23.0553 H   0  0  0  0  0  0  0  0  0  0  0  0
    8.2233   -1.5737   21.0809 H   0  0  0  0  0  0  0  0  0  0  0  0
  1  2  1  0  0  0  0
  1  5  2  0  0  0  0
  2  6  2  0  0  0  0
  3  4  2  0  0  0  0
  3 11  1  0  0  0  0
  4 14  1  0  0  0  0
  5 15  1  0  0  0  0
  6 16  1  0  0  0  0
  7  9  2  0  0  0  0
  7 17  1  0  0  0  0
  8 10  1  0  0  0  0
  8 17  2  0  0  0  0
  9 18  1  0  0  0  0
 10 18  2  0  0  0  0
 11 19  2  0  0  0  0
 12 14  2  0  0  0  0
 12 19  1  0  0  0  0
 13 24  2  0  0  0  0
 13 25  1  0  0  0  0
 14 23  1  0  0  0  0
 15 16  2  0  0  0  0
 15 24  1  0  0  0  0
 16 25  1  0  0  0  0
 17 27  1  0  0  0  0
 18 28  1  0  0  0  0
 19 30  1  0  0  0  0
 20 26  1  0  0  0  0
 20 27  1  0  0  0  0
 20 29  2  0  0  0  0
 21 28  1  0  0  0  0
 22 28  1  0  0  0  0
 23 27  1  0  0  0  0
 25 26  1  0  0  0  0
  1 31  1  0  0  0  0
  2 32  1  0  0  0  0
  3 33  1  0  0  0  0
  4 34  1  0  0  0  0
  5 35  1  0  0  0  0
  6 36  1  0  0  0  0
  7 37  1  0  0  0  0
  8 38  1  0  0  0  0
  9 39  1  0  0  0  0
 10 40  1  0  0  0  0
 11 41  1  0  0  0  0
 12 42  1  0  0  0  0
 13 43  1  0  0  0  0
 21 44  1  0  0  0  0
 21 45  1  0  0  0  0
 21 46  1  0  0  0  0
 22 47  1  0  0  0  0
 22 48  1  0  0  0  0
 22 49  1  0  0  0  0
 23 50  1  0  0  0  0
 23 51  1  0  0  0  0
 26 52  1  0  0  0  0
M  END
> <clash_score>
0

> <docking_score>
-8.590462684631348

> <overlap_score>
0.9891857504844666

$$$$
BENZO_32_1
  -OEChem-08222022163D

 51 54  0     0  0  0  0  0  0999 V2000
    3.9160    2.0630   19.5520 C   0  0  0  0  0  0  0  0  0  0  0  0
    4.2750    1.7050   20.8490 C   0  0  0  0  0  0  0  0  0  0  0  0
    4.6890    1.6810   18.4640 C   0  0  0  0  0  0  0  0  0  0  0  0
    5.4210    0.9600   21.0930 C   0  0  0  0  0  0  0  0  0  0  0  0
    8.9960   -2.3380   25.5320 C   0  0  0  0  0  0  0  0  0  0  0  0
    9.6730   -3.4710   23.5300 C   0  0  0  0  0  0  0  0  0  0  0  0
    9.0720   -1.1280   24.8640 C   0  0  0  0  0  0  0  0  0  0  0  0
    9.7200   -2.2600   22.8630 C   0  0  0  0  0  0  0  0  0  0  0  0
   12.2111    0.2208   23.7905 C   0  0  0  0  0  0  0  0  0  0  0  0
   13.5412    0.5479   23.9364 C   0  0  0  0  0  0  0  0  0  0  0  0
   12.1057    2.5424   23.8305 C   0  0  0  0  0  0  0  0  0  0  0  0
    7.6390   -0.2680   18.5410 C   0  0  0  0  0  0  0  0  0  0  0  0
   11.3794    1.3761   23.7290 C   0  0  0  0  0  0  0  0  0  0  0  0
    5.8300    0.9190   18.6970 C   0  0  0  0  0  0  0  0  0  0  0  0
    6.1790    0.5730   19.9990 C   0  0  0  0  0  0  0  0  0  0  0  0
    9.3070   -3.5340   24.8780 C   0  0  0  0  0  0  0  0  0  0  0  0
    9.3350   -1.0880   23.5010 C   0  0  0  0  0  0  0  0  0  0  0  0
    9.5334   -6.0236   25.0413 C   0  0  0  0  0  0  0  0  0  0  0  0
    9.0420    0.3700   21.5280 C   0  0  0  0  0  0  0  0  0  0  0  0
   10.6330   -7.3747   26.8774 C   0  0  0  0  0  0  0  0  0  0  0  0
    9.8870    1.3260   23.5730 C   0  0  0  0  0  0  0  0  0  0  0  0
    9.3523   -7.0865   26.1148 C   0  0  0  0  0  0  0  0  0  0  0  0
    6.7580    0.3810   17.8350 N   0  0  0  0  0  0  0  0  0  0  0  0
    7.3170   -0.1610   19.8550 N   0  0  0  0  0  0  0  0  0  0  0  0
    9.2546   -4.7422   25.5438 N   0  0  0  0  0  0  0  0  0  0  0  0
    8.1890   -0.7180   20.8700 N   0  0  0  0  0  0  0  0  0  0  0  0
    9.4560    0.1560   22.8130 N   0  0  0  0  0  0  0  0  0  0  0  0
    9.8806   -6.3052   23.8991 O   0  0  0  0  0  0  0  0  0  0  0  0
    9.2690    1.4140   20.9380 O   0  0  0  0  0  0  0  0  0  0  0  0
   13.7831    2.2420   23.9988 S   0  0  0  0  0  0  0  0  0  0  0  0
    3.0134    2.6521   19.3911 H   0  0  0  0  0  0  0  0  0  0  0  0
    3.6460    2.0127   21.6812 H   0  0  0  0  0  0  0  0  0  0  0  0
    4.4037    1.9731   17.4543 H   0  0  0  0  0  0  0  0  0  0  0  0
    5.7084    0.6923   22.1132 H   0  0  0  0  0  0  0  0  0  0  0  0
    8.6895   -2.3529   26.5807 H   0  0  0  0  0  0  0  0  0  0  0  0
    9.9262   -4.3897   22.9916 H   0  0  0  0  0  0  0  0  0  0  0  0
    8.9224   -0.1998   25.4238 H   0  0  0  0  0  0  0  0  0  0  0  0
   10.0649   -2.2343   21.8258 H   0  0  0  0  0  0  0  0  0  0  0  0
   11.8558   -0.8003   23.7315 H   0  0  0  0  0  0  0  0  0  0  0  0
   14.3824   -0.1267   24.0100 H   0  0  0  0  0  0  0  0  0  0  0  0
   11.7354    3.5581   23.8155 H   0  0  0  0  0  0  0  0  0  0  0  0
    8.4862   -0.8060   18.1787 H   0  0  0  0  0  0  0  0  0  0  0  0
   11.4241   -7.7171   26.2023 H   0  0  0  0  0  0  0  0  0  0  0  0
   10.4629   -8.1531   27.6275 H   0  0  0  0  0  0  0  0  0  0  0  0
   10.9950   -6.4779   27.3911 H   0  0  0  0  0  0  0  0  0  0  0  0
    9.3974    1.2912   24.5523 H   0  0  0  0  0  0  0  0  0  0  0  0
    9.5159    2.2168   23.0553 H   0  0  0  0  0  0  0  0  0  0  0  0
    8.5795   -6.7463   26.8137 H   0  0  0  0  0  0  0  0  0  0  0  0
    8.9966   -8.0064   25.6366 H   0  0  0  0  0  0  0  0  0  0  0  0
    8.9776   -4.7057   26.5317 H   0  0  0  0  0  0  0  0  0  0  0  0
    8.2233   -1.5737   21.0809 H   0  0  0  0  0  0  0  0  0  0  0  0
  1  2  1  0  0  0  0
  1  3  2  0  0  0  0
  2  4  2  0  0  0  0
  3 14  1  0  0  0  0
  4 15  1  0  0  0  0
  5  7  2  0  0  0  0
  5 16  1  0  0  0  0
  6  8  1  0  0  0  0
  6 16  2  0  0  0  0
  7 17  1  0  0  0  0
  8 17  2  0  0  0  0
  9 10  2  0  0  0  0
  9 13  1  0  0  0  0
 10 30  1  0  0  0  0
 11 13  2  0  0  0  0
 11 30  1  0  0  0  0
 12 23  2  0  0  0  0
 12 24  1  0  0  0  0
 13 21  1  0  0  0  0
 14 15  2  0  0  0  0
 14 23  1  0  0  0  0
 15 24  1  0  0  0  0
 16 25  1  0  0  0  0
 17 27  1  0  0  0  0
 18 22  1  0  0  0  0
 18 25  1  0  0  0  0
 18 28  2  0  0  0  0
 19 26  1  0  0  0  0
 19 27  1  0  0  0  0
 19 29  2  0  0  0  0
 20 22  1  0  0  0  0
 21 27  1  0  0  0  0
 24 26  1  0  0  0  0
  1 31  1  0  0  0  0
  2 32  1  0  0  0  0
  3 33  1  0  0  0  0
  4 34  1  0  0  0  0
  5 35  1  0  0  0  0
  6 36  1  0  0  0  0
  7 37  1  0  0  0  0
  8 38  1  0  0  0  0
  9 39  1  0  0  0  0
 10 40  1  0  0  0  0
 11 41  1  0  0  0  0
 12 42  1  0  0  0  0
 20 43  1  0  0  0  0
 20 44  1  0  0  0  0
 20 45  1  0  0  0  0
 21 46  1  0  0  0  0
 21 47  1  0  0  0  0
 22 48  1  0  0  0  0
 22 49  1  0  0  0  0
 25 50  1  0  0  0  0
 26 51  1  0  0  0  0
M  END
> <clash_score>
1.4986180656309704

> <docking_score>
-5.532357215881348

> <overlap_score>
0.9652435183525085

$$$$
BENZO_33_1
  -OEChem-08222022163D

 54 57  0     0  0  0  0  0  0999 V2000
   14.1526    1.4694   24.0176 C   0  0  0  0  0  0  0  0  0  0  0  0
   13.3741    0.8121   24.9701 C   0  0  0  0  0  0  0  0  0  0  0  0
   13.5446    2.0802   22.9208 C   0  0  0  0  0  0  0  0  0  0  0  0
    3.9160    2.0630   19.5520 C   0  0  0  0  0  0  0  0  0  0  0  0
    4.2750    1.7050   20.8490 C   0  0  0  0  0  0  0  0  0  0  0  0
   11.9875    0.7654   24.8258 C   0  0  0  0  0  0  0  0  0  0  0  0
   12.1580    2.0335   22.7765 C   0  0  0  0  0  0  0  0  0  0  0  0
    4.6890    1.6810   18.4640 C   0  0  0  0  0  0  0  0  0  0  0  0
    5.4210    0.9600   21.0930 C   0  0  0  0  0  0  0  0  0  0  0  0
    8.9960   -2.3380   25.5320 C   0  0  0  0  0  0  0  0  0  0  0  0
    9.6730   -3.4710   23.5300 C   0  0  0  0  0  0  0  0  0  0  0  0
    9.0720   -1.1280   24.8640 C   0  0  0  0  0  0  0  0  0  0  0  0
    9.7200   -2.2600   22.8630 C   0  0  0  0  0  0  0  0  0  0  0  0
    7.6390   -0.2680   18.5410 C   0  0  0  0  0  0  0  0  0  0  0  0
   11.3794    1.3761   23.7290 C   0  0  0  0  0  0  0  0  0  0  0  0
    5.8300    0.9190   18.6970 C   0  0  0  0  0  0  0  0  0  0  0  0
    6.1790    0.5730   19.9990 C   0  0  0  0  0  0  0  0  0  0  0  0
    9.3070   -3.5340   24.8780 C   0  0  0  0  0  0  0  0  0  0  0  0
    9.3350   -1.0880   23.5010 C   0  0  0  0  0  0  0  0  0  0  0  0
    9.5334   -6.0236   25.0413 C   0  0  0  0  0  0  0  0  0  0  0  0
    9.0420    0.3700   21.5280 C   0  0  0  0  0  0  0  0  0  0  0  0
   10.6330   -7.3747   26.8774 C   0  0  0  0  0  0  0  0  0  0  0  0
    9.8870    1.3260   23.5730 C   0  0  0  0  0  0  0  0  0  0  0  0
    9.3523   -7.0865   26.1148 C   0  0  0  0  0  0  0  0  0  0  0  0
    6.7580    0.3810   17.8350 N   0  0  0  0  0  0  0  0  0  0  0  0
    7.3170   -0.1610   19.8550 N   0  0  0  0  0  0  0  0  0  0  0  0
    9.2546   -4.7422   25.5438 N   0  0  0  0  0  0  0  0  0  0  0  0
    8.1890   -0.7180   20.8700 N   0  0  0  0  0  0  0  0  0  0  0  0
    9.4560    0.1560   22.8130 N   0  0  0  0  0  0  0  0  0  0  0  0
    9.8806   -6.3052   23.8991 O   0  0  0  0  0  0  0  0  0  0  0  0
    9.2690    1.4140   20.9380 O   0  0  0  0  0  0  0  0  0  0  0  0
   15.2322    1.5068   24.1308 H   0  0  0  0  0  0  0  0  0  0  0  0
   13.8473    0.3374   25.8248 H   0  0  0  0  0  0  0  0  0  0  0  0
   14.1503    2.5930   22.1795 H   0  0  0  0  0  0  0  0  0  0  0  0
    3.0134    2.6521   19.3911 H   0  0  0  0  0  0  0  0  0  0  0  0
    3.6460    2.0127   21.6812 H   0  0  0  0  0  0  0  0  0  0  0  0
   11.3889    0.2508   25.5729 H   0  0  0  0  0  0  0  0  0  0  0  0
   11.6930    2.5120   21.9187 H   0  0  0  0  0  0  0  0  0  0  0  0
    4.4037    1.9731   17.4543 H   0  0  0  0  0  0  0  0  0  0  0  0
    5.7084    0.6923   22.1132 H   0  0  0  0  0  0  0  0  0  0  0  0
    8.6895   -2.3529   26.5807 H   0  0  0  0  0  0  0  0  0  0  0  0
    9.9262   -4.3897   22.9916 H   0  0  0  0  0  0  0  0  0  0  0  0
    8.9224   -0.1998   25.4238 H   0  0  0  0  0  0  0  0  0  0  0  0
   10.0649   -2.2343   21.8258 H   0  0  0  0  0  0  0  0  0  0  0  0
    8.4862   -0.8060   18.1787 H   0  0  0  0  0  0  0  0  0  0  0  0
   11.4241   -7.7171   26.2023 H   0  0  0  0  0  0  0  0  0  0  0  0
   10.4629   -8.1531   27.6275 H   0  0  0  0  0  0  0  0  0  0  0  0
   10.9950   -6.4779   27.3911 H   0  0  0  0  0  0  0  0  0  0  0  0
    9.3974    1.2912   24.5523 H   0  0  0  0  0  0  0  0  0  0  0  0
    9.5159    2.2168   23.0553 H   0  0  0  0  0  0  0  0  0  0  0  0
    8.5795   -6.7463   26.8137 H   0  0  0  0  0  0  0  0  0  0  0  0
    8.9966   -8.0064   25.6366 H   0  0  0  0  0  0  0  0  0  0  0  0
    8.9776   -4.7057   26.5317 H   0  0  0  0  0  0  0  0  0  0  0  0
    8.2233   -1.5737   21.0809 H   0  0  0  0  0  0  0  0  0  0  0  0
  1  2  1  0  0  0  0
  1  3  2  0  0  0  0
  2  6  2  0  0  0  0
  3  7  1  0  0  0  0
  4  5  1  0  0  0  0
  4  8  2  0  0  0  0
  5  9  2  0  0  0  0
  6 15  1  0  0  0  0
  7 15  2  0  0  0  0
  8 16  1  0  0  0  0
  9 17  1  0  0  0  0
 10 12  2  0  0  0  0
 10 18  1  0  0  0  0
 11 13  1  0  0  0  0
 11 18  2  0  0  0  0
 12 19  1  0  0  0  0
 13 19  2  0  0  0  0
 14 25  2  0  0  0  0
 14 26  1  0  0  0  0
 15 23  1  0  0  0  0
 16 17  2  0  0  0  0
 16 25  1  0  0  0  0
 17 26  1  0  0  0  0
 18 27  1  0  0  0  0
 19 29  1  0  0  0  0
 20 24  1  0  0  0  0
 20 27  1  0  0  0  0
 20 30  2  0  0  0  0
 21 28  1  0  0  0  0
 21 29  1  0  0  0  0
 21 31  2  0  0  0  0
 22 24  1  0  0  0  0
 23 29  1  0  0  0  0
 26 28  1  0  0  0  0
  1 32  1  0  0  0  0
  2 33  1  0  0  0  0
  3 34  1  0  0  0  0
  4 35  1  0  0  0  0
  5 36  1  0  0  0  0
  6 37  1  0  0  0  0
  7 38  1  0  0  0  0
  8 39  1  0  0  0  0
  9 40  1  0  0  0  0
 10 41  1  0  0  0  0
 11 42  1  0  0  0  0
 12 43  1  0  0  0  0
 13 44  1  0  0  0  0
 14 45  1  0  0  0  0
 22 46  1  0  0  0  0
 22 47  1  0  0  0  0
 22 48  1  0  0  0  0
 23 49  1  0  0  0  0
 23 50  1  0  0  0  0
 24 51  1  0  0  0  0
 24 52  1  0  0  0  0
 27 53  1  0  0  0  0
 28 54  1  0  0  0  0
M  END
> <clash_score>
1.4986180656309704

> <docking_score>
-6.259191513061523

> <overlap_score>
0.9802294969558716

$$$$
BENZO_35_1
  -OEChem-08222022163D

 54 57  0     0  0  0  0  0  0999 V2000
    3.9160    2.0630   19.5520 C   0  0  0  0  0  0  0  0  0  0  0  0
    4.2750    1.7050   20.8490 C   0  0  0  0  0  0  0  0  0  0  0  0
    4.6890    1.6810   18.4640 C   0  0  0  0  0  0  0  0  0  0  0  0
    5.4210    0.9600   21.0930 C   0  0  0  0  0  0  0  0  0  0  0  0
    8.9960   -2.3380   25.5320 C   0  0  0  0  0  0  0  0  0  0  0  0
    9.6730   -3.4710   23.5300 C   0  0  0  0  0  0  0  0  0  0  0  0
    9.0720   -1.1280   24.8640 C   0  0  0  0  0  0  0  0  0  0  0  0
    9.7200   -2.2600   22.8630 C   0  0  0  0  0  0  0  0  0  0  0  0
   12.2914    2.2071   23.0512 C   0  0  0  0  0  0  0  0  0  0  0  0
   12.1614    0.6214   24.5689 C   0  0  0  0  0  0  0  0  0  0  0  0
    7.6390   -0.2680   18.5410 C   0  0  0  0  0  0  0  0  0  0  0  0
   11.3794    1.3761   23.7290 C   0  0  0  0  0  0  0  0  0  0  0  0
    5.8300    0.9190   18.6970 C   0  0  0  0  0  0  0  0  0  0  0  0
    6.1790    0.5730   19.9990 C   0  0  0  0  0  0  0  0  0  0  0  0
    9.3070   -3.5340   24.8780 C   0  0  0  0  0  0  0  0  0  0  0  0
    9.3350   -1.0880   23.5010 C   0  0  0  0  0  0  0  0  0  0  0  0
    9.5334   -6.0236   25.0413 C   0  0  0  0  0  0  0  0  0  0  0  0
    9.0420    0.3700   21.5280 C   0  0  0  0  0  0  0  0  0  0  0  0
   10.6330   -7.3747   26.8774 C   0  0  0  0  0  0  0  0  0  0  0  0
   14.6267    0.5248   25.0067 C   0  0  0  0  0  0  0  0  0  0  0  0
    9.8870    1.3260   23.5730 C   0  0  0  0  0  0  0  0  0  0  0  0
    9.3523   -7.0865   26.1148 C   0  0  0  0  0  0  0  0  0  0  0  0
   13.5560    2.0002   23.4280 N   0  0  0  0  0  0  0  0  0  0  0  0
    6.7580    0.3810   17.8350 N   0  0  0  0  0  0  0  0  0  0  0  0
   13.4442    1.0306   24.3518 N   0  0  0  0  0  0  0  0  0  0  0  0
    7.3170   -0.1610   19.8550 N   0  0  0  0  0  0  0  0  0  0  0  0
    9.2546   -4.7422   25.5438 N   0  0  0  0  0  0  0  0  0  0  0  0
    8.1890   -0.7180   20.8700 N   0  0  0  0  0  0  0  0  0  0  0  0
    9.4560    0.1560   22.8130 N   0  0  0  0  0  0  0  0  0  0  0  0
    9.8806   -6.3052   23.8991 O   0  0  0  0  0  0  0  0  0  0  0  0
    9.2690    1.4140   20.9380 O   0  0  0  0  0  0  0  0  0  0  0  0
    3.0134    2.6521   19.3911 H   0  0  0  0  0  0  0  0  0  0  0  0
    3.6460    2.0127   21.6812 H   0  0  0  0  0  0  0  0  0  0  0  0
    4.4037    1.9731   17.4543 H   0  0  0  0  0  0  0  0  0  0  0  0
    5.7084    0.6923   22.1132 H   0  0  0  0  0  0  0  0  0  0  0  0
    8.6895   -2.3529   26.5807 H   0  0  0  0  0  0  0  0  0  0  0  0
    9.9262   -4.3897   22.9916 H   0  0  0  0  0  0  0  0  0  0  0  0
    8.9224   -0.1998   25.4238 H   0  0  0  0  0  0  0  0  0  0  0  0
   10.0649   -2.2343   21.8258 H   0  0  0  0  0  0  0  0  0  0  0  0
   12.0895    2.9562   22.2987 H   0  0  0  0  0  0  0  0  0  0  0  0
   11.9202   -0.1518   25.2857 H   0  0  0  0  0  0  0  0  0  0  0  0
    8.4862   -0.8060   18.1787 H   0  0  0  0  0  0  0  0  0  0  0  0
   11.4241   -7.7171   26.2023 H   0  0  0  0  0  0  0  0  0  0  0  0
   10.4629   -8.1531   27.6275 H   0  0  0  0  0  0  0  0  0  0  0  0
   10.9950   -6.4779   27.3911 H   0  0  0  0  0  0  0  0  0  0  0  0
   15.0068   -0.3132   24.4165 H   0  0  0  0  0  0  0  0  0  0  0  0
   15.3758    1.3189   25.0698 H   0  0  0  0  0  0  0  0  0  0  0  0
   14.3676    0.1958   26.0170 H   0  0  0  0  0  0  0  0  0  0  0  0
    9.3974    1.2912   24.5523 H   0  0  0  0  0  0  0  0  0  0  0  0
    9.5159    2.2168   23.0553 H   0  0  0  0  0  0  0  0  0  0  0  0
    8.5795   -6.7463   26.8137 H   0  0  0  0  0  0  0  0  0  0  0  0
    8.9966   -8.0064   25.6366 H   0  0  0  0  0  0  0  0  0  0  0  0
    8.9776   -4.7057   26.5317 H   0  0  0  0  0  0  0  0  0  0  0  0
    8.2233   -1.5737   21.0809 H   0  0  0  0  0  0  0  0  0  0  0  0
  1  2  1  0  0  0  0
  1  3  2  0  0  0  0
  2  4  2  0  0  0  0
  3 13  1  0  0  0  0
  4 14  1  0  0  0  0
  5  7  2  0  0  0  0
  5 15  1  0  0  0  0
  6  8  1  0  0  0  0
  6 15  2  0  0  0  0
  7 16  1  0  0  0  0
  8 16  2  0  0  0  0
  9 12  1  0  0  0  0
  9 23  2  0  0  0  0
 10 12  2  0  0  0  0
 10 25  1  0  0  0  0
 11 24  2  0  0  0  0
 11 26  1  0  0  0  0
 12 21  1  0  0  0  0
 13 14  2  0  0  0  0
 13 24  1  0  0  0  0
 14 26  1  0  0  0  0
 15 27  1  0  0  0  0
 16 29  1  0  0  0  0
 17 22  1  0  0  0  0
 17 27  1  0  0  0  0
 17 30  2  0  0  0  0
 18 28  1  0  0  0  0
 18 29  1  0  0  0  0
 18 31  2  0  0  0  0
 19 22  1  0  0  0  0
 20 25  1  0  0  0  0
 21 29  1  0  0  0  0
 23 25  1  0  0  0  0
 26 28  1  0  0  0  0
  1 32  1  0  0  0  0
  2 33  1  0  0  0  0
  3 34  1  0  0  0  0
  4 35  1  0  0  0  0
  5 36  1  0  0  0  0
  6 37  1  0  0  0  0
  7 38  1  0  0  0  0
  8 39  1  0  0  0  0
  9 40  1  0  0  0  0
 10 41  1  0  0  0  0
 11 42  1  0  0  0  0
 19 43  1  0  0  0  0
 19 44  1  0  0  0  0
 19 45  1  0  0  0  0
 20 46  1  0  0  0  0
 20 47  1  0  0  0  0
 20 48  1  0  0  0  0
 21 49  1  0  0  0  0
 21 50  1  0  0  0  0
 22 51  1  0  0  0  0
 22 52  1  0  0  0  0
 27 53  1  0  0  0  0
 28 54  1  0  0  0  0
M  END
> <clash_score>
2.118561540892115

> <docking_score>
-5.967194080352783

> <overlap_score>
0.9790109992027283

$$$$
BENZO_37_1
  -OEChem-08222022163D

 59 63  0     0  0  0  0  0  0999 V2000
   14.1526    1.4694   24.0176 C   0  0  0  0  0  0  0  0  0  0  0  0
   13.3741    0.8121   24.9701 C   0  0  0  0  0  0  0  0  0  0  0  0
   13.5446    2.0802   22.9208 C   0  0  0  0  0  0  0  0  0  0  0  0
    3.9160    2.0630   19.5520 C   0  0  0  0  0  0  0  0  0  0  0  0
    4.2750    1.7050   20.8490 C   0  0  0  0  0  0  0  0  0  0  0  0
   11.9875    0.7654   24.8259 C   0  0  0  0  0  0  0  0  0  0  0  0
   12.1580    2.0335   22.7765 C   0  0  0  0  0  0  0  0  0  0  0  0
    4.6890    1.6810   18.4640 C   0  0  0  0  0  0  0  0  0  0  0  0
    5.4210    0.9600   21.0930 C   0  0  0  0  0  0  0  0  0  0  0  0
    8.9960   -2.3380   25.5320 C   0  0  0  0  0  0  0  0  0  0  0  0
    9.6730   -3.4710   23.5300 C   0  0  0  0  0  0  0  0  0  0  0  0
    9.0720   -1.1280   24.8640 C   0  0  0  0  0  0  0  0  0  0  0  0
    9.7200   -2.2600   22.8630 C   0  0  0  0  0  0  0  0  0  0  0  0
    7.6390   -0.2680   18.5410 C   0  0  0  0  0  0  0  0  0  0  0  0
   11.3794    1.3761   23.7290 C   0  0  0  0  0  0  0  0  0  0  0  0
    5.8300    0.9190   18.6970 C   0  0  0  0  0  0  0  0  0  0  0  0
    6.1790    0.5730   19.9990 C   0  0  0  0  0  0  0  0  0  0  0  0
    9.3070   -3.5340   24.8780 C   0  0  0  0  0  0  0  0  0  0  0  0
    9.3350   -1.0880   23.5010 C   0  0  0  0  0  0  0  0  0  0  0  0
    9.0420    0.3700   21.5280 C   0  0  0  0  0  0  0  0  0  0  0  0
    7.3635   -6.1361   27.1888 C   0  0  0  0  0  0  0  0  0  0  0  0
    8.1961   -4.9735   27.7341 C   0  0  0  0  0  0  0  0  0  0  0  0
    7.1942   -6.0394   25.6709 C   0  0  0  0  0  0  0  0  0  0  0  0
    9.5196   -4.8490   26.9797 C   0  0  0  0  0  0  0  0  0  0  0  0
    8.5442   -5.8838   24.9639 C   0  0  0  0  0  0  0  0  0  0  0  0
    9.8870    1.3260   23.5730 C   0  0  0  0  0  0  0  0  0  0  0  0
    6.7580    0.3810   17.8350 N   0  0  0  0  0  0  0  0  0  0  0  0
    7.3170   -0.1610   19.8550 N   0  0  0  0  0  0  0  0  0  0  0  0
    9.2562   -4.7384   25.5422 N   0  0  0  0  0  0  0  0  0  0  0  0
    8.1890   -0.7180   20.8700 N   0  0  0  0  0  0  0  0  0  0  0  0
    9.4560    0.1560   22.8130 N   0  0  0  0  0  0  0  0  0  0  0  0
    9.2690    1.4140   20.9380 O   0  0  0  0  0  0  0  0  0  0  0  0
   15.2322    1.5068   24.1308 H   0  0  0  0  0  0  0  0  0  0  0  0
   13.8473    0.3374   25.8248 H   0  0  0  0  0  0  0  0  0  0  0  0
   14.1503    2.5930   22.1795 H   0  0  0  0  0  0  0  0  0  0  0  0
    3.0134    2.6521   19.3911 H   0  0  0  0  0  0  0  0  0  0  0  0
    3.6460    2.0127   21.6812 H   0  0  0  0  0  0  0  0  0  0  0  0
   11.3889    0.2508   25.5729 H   0  0  0  0  0  0  0  0  0  0  0  0
   11.6930    2.5120   21.9187 H   0  0  0  0  0  0  0  0  0  0  0  0
    4.4037    1.9731   17.4543 H   0  0  0  0  0  0  0  0  0  0  0  0
    5.7084    0.6923   22.1132 H   0  0  0  0  0  0  0  0  0  0  0  0
    8.6905   -2.3533   26.5810 H   0  0  0  0  0  0  0  0  0  0  0  0
    9.9266   -4.3896   22.9917 H   0  0  0  0  0  0  0  0  0  0  0  0
    8.9233   -0.1992   25.4231 H   0  0  0  0  0  0  0  0  0  0  0  0
   10.0650   -2.2330   21.8256 H   0  0  0  0  0  0  0  0  0  0  0  0
    8.4862   -0.8060   18.1787 H   0  0  0  0  0  0  0  0  0  0  0  0
    7.8482   -7.0901   27.4469 H   0  0  0  0  0  0  0  0  0  0  0  0
    6.3760   -6.1438   27.6724 H   0  0  0  0  0  0  0  0  0  0  0  0
    7.6307   -4.0424   27.6403 H   0  0  0  0  0  0  0  0  0  0  0  0
    8.3915   -5.1310   28.7968 H   0  0  0  0  0  0  0  0  0  0  0  0
    6.6888   -6.9376   25.3010 H   0  0  0  0  0  0  0  0  0  0  0  0
    6.5515   -5.1859   25.4257 H   0  0  0  0  0  0  0  0  0  0  0  0
   10.0492   -3.9640   27.3414 H   0  0  0  0  0  0  0  0  0  0  0  0
   10.1431   -5.7254   27.1778 H   0  0  0  0  0  0  0  0  0  0  0  0
    9.1338   -6.7931   25.0868 H   0  0  0  0  0  0  0  0  0  0  0  0
    8.3656   -5.7264   23.8998 H   0  0  0  0  0  0  0  0  0  0  0  0
    9.3974    1.2912   24.5523 H   0  0  0  0  0  0  0  0  0  0  0  0
    9.5159    2.2168   23.0553 H   0  0  0  0  0  0  0  0  0  0  0  0
    8.2565   -1.5523   21.1108 H   0  0  0  0  0  0  0  0  0  0  0  0
  1  2  1  0  0  0  0
  1  3  2  0  0  0  0
  2  6  2  0  0  0  0
  3  7  1  0  0  0  0
  4  5  1  0  0  0  0
  4  8  2  0  0  0  0
  5  9  2  0  0  0  0
  6 15  1  0  0  0  0
  7 15  2  0  0  0  0
  8 16  1  0  0  0  0
  9 17  1  0  0  0  0
 10 12  2  0  0  0  0
 10 18  1  0  0  0  0
 11 13  1  0  0  0  0
 11 18  2  0  0  0  0
 12 19  1  0  0  0  0
 13 19  2  0  0  0  0
 14 27  2  0  0  0  0
 14 28  1  0  0  0  0
 15 26  1  0  0  0  0
 16 17  2  0  0  0  0
 16 27  1  0  0  0  0
 17 28  1  0  0  0  0
 18 29  1  0  0  0  0
 19 31  1  0  0  0  0
 20 30  1  0  0  0  0
 20 31  1  0  0  0  0
 20 32  2  0  0  0  0
 21 22  1  0  0  0  0
 21 23  1  0  0  0  0
 22 24  1  0  0  0  0
 23 25  1  0  0  0  0
 24 29  1  0  0  0  0
 25 29  1  0  0  0  0
 26 31  1  0  0  0  0
 28 30  1  0  0  0  0
  1 33  1  0  0  0  0
  2 34  1  0  0  0  0
  3 35  1  0  0  0  0
  4 36  1  0  0  0  0
  5 37  1  0  0  0  0
  6 38  1  0  0  0  0
  7 39  1  0  0  0  0
  8 40  1  0  0  0  0
  9 41  1  0  0  0  0
 10 42  1  0  0  0  0
 11 43  1  0  0  0  0
 12 44  1  0  0  0  0
 13 45  1  0  0  0  0
 14 46  1  0  0  0  0
 21 47  1  0  0  0  0
 21 48  1  0  0  0  0
 22 49  1  0  0  0  0
 22 50  1  0  0  0  0
 23 51  1  0  0  0  0
 23 52  1  0  0  0  0
 24 53  1  0  0  0  0
 24 54  1  0  0  0  0
 25 55  1  0  0  0  0
 25 56  1  0  0  0  0
 26 57  1  0  0  0  0
 26 58  1  0  0  0  0
 30 59  1  0  0  0  0
M  END
> <clash_score>
0

> <docking_score>
-8.549254417419434

> <overlap_score>
0.9931821227073669

$$$$
BENZO_34_1
  -OEChem-08222022163D

 54 57  0     0  0  0  0  0  0999 V2000
    3.9160    2.0630   19.5520 C   0  0  0  0  0  0  0  0  0  0  0  0
    4.2750    1.7050   20.8490 C   0  0  0  0  0  0  0  0  0  0  0  0
   13.4007    0.5725   24.7805 C   0  0  0  0  0  0  0  0  0  0  0  0
   12.0141    0.5273   24.6359 C   0  0  0  0  0  0  0  0  0  0  0  0
    4.6890    1.6810   18.4640 C   0  0  0  0  0  0  0  0  0  0  0  0
    5.4210    0.9600   21.0930 C   0  0  0  0  0  0  0  0  0  0  0  0
    8.9960   -2.3380   25.5320 C   0  0  0  0  0  0  0  0  0  0  0  0
    9.6730   -3.4710   23.5300 C   0  0  0  0  0  0  0  0  0  0  0  0
    9.0720   -1.1280   24.8640 C   0  0  0  0  0  0  0  0  0  0  0  0
    9.7200   -2.2600   22.8630 C   0  0  0  0  0  0  0  0  0  0  0  0
   14.1526    1.4666   24.0184 C   0  0  0  0  0  0  0  0  0  0  0  0
   12.1314    2.2702   22.9668 C   0  0  0  0  0  0  0  0  0  0  0  0
    7.6390   -0.2680   18.5410 C   0  0  0  0  0  0  0  0  0  0  0  0
   11.3794    1.3761   23.7290 C   0  0  0  0  0  0  0  0  0  0  0  0
    5.8300    0.9190   18.6970 C   0  0  0  0  0  0  0  0  0  0  0  0
    6.1790    0.5730   19.9990 C   0  0  0  0  0  0  0  0  0  0  0  0
    9.3070   -3.5340   24.8780 C   0  0  0  0  0  0  0  0  0  0  0  0
    9.3350   -1.0880   23.5010 C   0  0  0  0  0  0  0  0  0  0  0  0
   13.5180    2.3154   23.1115 C   0  0  0  0  0  0  0  0  0  0  0  0
    9.5334   -6.0236   25.0413 C   0  0  0  0  0  0  0  0  0  0  0  0
    9.0420    0.3700   21.5280 C   0  0  0  0  0  0  0  0  0  0  0  0
   10.6330   -7.3747   26.8774 C   0  0  0  0  0  0  0  0  0  0  0  0
    9.8870    1.3260   23.5730 C   0  0  0  0  0  0  0  0  0  0  0  0
    9.3523   -7.0865   26.1148 C   0  0  0  0  0  0  0  0  0  0  0  0
    6.7580    0.3810   17.8350 N   0  0  0  0  0  0  0  0  0  0  0  0
    7.3170   -0.1610   19.8550 N   0  0  0  0  0  0  0  0  0  0  0  0
    9.2546   -4.7422   25.5438 N   0  0  0  0  0  0  0  0  0  0  0  0
    8.1890   -0.7180   20.8700 N   0  0  0  0  0  0  0  0  0  0  0  0
    9.4560    0.1560   22.8130 N   0  0  0  0  0  0  0  0  0  0  0  0
    9.8806   -6.3052   23.8991 O   0  0  0  0  0  0  0  0  0  0  0  0
    9.2690    1.4140   20.9380 O   0  0  0  0  0  0  0  0  0  0  0  0
   14.4463    3.4175   22.1707 Cl  0  0  0  0  0  0  0  0  0  0  0  0
    3.0134    2.6521   19.3911 H   0  0  0  0  0  0  0  0  0  0  0  0
    3.6460    2.0127   21.6812 H   0  0  0  0  0  0  0  0  0  0  0  0
   13.8945   -0.0888   25.4867 H   0  0  0  0  0  0  0  0  0  0  0  0
   11.4361   -0.1726   25.2338 H   0  0  0  0  0  0  0  0  0  0  0  0
    4.4037    1.9731   17.4543 H   0  0  0  0  0  0  0  0  0  0  0  0
    5.7084    0.6923   22.1132 H   0  0  0  0  0  0  0  0  0  0  0  0
    8.6895   -2.3529   26.5807 H   0  0  0  0  0  0  0  0  0  0  0  0
    9.9262   -4.3897   22.9916 H   0  0  0  0  0  0  0  0  0  0  0  0
    8.9224   -0.1998   25.4238 H   0  0  0  0  0  0  0  0  0  0  0  0
   10.0649   -2.2343   21.8258 H   0  0  0  0  0  0  0  0  0  0  0  0
   15.2326    1.4907   24.1414 H   0  0  0  0  0  0  0  0  0  0  0  0
   11.6318    2.9303   22.2615 H   0  0  0  0  0  0  0  0  0  0  0  0
    8.4862   -0.8060   18.1787 H   0  0  0  0  0  0  0  0  0  0  0  0
   11.4241   -7.7171   26.2023 H   0  0  0  0  0  0  0  0  0  0  0  0
   10.4629   -8.1531   27.6275 H   0  0  0  0  0  0  0  0  0  0  0  0
   10.9950   -6.4779   27.3911 H   0  0  0  0  0  0  0  0  0  0  0  0
    9.3974    1.2912   24.5523 H   0  0  0  0  0  0  0  0  0  0  0  0
    9.5159    2.2168   23.0553 H   0  0  0  0  0  0  0  0  0  0  0  0
    8.5795   -6.7463   26.8137 H   0  0  0  0  0  0  0  0  0  0  0  0
    8.9966   -8.0064   25.6366 H   0  0  0  0  0  0  0  0  0  0  0  0
    8.9776   -4.7057   26.5317 H   0  0  0  0  0  0  0  0  0  0  0  0
    8.2233   -1.5737   21.0809 H   0  0  0  0  0  0  0  0  0  0  0  0
  1  2  1  0  0  0  0
  1  5  2  0  0  0  0
  2  6  2  0  0  0  0
  3  4  2  0  0  0  0
  3 11  1  0  0  0  0
  4 14  1  0  0  0  0
  5 15  1  0  0  0  0
  6 16  1  0  0  0  0
  7  9  2  0  0  0  0
  7 17  1  0  0  0  0
  8 10  1  0  0  0  0
  8 17  2  0  0  0  0
  9 18  1  0  0  0  0
 10 18  2  0  0  0  0
 11 19  2  0  0  0  0
 12 14  2  0  0  0  0
 12 19  1  0  0  0  0
 13 25  2  0  0  0  0
 13 26  1  0  0  0  0
 14 23  1  0  0  0  0
 15 16  2  0  0  0  0
 15 25  1  0  0  0  0
 16 26  1  0  0  0  0
 17 27  1  0  0  0  0
 18 29  1  0  0  0  0
 19 32  1  0  0  0  0
 20 24  1  0  0  0  0
 20 27  1  0  0  0  0
 20 30  2  0  0  0  0
 21 28  1  0  0  0  0
 21 29  1  0  0  0  0
 21 31  2  0  0  0  0
 22 24  1  0  0  0  0
 23 29  1  0  0  0  0
 26 28  1  0  0  0  0
  1 33  1  0  0  0  0
  2 34  1  0  0  0  0
  3 35  1  0  0  0  0
  4 36  1  0  0  0  0
  5 37  1  0  0  0  0
  6 38  1  0  0  0  0
  7 39  1  0  0  0  0
  8 40  1  0  0  0  0
  9 41  1  0  0  0  0
 10 42  1  0  0  0  0
 11 43  1  0  0  0  0
 12 44  1  0  0  0  0
 13 45  1  0  0  0  0
 22 46  1  0  0  0  0
 22 47  1  0  0  0  0
 22 48  1  0  0  0  0
 23 49  1  0  0  0  0
 23 50  1  0  0  0  0
 24 51  1  0  0  0  0
 24 52  1  0  0  0  0
 27 53  1  0  0  0  0
 28 54  1  0  0  0  0
M  END
> <clash_score>
1.4986180656309704

> <docking_score>
-5.396161079406738

> <overlap_score>
0.9913631081581116

$$$$
BENZO_36_1
  -OEChem-08222022163D

 56 60  0     0  0  0  0  0  0999 V2000
    3.9160    2.0630   19.5520 C   0  0  0  0  0  0  0  0  0  0  0  0
    4.2750    1.7050   20.8490 C   0  0  0  0  0  0  0  0  0  0  0  0
    4.6890    1.6810   18.4640 C   0  0  0  0  0  0  0  0  0  0  0  0
    5.4210    0.9600   21.0930 C   0  0  0  0  0  0  0  0  0  0  0  0
    8.9960   -2.3380   25.5320 C   0  0  0  0  0  0  0  0  0  0  0  0
    9.6730   -3.4710   23.5300 C   0  0  0  0  0  0  0  0  0  0  0  0
    9.0720   -1.1280   24.8640 C   0  0  0  0  0  0  0  0  0  0  0  0
    9.7200   -2.2600   22.8630 C   0  0  0  0  0  0  0  0  0  0  0  0
   12.2913    1.4279   22.6355 C   0  0  0  0  0  0  0  0  0  0  0  0
   13.6024    1.4662   23.0564 C   0  0  0  0  0  0  0  0  0  0  0  0
   12.0284    1.3764   24.9443 C   0  0  0  0  0  0  0  0  0  0  0  0
    7.6390   -0.2680   18.5410 C   0  0  0  0  0  0  0  0  0  0  0  0
   11.3794    1.3761   23.7290 C   0  0  0  0  0  0  0  0  0  0  0  0
    5.8300    0.9190   18.6970 C   0  0  0  0  0  0  0  0  0  0  0  0
    6.1790    0.5730   19.9990 C   0  0  0  0  0  0  0  0  0  0  0  0
    9.3070   -3.5340   24.8780 C   0  0  0  0  0  0  0  0  0  0  0  0
    9.3350   -1.0880   23.5010 C   0  0  0  0  0  0  0  0  0  0  0  0
    9.0420    0.3700   21.5280 C   0  0  0  0  0  0  0  0  0  0  0  0
    7.2235   -6.6199   26.3009 C   0  0  0  0  0  0  0  0  0  0  0  0
    7.4293   -5.3101   27.0652 C   0  0  0  0  0  0  0  0  0  0  0  0
    7.7217   -6.5099   24.8580 C   0  0  0  0  0  0  0  0  0  0  0  0
    8.8782   -4.8357   26.9548 C   0  0  0  0  0  0  0  0  0  0  0  0
    9.1652   -6.0007   24.7995 C   0  0  0  0  0  0  0  0  0  0  0  0
    9.8870    1.3260   23.5730 C   0  0  0  0  0  0  0  0  0  0  0  0
    6.7580    0.3810   17.8350 N   0  0  0  0  0  0  0  0  0  0  0  0
    7.3170   -0.1610   19.8550 N   0  0  0  0  0  0  0  0  0  0  0  0
    9.2562   -4.7384   25.5422 N   0  0  0  0  0  0  0  0  0  0  0  0
    8.1890   -0.7180   20.8700 N   0  0  0  0  0  0  0  0  0  0  0  0
    9.4560    0.1560   22.8130 N   0  0  0  0  0  0  0  0  0  0  0  0
    9.2690    1.4140   20.9380 O   0  0  0  0  0  0  0  0  0  0  0  0
   13.7301    1.4394   24.7638 S   0  0  0  0  0  0  0  0  0  0  0  0
    3.0134    2.6521   19.3911 H   0  0  0  0  0  0  0  0  0  0  0  0
    3.6460    2.0127   21.6812 H   0  0  0  0  0  0  0  0  0  0  0  0
    4.4037    1.9731   17.4543 H   0  0  0  0  0  0  0  0  0  0  0  0
    5.7084    0.6923   22.1132 H   0  0  0  0  0  0  0  0  0  0  0  0
    8.6905   -2.3533   26.5810 H   0  0  0  0  0  0  0  0  0  0  0  0
    9.9266   -4.3896   22.9917 H   0  0  0  0  0  0  0  0  0  0  0  0
    8.9233   -0.1992   25.4231 H   0  0  0  0  0  0  0  0  0  0  0  0
   10.0650   -2.2330   21.8256 H   0  0  0  0  0  0  0  0  0  0  0  0
   12.0045    1.4365   21.5915 H   0  0  0  0  0  0  0  0  0  0  0  0
   14.4914    1.5078   22.4431 H   0  0  0  0  0  0  0  0  0  0  0  0
   11.5886    1.3416   25.9314 H   0  0  0  0  0  0  0  0  0  0  0  0
    8.4862   -0.8060   18.1787 H   0  0  0  0  0  0  0  0  0  0  0  0
    7.7559   -7.4347   26.8149 H   0  0  0  0  0  0  0  0  0  0  0  0
    6.1572   -6.8883   26.3055 H   0  0  0  0  0  0  0  0  0  0  0  0
    6.7602   -4.5435   26.6651 H   0  0  0  0  0  0  0  0  0  0  0  0
    7.1684   -5.4551   28.1155 H   0  0  0  0  0  0  0  0  0  0  0  0
    7.6595   -7.4899   24.3736 H   0  0  0  0  0  0  0  0  0  0  0  0
    7.0706   -5.8317   24.2943 H   0  0  0  0  0  0  0  0  0  0  0  0
    8.9681   -3.8621   27.4435 H   0  0  0  0  0  0  0  0  0  0  0  0
    9.5387   -5.5390   27.4697 H   0  0  0  0  0  0  0  0  0  0  0  0
    9.8374   -6.7413   25.2344 H   0  0  0  0  0  0  0  0  0  0  0  0
    9.4414   -5.8515   23.7552 H   0  0  0  0  0  0  0  0  0  0  0  0
    9.3974    1.2912   24.5523 H   0  0  0  0  0  0  0  0  0  0  0  0
    9.5159    2.2168   23.0553 H   0  0  0  0  0  0  0  0  0  0  0  0
    8.2565   -1.5523   21.1108 H   0  0  0  0  0  0  0  0  0  0  0  0
  1  2  1  0  0  0  0
  1  3  2  0  0  0  0
  2  4  2  0  0  0  0
  3 14  1  0  0  0  0
  4 15  1  0  0  0  0
  5  7  2  0  0  0  0
  5 16  1  0  0  0  0
  6  8  1  0  0  0  0
  6 16  2  0  0  0  0
  7 17  1  0  0  0  0
  8 17  2  0  0  0  0
  9 10  2  0  0  0  0
  9 13  1  0  0  0  0
 10 31  1  0  0  0  0
 11 13  2  0  0  0  0
 11 31  1  0  0  0  0
 12 25  2  0  0  0  0
 12 26  1  0  0  0  0
 13 24  1  0  0  0  0
 14 15  2  0  0  0  0
 14 25  1  0  0  0  0
 15 26  1  0  0  0  0
 16 27  1  0  0  0  0
 17 29  1  0  0  0  0
 18 28  1  0  0  0  0
 18 29  1  0  0  0  0
 18 30  2  0  0  0  0
 19 20  1  0  0  0  0
 19 21  1  0  0  0  0
 20 22  1  0  0  0  0
 21 23  1  0  0  0  0
 22 27  1  0  0  0  0
 23 27  1  0  0  0  0
 24 29  1  0  0  0  0
 26 28  1  0  0  0  0
  1 32  1  0  0  0  0
  2 33  1  0  0  0  0
  3 34  1  0  0  0  0
  4 35  1  0  0  0  0
  5 36  1  0  0  0  0
  6 37  1  0  0  0  0
  7 38  1  0  0  0  0
  8 39  1  0  0  0  0
  9 40  1  0  0  0  0
 10 41  1  0  0  0  0
 11 42  1  0  0  0  0
 12 43  1  0  0  0  0
 19 44  1  0  0  0  0
 19 45  1  0  0  0  0
 20 46  1  0  0  0  0
 20 47  1  0  0  0  0
 21 48  1  0  0  0  0
 21 49  1  0  0  0  0
 22 50  1  0  0  0  0
 22 51  1  0  0  0  0
 23 52  1  0  0  0  0
 23 53  1  0  0  0  0
 24 54  1  0  0  0  0
 24 55  1  0  0  0  0
 28 56  1  0  0  0  0
M  END
> <clash_score>
0

> <docking_score>
-8.451752662658691

> <overlap_score>
0.9782363772392273

$$$$
BENZO_38_1
  -OEChem-08222022163D

 59 63  0     0  0  0  0  0  0999 V2000
    3.9160    2.0630   19.5520 C   0  0  0  0  0  0  0  0  0  0  0  0
    4.2750    1.7050   20.8490 C   0  0  0  0  0  0  0  0  0  0  0  0
   13.4007    0.5725   24.7805 C   0  0  0  0  0  0  0  0  0  0  0  0
   12.0141    0.5273   24.6359 C   0  0  0  0  0  0  0  0  0  0  0  0
    4.6890    1.6810   18.4640 C   0  0  0  0  0  0  0  0  0  0  0  0
    5.4210    0.9600   21.0930 C   0  0  0  0  0  0  0  0  0  0  0  0
    8.9960   -2.3380   25.5320 C   0  0  0  0  0  0  0  0  0  0  0  0
    9.6730   -3.4710   23.5300 C   0  0  0  0  0  0  0  0  0  0  0  0
    9.0720   -1.1280   24.8640 C   0  0  0  0  0  0  0  0  0  0  0  0
    9.7200   -2.2600   22.8630 C   0  0  0  0  0  0  0  0  0  0  0  0
   14.1526    1.4666   24.0184 C   0  0  0  0  0  0  0  0  0  0  0  0
   12.1314    2.2702   22.9668 C   0  0  0  0  0  0  0  0  0  0  0  0
    7.6390   -0.2680   18.5410 C   0  0  0  0  0  0  0  0  0  0  0  0
   11.3794    1.3761   23.7290 C   0  0  0  0  0  0  0  0  0  0  0  0
    5.8300    0.9190   18.6970 C   0  0  0  0  0  0  0  0  0  0  0  0
    6.1790    0.5730   19.9990 C   0  0  0  0  0  0  0  0  0  0  0  0
    9.3070   -3.5340   24.8780 C   0  0  0  0  0  0  0  0  0  0  0  0
    9.3350   -1.0880   23.5010 C   0  0  0  0  0  0  0  0  0  0  0  0
   13.5180    2.3154   23.1115 C   0  0  0  0  0  0  0  0  0  0  0  0
    9.0420    0.3700   21.5280 C   0  0  0  0  0  0  0  0  0  0  0  0
    7.3635   -6.1361   27.1888 C   0  0  0  0  0  0  0  0  0  0  0  0
    8.1961   -4.9735   27.7341 C   0  0  0  0  0  0  0  0  0  0  0  0
    7.1942   -6.0394   25.6709 C   0  0  0  0  0  0  0  0  0  0  0  0
    9.5196   -4.8490   26.9797 C   0  0  0  0  0  0  0  0  0  0  0  0
    8.5442   -5.8838   24.9639 C   0  0  0  0  0  0  0  0  0  0  0  0
    9.8870    1.3260   23.5730 C   0  0  0  0  0  0  0  0  0  0  0  0
    6.7580    0.3810   17.8350 N   0  0  0  0  0  0  0  0  0  0  0  0
    7.3170   -0.1610   19.8550 N   0  0  0  0  0  0  0  0  0  0  0  0
    9.2562   -4.7384   25.5422 N   0  0  0  0  0  0  0  0  0  0  0  0
    8.1890   -0.7180   20.8700 N   0  0  0  0  0  0  0  0  0  0  0  0
    9.4560    0.1560   22.8130 N   0  0  0  0  0  0  0  0  0  0  0  0
    9.2690    1.4140   20.9380 O   0  0  0  0  0  0  0  0  0  0  0  0
   14.4463    3.4175   22.1707 Cl  0  0  0  0  0  0  0  0  0  0  0  0
    3.0134    2.6521   19.3911 H   0  0  0  0  0  0  0  0  0  0  0  0
    3.6460    2.0127   21.6812 H   0  0  0  0  0  0  0  0  0  0  0  0
   13.8945   -0.0888   25.4867 H   0  0  0  0  0  0  0  0  0  0  0  0
   11.4361   -0.1726   25.2338 H   0  0  0  0  0  0  0  0  0  0  0  0
    4.4037    1.9731   17.4543 H   0  0  0  0  0  0  0  0  0  0  0  0
    5.7084    0.6923   22.1132 H   0  0  0  0  0  0  0  0  0  0  0  0
    8.6905   -2.3533   26.5810 H   0  0  0  0  0  0  0  0  0  0  0  0
    9.9266   -4.3896   22.9917 H   0  0  0  0  0  0  0  0  0  0  0  0
    8.9233   -0.1992   25.4231 H   0  0  0  0  0  0  0  0  0  0  0  0
   10.0650   -2.2330   21.8256 H   0  0  0  0  0  0  0  0  0  0  0  0
   15.2326    1.4907   24.1414 H   0  0  0  0  0  0  0  0  0  0  0  0
   11.6318    2.9303   22.2615 H   0  0  0  0  0  0  0  0  0  0  0  0
    8.4862   -0.8060   18.1787 H   0  0  0  0  0  0  0  0  0  0  0  0
    7.8482   -7.0901   27.4469 H   0  0  0  0  0  0  0  0  0  0  0  0
    6.3760   -6.1438   27.6724 H   0  0  0  0  0  0  0  0  0  0  0  0
    7.6307   -4.0424   27.6403 H   0  0  0  0  0  0  0  0  0  0  0  0
    8.3915   -5.1310   28.7968 H   0  0  0  0  0  0  0  0  0  0  0  0
    6.6888   -6.9376   25.3010 H   0  0  0  0  0  0  0  0  0  0  0  0
    6.5515   -5.1859   25.4257 H   0  0  0  0  0  0  0  0  0  0  0  0
   10.0492   -3.9640   27.3414 H   0  0  0  0  0  0  0  0  0  0  0  0
   10.1431   -5.7254   27.1778 H   0  0  0  0  0  0  0  0  0  0  0  0
    9.1338   -6.7931   25.0868 H   0  0  0  0  0  0  0  0  0  0  0  0
    8.3656   -5.7264   23.8998 H   0  0  0  0  0  0  0  0  0  0  0  0
    9.3974    1.2912   24.5523 H   0  0  0  0  0  0  0  0  0  0  0  0
    9.5159    2.2168   23.0553 H   0  0  0  0  0  0  0  0  0  0  0  0
    8.2565   -1.5523   21.1108 H   0  0  0  0  0  0  0  0  0  0  0  0
  1  2  1  0  0  0  0
  1  5  2  0  0  0  0
  2  6  2  0  0  0  0
  3  4  2  0  0  0  0
  3 11  1  0  0  0  0
  4 14  1  0  0  0  0
  5 15  1  0  0  0  0
  6 16  1  0  0  0  0
  7  9  2  0  0  0  0
  7 17  1  0  0  0  0
  8 10  1  0  0  0  0
  8 17  2  0  0  0  0
  9 18  1  0  0  0  0
 10 18  2  0  0  0  0
 11 19  2  0  0  0  0
 12 14  2  0  0  0  0
 12 19  1  0  0  0  0
 13 27  2  0  0  0  0
 13 28  1  0  0  0  0
 14 26  1  0  0  0  0
 15 16  2  0  0  0  0
 15 27  1  0  0  0  0
 16 28  1  0  0  0  0
 17 29  1  0  0  0  0
 18 31  1  0  0  0  0
 19 33  1  0  0  0  0
 20 30  1  0  0  0  0
 20 31  1  0  0  0  0
 20 32  2  0  0  0  0
 21 22  1  0  0  0  0
 21 23  1  0  0  0  0
 22 24  1  0  0  0  0
 23 25  1  0  0  0  0
 24 29  1  0  0  0  0
 25 29  1  0  0  0  0
 26 31  1  0  0  0  0
 28 30  1  0  0  0  0
  1 34  1  0  0  0  0
  2 35  1  0  0  0  0
  3 36  1  0  0  0  0
  4 37  1  0  0  0  0
  5 38  1  0  0  0  0
  6 39  1  0  0  0  0
  7 40  1  0  0  0  0
  8 41  1  0  0  0  0
  9 42  1  0  0  0  0
 10 43  1  0  0  0  0
 11 44  1  0  0  0  0
 12 45  1  0  0  0  0
 13 46  1  0  0  0  0
 21 47  1  0  0  0  0
 21 48  1  0  0  0  0
 22 49  1  0  0  0  0
 22 50  1  0  0  0  0
 23 51  1  0  0  0  0
 23 52  1  0  0  0  0
 24 53  1  0  0  0  0
 24 54  1  0  0  0  0
 25 55  1  0  0  0  0
 25 56  1  0  0  0  0
 26 57  1  0  0  0  0
 26 58  1  0  0  0  0
 30 59  1  0  0  0  0
M  END
> <clash_score>
0

> <docking_score>
-7.686232566833496

> <overlap_score>
1.004274845123291

$$$$
BENZO_41_1
  -OEChem-08222022163D

 47 50  0     0  0  0  0  0  0999 V2000
   14.1526    1.4694   24.0176 C   0  0  0  0  0  0  0  0  0  0  0  0
   13.3741    0.8121   24.9701 C   0  0  0  0  0  0  0  0  0  0  0  0
   13.5446    2.0802   22.9208 C   0  0  0  0  0  0  0  0  0  0  0  0
    3.9160    2.0630   19.5520 C   0  0  0  0  0  0  0  0  0  0  0  0
    4.2750    1.7050   20.8490 C   0  0  0  0  0  0  0  0  0  0  0  0
   11.9875    0.7654   24.8258 C   0  0  0  0  0  0  0  0  0  0  0  0
   12.1580    2.0335   22.7765 C   0  0  0  0  0  0  0  0  0  0  0  0
    8.9960   -2.3380   25.5320 C   0  0  0  0  0  0  0  0  0  0  0  0
    9.6730   -3.4710   23.5300 C   0  0  0  0  0  0  0  0  0  0  0  0
    4.6890    1.6810   18.4640 C   0  0  0  0  0  0  0  0  0  0  0  0
    5.4210    0.9600   21.0930 C   0  0  0  0  0  0  0  0  0  0  0  0
    9.0720   -1.1280   24.8640 C   0  0  0  0  0  0  0  0  0  0  0  0
    9.7200   -2.2600   22.8630 C   0  0  0  0  0  0  0  0  0  0  0  0
    7.6390   -0.2680   18.5410 C   0  0  0  0  0  0  0  0  0  0  0  0
    9.3070   -3.5340   24.8780 C   0  0  0  0  0  0  0  0  0  0  0  0
   11.3794    1.3761   23.7290 C   0  0  0  0  0  0  0  0  0  0  0  0
    5.8300    0.9190   18.6970 C   0  0  0  0  0  0  0  0  0  0  0  0
    6.1790    0.5730   19.9990 C   0  0  0  0  0  0  0  0  0  0  0  0
    9.3350   -1.0880   23.5010 C   0  0  0  0  0  0  0  0  0  0  0  0
    9.0420    0.3700   21.5280 C   0  0  0  0  0  0  0  0  0  0  0  0
    9.2505   -4.8264   25.5904 C   0  0  0  0  0  0  0  0  0  0  0  0
    9.8870    1.3260   23.5730 C   0  0  0  0  0  0  0  0  0  0  0  0
    6.7580    0.3810   17.8350 N   0  0  0  0  0  0  0  0  0  0  0  0
    7.3170   -0.1610   19.8550 N   0  0  0  0  0  0  0  0  0  0  0  0
    8.1890   -0.7180   20.8700 N   0  0  0  0  0  0  0  0  0  0  0  0
    9.4560    0.1560   22.8130 N   0  0  0  0  0  0  0  0  0  0  0  0
    9.2690    1.4140   20.9380 O   0  0  0  0  0  0  0  0  0  0  0  0
   15.2322    1.5068   24.1308 H   0  0  0  0  0  0  0  0  0  0  0  0
   13.8473    0.3374   25.8248 H   0  0  0  0  0  0  0  0  0  0  0  0
   14.1503    2.5930   22.1795 H   0  0  0  0  0  0  0  0  0  0  0  0
    3.0134    2.6521   19.3911 H   0  0  0  0  0  0  0  0  0  0  0  0
    3.6460    2.0127   21.6812 H   0  0  0  0  0  0  0  0  0  0  0  0
   11.3889    0.2508   25.5729 H   0  0  0  0  0  0  0  0  0  0  0  0
   11.6930    2.5120   21.9187 H   0  0  0  0  0  0  0  0  0  0  0  0
    8.6919   -2.3557   26.5813 H   0  0  0  0  0  0  0  0  0  0  0  0
    9.9267   -4.3907   22.9939 H   0  0  0  0  0  0  0  0  0  0  0  0
    4.4037    1.9731   17.4543 H   0  0  0  0  0  0  0  0  0  0  0  0
    5.7084    0.6923   22.1132 H   0  0  0  0  0  0  0  0  0  0  0  0
    8.9217   -0.1995   25.4231 H   0  0  0  0  0  0  0  0  0  0  0  0
   10.0653   -2.2339   21.8256 H   0  0  0  0  0  0  0  0  0  0  0  0
    8.4862   -0.8060   18.1787 H   0  0  0  0  0  0  0  0  0  0  0  0
    8.2503   -5.2678   25.5020 H   0  0  0  0  0  0  0  0  0  0  0  0
    9.9817   -5.5374   25.1845 H   0  0  0  0  0  0  0  0  0  0  0  0
    9.4841   -4.7043   26.6562 H   0  0  0  0  0  0  0  0  0  0  0  0
    9.3974    1.2912   24.5523 H   0  0  0  0  0  0  0  0  0  0  0  0
    9.5159    2.2168   23.0553 H   0  0  0  0  0  0  0  0  0  0  0  0
    8.2233   -1.5737   21.0809 H   0  0  0  0  0  0  0  0  0  0  0  0
  1  2  1  0  0  0  0
  1  3  2  0  0  0  0
  2  6  2  0  0  0  0
  3  7  1  0  0  0  0
  4  5  1  0  0  0  0
  4 10  2  0  0  0  0
  5 11  2  0  0  0  0
  6 16  1  0  0  0  0
  7 16  2  0  0  0  0
  8 12  2  0  0  0  0
  8 15  1  0  0  0  0
  9 13  1  0  0  0  0
  9 15  2  0  0  0  0
 10 17  1  0  0  0  0
 11 18  1  0  0  0  0
 12 19  1  0  0  0  0
 13 19  2  0  0  0  0
 14 23  2  0  0  0  0
 14 24  1  0  0  0  0
 15 21  1  0  0  0  0
 16 22  1  0  0  0  0
 17 18  2  0  0  0  0
 17 23  1  0  0  0  0
 18 24  1  0  0  0  0
 19 26  1  0  0  0  0
 20 25  1  0  0  0  0
 20 26  1  0  0  0  0
 20 27  2  0  0  0  0
 22 26  1  0  0  0  0
 24 25  1  0  0  0  0
  1 28  1  0  0  0  0
  2 29  1  0  0  0  0
  3 30  1  0  0  0  0
  4 31  1  0  0  0  0
  5 32  1  0  0  0  0
  6 33  1  0  0  0  0
  7 34  1  0  0  0  0
  8 35  1  0  0  0  0
  9 36  1  0  0  0  0
 10 37  1  0  0  0  0
 11 38  1  0  0  0  0
 12 39  1  0  0  0  0
 13 40  1  0  0  0  0
 14 41  1  0  0  0  0
 21 42  1  0  0  0  0
 21 43  1  0  0  0  0
 21 44  1  0  0  0  0
 22 45  1  0  0  0  0
 22 46  1  0  0  0  0
 25 47  1  0  0  0  0
M  END
> <clash_score>
0

> <docking_score>
-8.794289588928223

> <overlap_score>
0.939452588558197

$$$$
BENZO_39_1
  -OEChem-08222022163D

 59 63  0     0  0  0  0  0  0999 V2000
    3.9160    2.0630   19.5520 C   0  0  0  0  0  0  0  0  0  0  0  0
    4.2750    1.7050   20.8490 C   0  0  0  0  0  0  0  0  0  0  0  0
    4.6890    1.6810   18.4640 C   0  0  0  0  0  0  0  0  0  0  0  0
    5.4210    0.9600   21.0930 C   0  0  0  0  0  0  0  0  0  0  0  0
    8.9960   -2.3380   25.5320 C   0  0  0  0  0  0  0  0  0  0  0  0
    9.6730   -3.4710   23.5300 C   0  0  0  0  0  0  0  0  0  0  0  0
    9.0720   -1.1280   24.8640 C   0  0  0  0  0  0  0  0  0  0  0  0
    9.7200   -2.2600   22.8630 C   0  0  0  0  0  0  0  0  0  0  0  0
   12.1233    1.3811   24.9242 C   0  0  0  0  0  0  0  0  0  0  0  0
   12.3262    1.4247   22.7351 C   0  0  0  0  0  0  0  0  0  0  0  0
    7.6390   -0.2680   18.5410 C   0  0  0  0  0  0  0  0  0  0  0  0
   11.3794    1.3761   23.7290 C   0  0  0  0  0  0  0  0  0  0  0  0
    5.8300    0.9190   18.6970 C   0  0  0  0  0  0  0  0  0  0  0  0
    6.1790    0.5730   19.9990 C   0  0  0  0  0  0  0  0  0  0  0  0
    9.3070   -3.5340   24.8780 C   0  0  0  0  0  0  0  0  0  0  0  0
    9.3350   -1.0880   23.5010 C   0  0  0  0  0  0  0  0  0  0  0  0
    9.0420    0.3700   21.5280 C   0  0  0  0  0  0  0  0  0  0  0  0
    7.3635   -6.1361   27.1888 C   0  0  0  0  0  0  0  0  0  0  0  0
    8.1961   -4.9735   27.7341 C   0  0  0  0  0  0  0  0  0  0  0  0
    7.1942   -6.0394   25.6709 C   0  0  0  0  0  0  0  0  0  0  0  0
    9.5196   -4.8490   26.9797 C   0  0  0  0  0  0  0  0  0  0  0  0
    8.5442   -5.8838   24.9639 C   0  0  0  0  0  0  0  0  0  0  0  0
   14.8305    1.5084   22.7418 C   0  0  0  0  0  0  0  0  0  0  0  0
    9.8870    1.3260   23.5730 C   0  0  0  0  0  0  0  0  0  0  0  0
   13.4410    1.4289   24.7112 N   0  0  0  0  0  0  0  0  0  0  0  0
    6.7580    0.3810   17.8350 N   0  0  0  0  0  0  0  0  0  0  0  0
   13.5326    1.4543   23.3706 N   0  0  0  0  0  0  0  0  0  0  0  0
    7.3170   -0.1610   19.8550 N   0  0  0  0  0  0  0  0  0  0  0  0
    9.2562   -4.7384   25.5422 N   0  0  0  0  0  0  0  0  0  0  0  0
    8.1890   -0.7180   20.8700 N   0  0  0  0  0  0  0  0  0  0  0  0
    9.4560    0.1560   22.8130 N   0  0  0  0  0  0  0  0  0  0  0  0
    9.2690    1.4140   20.9380 O   0  0  0  0  0  0  0  0  0  0  0  0
    3.0134    2.6521   19.3911 H   0  0  0  0  0  0  0  0  0  0  0  0
    3.6460    2.0127   21.6812 H   0  0  0  0  0  0  0  0  0  0  0  0
    4.4037    1.9731   17.4543 H   0  0  0  0  0  0  0  0  0  0  0  0
    5.7084    0.6923   22.1132 H   0  0  0  0  0  0  0  0  0  0  0  0
    8.6905   -2.3533   26.5810 H   0  0  0  0  0  0  0  0  0  0  0  0
    9.9266   -4.3896   22.9917 H   0  0  0  0  0  0  0  0  0  0  0  0
    8.9233   -0.1992   25.4231 H   0  0  0  0  0  0  0  0  0  0  0  0
   10.0650   -2.2330   21.8256 H   0  0  0  0  0  0  0  0  0  0  0  0
   11.7624    1.3510   25.9426 H   0  0  0  0  0  0  0  0  0  0  0  0
   12.2462    1.4390   21.6566 H   0  0  0  0  0  0  0  0  0  0  0  0
    8.4862   -0.8060   18.1787 H   0  0  0  0  0  0  0  0  0  0  0  0
    7.8482   -7.0901   27.4469 H   0  0  0  0  0  0  0  0  0  0  0  0
    6.3760   -6.1438   27.6724 H   0  0  0  0  0  0  0  0  0  0  0  0
    7.6307   -4.0424   27.6403 H   0  0  0  0  0  0  0  0  0  0  0  0
    8.3915   -5.1310   28.7968 H   0  0  0  0  0  0  0  0  0  0  0  0
    6.6888   -6.9376   25.3010 H   0  0  0  0  0  0  0  0  0  0  0  0
    6.5515   -5.1859   25.4257 H   0  0  0  0  0  0  0  0  0  0  0  0
   10.0492   -3.9640   27.3414 H   0  0  0  0  0  0  0  0  0  0  0  0
   10.1431   -5.7254   27.1778 H   0  0  0  0  0  0  0  0  0  0  0  0
    9.1338   -6.7931   25.0868 H   0  0  0  0  0  0  0  0  0  0  0  0
    8.3656   -5.7264   23.8998 H   0  0  0  0  0  0  0  0  0  0  0  0
   15.0990    2.5601   22.6124 H   0  0  0  0  0  0  0  0  0  0  0  0
   15.5636    1.0018   23.3756 H   0  0  0  0  0  0  0  0  0  0  0  0
   14.7841    1.0025   21.7733 H   0  0  0  0  0  0  0  0  0  0  0  0
    9.3974    1.2912   24.5523 H   0  0  0  0  0  0  0  0  0  0  0  0
    9.5159    2.2168   23.0553 H   0  0  0  0  0  0  0  0  0  0  0  0
    8.2565   -1.5523   21.1108 H   0  0  0  0  0  0  0  0  0  0  0  0
  1  2  1  0  0  0  0
  1  3  2  0  0  0  0
  2  4  2  0  0  0  0
  3 13  1  0  0  0  0
  4 14  1  0  0  0  0
  5  7  2  0  0  0  0
  5 15  1  0  0  0  0
  6  8  1  0  0  0  0
  6 15  2  0  0  0  0
  7 16  1  0  0  0  0
  8 16  2  0  0  0  0
  9 12  1  0  0  0  0
  9 25  2  0  0  0  0
 10 12  2  0  0  0  0
 10 27  1  0  0  0  0
 11 26  2  0  0  0  0
 11 28  1  0  0  0  0
 12 24  1  0  0  0  0
 13 14  2  0  0  0  0
 13 26  1  0  0  0  0
 14 28  1  0  0  0  0
 15 29  1  0  0  0  0
 16 31  1  0  0  0  0
 17 30  1  0  0  0  0
 17 31  1  0  0  0  0
 17 32  2  0  0  0  0
 18 19  1  0  0  0  0
 18 20  1  0  0  0  0
 19 21  1  0  0  0  0
 20 22  1  0  0  0  0
 21 29  1  0  0  0  0
 22 29  1  0  0  0  0
 23 27  1  0  0  0  0
 24 31  1  0  0  0  0
 25 27  1  0  0  0  0
 28 30  1  0  0  0  0
  1 33  1  0  0  0  0
  2 34  1  0  0  0  0
  3 35  1  0  0  0  0
  4 36  1  0  0  0  0
  5 37  1  0  0  0  0
  6 38  1  0  0  0  0
  7 39  1  0  0  0  0
  8 40  1  0  0  0  0
  9 41  1  0  0  0  0
 10 42  1  0  0  0  0
 11 43  1  0  0  0  0
 18 44  1  0  0  0  0
 18 45  1  0  0  0  0
 19 46  1  0  0  0  0
 19 47  1  0  0  0  0
 20 48  1  0  0  0  0
 20 49  1  0  0  0  0
 21 50  1  0  0  0  0
 21 51  1  0  0  0  0
 22 52  1  0  0  0  0
 22 53  1  0  0  0  0
 23 54  1  0  0  0  0
 23 55  1  0  0  0  0
 23 56  1  0  0  0  0
 24 57  1  0  0  0  0
 24 58  1  0  0  0  0
 30 59  1  0  0  0  0
M  END
> <clash_score>
0

> <docking_score>
-8.265389442443848

> <overlap_score>
0.9881091117858887

$$$$
BENZO_40_1
  -OEChem-08222022163D

 44 47  0     0  0  0  0  0  0999 V2000
    3.9160    2.0630   19.5520 C   0  0  0  0  0  0  0  0  0  0  0  0
    4.2750    1.7050   20.8490 C   0  0  0  0  0  0  0  0  0  0  0  0
    8.9960   -2.3380   25.5320 C   0  0  0  0  0  0  0  0  0  0  0  0
    9.6730   -3.4710   23.5300 C   0  0  0  0  0  0  0  0  0  0  0  0
    4.6890    1.6810   18.4640 C   0  0  0  0  0  0  0  0  0  0  0  0
    5.4210    0.9600   21.0930 C   0  0  0  0  0  0  0  0  0  0  0  0
    9.0720   -1.1280   24.8640 C   0  0  0  0  0  0  0  0  0  0  0  0
    9.7200   -2.2600   22.8630 C   0  0  0  0  0  0  0  0  0  0  0  0
   12.2111    0.2208   23.7905 C   0  0  0  0  0  0  0  0  0  0  0  0
   13.5412    0.5479   23.9364 C   0  0  0  0  0  0  0  0  0  0  0  0
   12.1057    2.5424   23.8305 C   0  0  0  0  0  0  0  0  0  0  0  0
    7.6390   -0.2680   18.5410 C   0  0  0  0  0  0  0  0  0  0  0  0
    9.3070   -3.5340   24.8780 C   0  0  0  0  0  0  0  0  0  0  0  0
   11.3794    1.3761   23.7290 C   0  0  0  0  0  0  0  0  0  0  0  0
    5.8300    0.9190   18.6970 C   0  0  0  0  0  0  0  0  0  0  0  0
    6.1790    0.5730   19.9990 C   0  0  0  0  0  0  0  0  0  0  0  0
    9.3350   -1.0880   23.5010 C   0  0  0  0  0  0  0  0  0  0  0  0
    9.0420    0.3700   21.5280 C   0  0  0  0  0  0  0  0  0  0  0  0
    9.2505   -4.8264   25.5904 C   0  0  0  0  0  0  0  0  0  0  0  0
    9.8870    1.3260   23.5730 C   0  0  0  0  0  0  0  0  0  0  0  0
    6.7580    0.3810   17.8350 N   0  0  0  0  0  0  0  0  0  0  0  0
    7.3170   -0.1610   19.8550 N   0  0  0  0  0  0  0  0  0  0  0  0
    8.1890   -0.7180   20.8700 N   0  0  0  0  0  0  0  0  0  0  0  0
    9.4560    0.1560   22.8130 N   0  0  0  0  0  0  0  0  0  0  0  0
    9.2690    1.4140   20.9380 O   0  0  0  0  0  0  0  0  0  0  0  0
   13.7831    2.2420   23.9988 S   0  0  0  0  0  0  0  0  0  0  0  0
    3.0134    2.6521   19.3911 H   0  0  0  0  0  0  0  0  0  0  0  0
    3.6460    2.0127   21.6812 H   0  0  0  0  0  0  0  0  0  0  0  0
    8.6919   -2.3557   26.5813 H   0  0  0  0  0  0  0  0  0  0  0  0
    9.9267   -4.3907   22.9939 H   0  0  0  0  0  0  0  0  0  0  0  0
    4.4037    1.9731   17.4543 H   0  0  0  0  0  0  0  0  0  0  0  0
    5.7084    0.6923   22.1132 H   0  0  0  0  0  0  0  0  0  0  0  0
    8.9217   -0.1995   25.4231 H   0  0  0  0  0  0  0  0  0  0  0  0
   10.0653   -2.2339   21.8256 H   0  0  0  0  0  0  0  0  0  0  0  0
   11.8558   -0.8003   23.7315 H   0  0  0  0  0  0  0  0  0  0  0  0
   14.3824   -0.1267   24.0100 H   0  0  0  0  0  0  0  0  0  0  0  0
   11.7354    3.5581   23.8155 H   0  0  0  0  0  0  0  0  0  0  0  0
    8.4862   -0.8060   18.1787 H   0  0  0  0  0  0  0  0  0  0  0  0
    8.2503   -5.2678   25.5020 H   0  0  0  0  0  0  0  0  0  0  0  0
    9.9817   -5.5374   25.1845 H   0  0  0  0  0  0  0  0  0  0  0  0
    9.4841   -4.7043   26.6562 H   0  0  0  0  0  0  0  0  0  0  0  0
    9.3974    1.2912   24.5523 H   0  0  0  0  0  0  0  0  0  0  0  0
    9.5159    2.2168   23.0553 H   0  0  0  0  0  0  0  0  0  0  0  0
    8.2233   -1.5737   21.0809 H   0  0  0  0  0  0  0  0  0  0  0  0
  1  2  1  0  0  0  0
  1  5  2  0  0  0  0
  2  6  2  0  0  0  0
  3  7  2  0  0  0  0
  3 13  1  0  0  0  0
  4  8  1  0  0  0  0
  4 13  2  0  0  0  0
  5 15  1  0  0  0  0
  6 16  1  0  0  0  0
  7 17  1  0  0  0  0
  8 17  2  0  0  0  0
  9 10  2  0  0  0  0
  9 14  1  0  0  0  0
 10 26  1  0  0  0  0
 11 14  2  0  0  0  0
 11 26  1  0  0  0  0
 12 21  2  0  0  0  0
 12 22  1  0  0  0  0
 13 19  1  0  0  0  0
 14 20  1  0  0  0  0
 15 16  2  0  0  0  0
 15 21  1  0  0  0  0
 16 22  1  0  0  0  0
 17 24  1  0  0  0  0
 18 23  1  0  0  0  0
 18 24  1  0  0  0  0
 18 25  2  0  0  0  0
 20 24  1  0  0  0  0
 22 23  1  0  0  0  0
  1 27  1  0  0  0  0
  2 28  1  0  0  0  0
  3 29  1  0  0  0  0
  4 30  1  0  0  0  0
  5 31  1  0  0  0  0
  6 32  1  0  0  0  0
  7 33  1  0  0  0  0
  8 34  1  0  0  0  0
  9 35  1  0  0  0  0
 10 36  1  0  0  0  0
 11 37  1  0  0  0  0
 12 38  1  0  0  0  0
 19 39  1  0  0  0  0
 19 40  1  0  0  0  0
 19 41  1  0  0  0  0
 20 42  1  0  0  0  0
 20 43  1  0  0  0  0
 23 44  1  0  0  0  0
M  END
> <clash_score>
0

> <docking_score>
-8.067456245422363

> <overlap_score>
0.9242712259292603

$$$$
BENZO_43_1
  -OEChem-08222022163D

 47 50  0     0  0  0  0  0  0999 V2000
    3.9160    2.0630   19.5520 C   0  0  0  0  0  0  0  0  0  0  0  0
    4.2750    1.7050   20.8490 C   0  0  0  0  0  0  0  0  0  0  0  0
    8.9960   -2.3380   25.5320 C   0  0  0  0  0  0  0  0  0  0  0  0
    9.6730   -3.4710   23.5300 C   0  0  0  0  0  0  0  0  0  0  0  0
    4.6890    1.6810   18.4640 C   0  0  0  0  0  0  0  0  0  0  0  0
    5.4210    0.9600   21.0930 C   0  0  0  0  0  0  0  0  0  0  0  0
    9.0720   -1.1280   24.8640 C   0  0  0  0  0  0  0  0  0  0  0  0
    9.7200   -2.2600   22.8630 C   0  0  0  0  0  0  0  0  0  0  0  0
   12.2914    2.2071   23.0512 C   0  0  0  0  0  0  0  0  0  0  0  0
   12.1614    0.6214   24.5689 C   0  0  0  0  0  0  0  0  0  0  0  0
    7.6390   -0.2680   18.5410 C   0  0  0  0  0  0  0  0  0  0  0  0
    9.3070   -3.5340   24.8780 C   0  0  0  0  0  0  0  0  0  0  0  0
   11.3794    1.3761   23.7290 C   0  0  0  0  0  0  0  0  0  0  0  0
    5.8300    0.9190   18.6970 C   0  0  0  0  0  0  0  0  0  0  0  0
    6.1790    0.5730   19.9990 C   0  0  0  0  0  0  0  0  0  0  0  0
    9.3350   -1.0880   23.5010 C   0  0  0  0  0  0  0  0  0  0  0  0
    9.0420    0.3700   21.5280 C   0  0  0  0  0  0  0  0  0  0  0  0
    9.2505   -4.8264   25.5904 C   0  0  0  0  0  0  0  0  0  0  0  0
   14.6267    0.5248   25.0067 C   0  0  0  0  0  0  0  0  0  0  0  0
    9.8870    1.3260   23.5730 C   0  0  0  0  0  0  0  0  0  0  0  0
   13.5560    2.0002   23.4280 N   0  0  0  0  0  0  0  0  0  0  0  0
    6.7580    0.3810   17.8350 N   0  0  0  0  0  0  0  0  0  0  0  0
   13.4442    1.0306   24.3518 N   0  0  0  0  0  0  0  0  0  0  0  0
    7.3170   -0.1610   19.8550 N   0  0  0  0  0  0  0  0  0  0  0  0
    8.1890   -0.7180   20.8700 N   0  0  0  0  0  0  0  0  0  0  0  0
    9.4560    0.1560   22.8130 N   0  0  0  0  0  0  0  0  0  0  0  0
    9.2690    1.4140   20.9380 O   0  0  0  0  0  0  0  0  0  0  0  0
    3.0134    2.6521   19.3911 H   0  0  0  0  0  0  0  0  0  0  0  0
    3.6460    2.0127   21.6812 H   0  0  0  0  0  0  0  0  0  0  0  0
    8.6919   -2.3557   26.5813 H   0  0  0  0  0  0  0  0  0  0  0  0
    9.9267   -4.3907   22.9939 H   0  0  0  0  0  0  0  0  0  0  0  0
    4.4037    1.9731   17.4543 H   0  0  0  0  0  0  0  0  0  0  0  0
    5.7084    0.6923   22.1132 H   0  0  0  0  0  0  0  0  0  0  0  0
    8.9217   -0.1995   25.4231 H   0  0  0  0  0  0  0  0  0  0  0  0
   10.0653   -2.2339   21.8256 H   0  0  0  0  0  0  0  0  0  0  0  0
   12.0895    2.9562   22.2987 H   0  0  0  0  0  0  0  0  0  0  0  0
   11.9202   -0.1518   25.2857 H   0  0  0  0  0  0  0  0  0  0  0  0
    8.4862   -0.8060   18.1787 H   0  0  0  0  0  0  0  0  0  0  0  0
    8.2503   -5.2678   25.5020 H   0  0  0  0  0  0  0  0  0  0  0  0
    9.9817   -5.5374   25.1845 H   0  0  0  0  0  0  0  0  0  0  0  0
    9.4841   -4.7043   26.6562 H   0  0  0  0  0  0  0  0  0  0  0  0
   15.0068   -0.3132   24.4165 H   0  0  0  0  0  0  0  0  0  0  0  0
   15.3758    1.3189   25.0698 H   0  0  0  0  0  0  0  0  0  0  0  0
   14.3676    0.1958   26.0170 H   0  0  0  0  0  0  0  0  0  0  0  0
    9.3974    1.2912   24.5523 H   0  0  0  0  0  0  0  0  0  0  0  0
    9.5159    2.2168   23.0553 H   0  0  0  0  0  0  0  0  0  0  0  0
    8.2233   -1.5737   21.0809 H   0  0  0  0  0  0  0  0  0  0  0  0
  1  2  1  0  0  0  0
  1  5  2  0  0  0  0
  2  6  2  0  0  0  0
  3  7  2  0  0  0  0
  3 12  1  0  0  0  0
  4  8  1  0  0  0  0
  4 12  2  0  0  0  0
  5 14  1  0  0  0  0
  6 15  1  0  0  0  0
  7 16  1  0  0  0  0
  8 16  2  0  0  0  0
  9 13  1  0  0  0  0
  9 21  2  0  0  0  0
 10 13  2  0  0  0  0
 10 23  1  0  0  0  0
 11 22  2  0  0  0  0
 11 24  1  0  0  0  0
 12 18  1  0  0  0  0
 13 20  1  0  0  0  0
 14 15  2  0  0  0  0
 14 22  1  0  0  0  0
 15 24  1  0  0  0  0
 16 26  1  0  0  0  0
 17 25  1  0  0  0  0
 17 26  1  0  0  0  0
 17 27  2  0  0  0  0
 19 23  1  0  0  0  0
 20 26  1  0  0  0  0
 21 23  1  0  0  0  0
 24 25  1  0  0  0  0
  1 28  1  0  0  0  0
  2 29  1  0  0  0  0
  3 30  1  0  0  0  0
  4 31  1  0  0  0  0
  5 32  1  0  0  0  0
  6 33  1  0  0  0  0
  7 34  1  0  0  0  0
  8 35  1  0  0  0  0
  9 36  1  0  0  0  0
 10 37  1  0  0  0  0
 11 38  1  0  0  0  0
 18 39  1  0  0  0  0
 18 40  1  0  0  0  0
 18 41  1  0  0  0  0
 19 42  1  0  0  0  0
 19 43  1  0  0  0  0
 19 44  1  0  0  0  0
 20 45  1  0  0  0  0
 20 46  1  0  0  0  0
 25 47  1  0  0  0  0
M  END
> <clash_score>
0.6199434752611445

> <docking_score>
-8.50229263305664

> <overlap_score>
0.9382389187812805

$$$$
BENZO_42_1
  -OEChem-08222022163D

 47 50  0     0  0  0  0  0  0999 V2000
    3.9160    2.0630   19.5520 C   0  0  0  0  0  0  0  0  0  0  0  0
    4.2750    1.7050   20.8490 C   0  0  0  0  0  0  0  0  0  0  0  0
   13.4007    0.5725   24.7805 C   0  0  0  0  0  0  0  0  0  0  0  0
   12.0141    0.5273   24.6359 C   0  0  0  0  0  0  0  0  0  0  0  0
    8.9960   -2.3380   25.5320 C   0  0  0  0  0  0  0  0  0  0  0  0
    9.6730   -3.4710   23.5300 C   0  0  0  0  0  0  0  0  0  0  0  0
    4.6890    1.6810   18.4640 C   0  0  0  0  0  0  0  0  0  0  0  0
    5.4210    0.9600   21.0930 C   0  0  0  0  0  0  0  0  0  0  0  0
    9.0720   -1.1280   24.8640 C   0  0  0  0  0  0  0  0  0  0  0  0
    9.7200   -2.2600   22.8630 C   0  0  0  0  0  0  0  0  0  0  0  0
   14.1526    1.4666   24.0184 C   0  0  0  0  0  0  0  0  0  0  0  0
   12.1314    2.2702   22.9668 C   0  0  0  0  0  0  0  0  0  0  0  0
    7.6390   -0.2680   18.5410 C   0  0  0  0  0  0  0  0  0  0  0  0
    9.3070   -3.5340   24.8780 C   0  0  0  0  0  0  0  0  0  0  0  0
   11.3794    1.3761   23.7290 C   0  0  0  0  0  0  0  0  0  0  0  0
    5.8300    0.9190   18.6970 C   0  0  0  0  0  0  0  0  0  0  0  0
    6.1790    0.5730   19.9990 C   0  0  0  0  0  0  0  0  0  0  0  0
    9.3350   -1.0880   23.5010 C   0  0  0  0  0  0  0  0  0  0  0  0
   13.5180    2.3154   23.1115 C   0  0  0  0  0  0  0  0  0  0  0  0
    9.0420    0.3700   21.5280 C   0  0  0  0  0  0  0  0  0  0  0  0
    9.2505   -4.8264   25.5904 C   0  0  0  0  0  0  0  0  0  0  0  0
    9.8870    1.3260   23.5730 C   0  0  0  0  0  0  0  0  0  0  0  0
    6.7580    0.3810   17.8350 N   0  0  0  0  0  0  0  0  0  0  0  0
    7.3170   -0.1610   19.8550 N   0  0  0  0  0  0  0  0  0  0  0  0
    8.1890   -0.7180   20.8700 N   0  0  0  0  0  0  0  0  0  0  0  0
    9.4560    0.1560   22.8130 N   0  0  0  0  0  0  0  0  0  0  0  0
    9.2690    1.4140   20.9380 O   0  0  0  0  0  0  0  0  0  0  0  0
   14.4463    3.4175   22.1707 Cl  0  0  0  0  0  0  0  0  0  0  0  0
    3.0134    2.6521   19.3911 H   0  0  0  0  0  0  0  0  0  0  0  0
    3.6460    2.0127   21.6812 H   0  0  0  0  0  0  0  0  0  0  0  0
   13.8945   -0.0888   25.4867 H   0  0  0  0  0  0  0  0  0  0  0  0
   11.4361   -0.1726   25.2338 H   0  0  0  0  0  0  0  0  0  0  0  0
    8.6919   -2.3557   26.5813 H   0  0  0  0  0  0  0  0  0  0  0  0
    9.9267   -4.3907   22.9939 H   0  0  0  0  0  0  0  0  0  0  0  0
    4.4037    1.9731   17.4543 H   0  0  0  0  0  0  0  0  0  0  0  0
    5.7084    0.6923   22.1132 H   0  0  0  0  0  0  0  0  0  0  0  0
    8.9217   -0.1995   25.4231 H   0  0  0  0  0  0  0  0  0  0  0  0
   10.0653   -2.2339   21.8256 H   0  0  0  0  0  0  0  0  0  0  0  0
   15.2326    1.4907   24.1414 H   0  0  0  0  0  0  0  0  0  0  0  0
   11.6318    2.9303   22.2615 H   0  0  0  0  0  0  0  0  0  0  0  0
    8.4862   -0.8060   18.1787 H   0  0  0  0  0  0  0  0  0  0  0  0
    8.2503   -5.2678   25.5020 H   0  0  0  0  0  0  0  0  0  0  0  0
    9.9817   -5.5374   25.1845 H   0  0  0  0  0  0  0  0  0  0  0  0
    9.4841   -4.7043   26.6562 H   0  0  0  0  0  0  0  0  0  0  0  0
    9.3974    1.2912   24.5523 H   0  0  0  0  0  0  0  0  0  0  0  0
    9.5159    2.2168   23.0553 H   0  0  0  0  0  0  0  0  0  0  0  0
    8.2233   -1.5737   21.0809 H   0  0  0  0  0  0  0  0  0  0  0  0
  1  2  1  0  0  0  0
  1  7  2  0  0  0  0
  2  8  2  0  0  0  0
  3  4  2  0  0  0  0
  3 11  1  0  0  0  0
  4 15  1  0  0  0  0
  5  9  2  0  0  0  0
  5 14  1  0  0  0  0
  6 10  1  0  0  0  0
  6 14  2  0  0  0  0
  7 16  1  0  0  0  0
  8 17  1  0  0  0  0
  9 18  1  0  0  0  0
 10 18  2  0  0  0  0
 11 19  2  0  0  0  0
 12 15  2  0  0  0  0
 12 19  1  0  0  0  0
 13 23  2  0  0  0  0
 13 24  1  0  0  0  0
 14 21  1  0  0  0  0
 15 22  1  0  0  0  0
 16 17  2  0  0  0  0
 16 23  1  0  0  0  0
 17 24  1  0  0  0  0
 18 26  1  0  0  0  0
 19 28  1  0  0  0  0
 20 25  1  0  0  0  0
 20 26  1  0  0  0  0
 20 27  2  0  0  0  0
 22 26  1  0  0  0  0
 24 25  1  0  0  0  0
  1 29  1  0  0  0  0
  2 30  1  0  0  0  0
  3 31  1  0  0  0  0
  4 32  1  0  0  0  0
  5 33  1  0  0  0  0
  6 34  1  0  0  0  0
  7 35  1  0  0  0  0
  8 36  1  0  0  0  0
  9 37  1  0  0  0  0
 10 38  1  0  0  0  0
 11 39  1  0  0  0  0
 12 40  1  0  0  0  0
 13 41  1  0  0  0  0
 21 42  1  0  0  0  0
 21 43  1  0  0  0  0
 21 44  1  0  0  0  0
 22 45  1  0  0  0  0
 22 46  1  0  0  0  0
 25 47  1  0  0  0  0
M  END
> <clash_score>
0

> <docking_score>
-7.931258201599121

> <overlap_score>
0.9507184624671936

$$$$
BENZO_45_1
  -OEChem-08222022163D

 48 51  0     0  0  0  0  0  0999 V2000
   14.1526    1.4694   24.0176 C   0  0  0  0  0  0  0  0  0  0  0  0
   13.3741    0.8121   24.9701 C   0  0  0  0  0  0  0  0  0  0  0  0
   13.5446    2.0802   22.9208 C   0  0  0  0  0  0  0  0  0  0  0  0
    3.9160    2.0630   19.5520 C   0  0  0  0  0  0  0  0  0  0  0  0
    4.2750    1.7050   20.8490 C   0  0  0  0  0  0  0  0  0  0  0  0
   11.9875    0.7654   24.8258 C   0  0  0  0  0  0  0  0  0  0  0  0
   12.1580    2.0335   22.7765 C   0  0  0  0  0  0  0  0  0  0  0  0
    4.6890    1.6810   18.4640 C   0  0  0  0  0  0  0  0  0  0  0  0
    5.4210    0.9600   21.0930 C   0  0  0  0  0  0  0  0  0  0  0  0
    9.0720   -1.1280   24.8640 C   0  0  0  0  0  0  0  0  0  0  0  0
    9.7200   -2.2600   22.8630 C   0  0  0  0  0  0  0  0  0  0  0  0
    8.9960   -2.3380   25.5320 C   0  0  0  0  0  0  0  0  0  0  0  0
    9.6730   -3.4710   23.5300 C   0  0  0  0  0  0  0  0  0  0  0  0
    7.6390   -0.2680   18.5410 C   0  0  0  0  0  0  0  0  0  0  0  0
   11.3794    1.3761   23.7290 C   0  0  0  0  0  0  0  0  0  0  0  0
    5.8300    0.9190   18.6970 C   0  0  0  0  0  0  0  0  0  0  0  0
    6.1790    0.5730   19.9990 C   0  0  0  0  0  0  0  0  0  0  0  0
    9.3350   -1.0880   23.5010 C   0  0  0  0  0  0  0  0  0  0  0  0
    9.3070   -3.5340   24.8780 C   0  0  0  0  0  0  0  0  0  0  0  0
    9.0420    0.3700   21.5280 C   0  0  0  0  0  0  0  0  0  0  0  0
    9.5894   -5.8809   24.7798 C   0  0  0  0  0  0  0  0  0  0  0  0
    9.8870    1.3260   23.5730 C   0  0  0  0  0  0  0  0  0  0  0  0
    6.7580    0.3810   17.8350 N   0  0  0  0  0  0  0  0  0  0  0  0
    7.3170   -0.1610   19.8550 N   0  0  0  0  0  0  0  0  0  0  0  0
    8.1890   -0.7180   20.8700 N   0  0  0  0  0  0  0  0  0  0  0  0
    9.4560    0.1560   22.8130 N   0  0  0  0  0  0  0  0  0  0  0  0
    9.2690    1.4140   20.9380 O   0  0  0  0  0  0  0  0  0  0  0  0
    9.2555   -4.7124   25.5274 O   0  0  0  0  0  0  0  0  0  0  0  0
   15.2322    1.5068   24.1308 H   0  0  0  0  0  0  0  0  0  0  0  0
   13.8473    0.3374   25.8248 H   0  0  0  0  0  0  0  0  0  0  0  0
   14.1503    2.5930   22.1795 H   0  0  0  0  0  0  0  0  0  0  0  0
    3.0134    2.6521   19.3911 H   0  0  0  0  0  0  0  0  0  0  0  0
    3.6460    2.0127   21.6812 H   0  0  0  0  0  0  0  0  0  0  0  0
   11.3889    0.2508   25.5729 H   0  0  0  0  0  0  0  0  0  0  0  0
   11.6930    2.5120   21.9187 H   0  0  0  0  0  0  0  0  0  0  0  0
    4.4037    1.9731   17.4543 H   0  0  0  0  0  0  0  0  0  0  0  0
    5.7084    0.6923   22.1132 H   0  0  0  0  0  0  0  0  0  0  0  0
    8.9221   -0.1995   25.4231 H   0  0  0  0  0  0  0  0  0  0  0  0
   10.0642   -2.2347   21.8253 H   0  0  0  0  0  0  0  0  0  0  0  0
    8.6902   -2.3588   26.5805 H   0  0  0  0  0  0  0  0  0  0  0  0
    9.9254   -4.3921   22.9961 H   0  0  0  0  0  0  0  0  0  0  0  0
    8.4862   -0.8060   18.1787 H   0  0  0  0  0  0  0  0  0  0  0  0
    9.5074   -6.7611   25.4222 H   0  0  0  0  0  0  0  0  0  0  0  0
   10.6088   -5.7902   24.3963 H   0  0  0  0  0  0  0  0  0  0  0  0
    8.8944   -5.9778   23.9424 H   0  0  0  0  0  0  0  0  0  0  0  0
    9.3974    1.2912   24.5523 H   0  0  0  0  0  0  0  0  0  0  0  0
    9.5159    2.2168   23.0553 H   0  0  0  0  0  0  0  0  0  0  0  0
    8.2233   -1.5737   21.0809 H   0  0  0  0  0  0  0  0  0  0  0  0
  1  2  1  0  0  0  0
  1  3  2  0  0  0  0
  2  6  2  0  0  0  0
  3  7  1  0  0  0  0
  4  5  1  0  0  0  0
  4  8  2  0  0  0  0
  5  9  2  0  0  0  0
  6 15  1  0  0  0  0
  7 15  2  0  0  0  0
  8 16  1  0  0  0  0
  9 17  1  0  0  0  0
 10 12  2  0  0  0  0
 10 18  1  0  0  0  0
 11 13  1  0  0  0  0
 11 18  2  0  0  0  0
 12 19  1  0  0  0  0
 13 19  2  0  0  0  0
 14 23  2  0  0  0  0
 14 24  1  0  0  0  0
 15 22  1  0  0  0  0
 16 17  2  0  0  0  0
 16 23  1  0  0  0  0
 17 24  1  0  0  0  0
 18 26  1  0  0  0  0
 19 28  1  0  0  0  0
 20 25  1  0  0  0  0
 20 26  1  0  0  0  0
 20 27  2  0  0  0  0
 21 28  1  0  0  0  0
 22 26  1  0  0  0  0
 24 25  1  0  0  0  0
  1 29  1  0  0  0  0
  2 30  1  0  0  0  0
  3 31  1  0  0  0  0
  4 32  1  0  0  0  0
  5 33  1  0  0  0  0
  6 34  1  0  0  0  0
  7 35  1  0  0  0  0
  8 36  1  0  0  0  0
  9 37  1  0  0  0  0
 10 38  1  0  0  0  0
 11 39  1  0  0  0  0
 12 40  1  0  0  0  0
 13 41  1  0  0  0  0
 14 42  1  0  0  0  0
 21 43  1  0  0  0  0
 21 44  1  0  0  0  0
 21 45  1  0  0  0  0
 22 46  1  0  0  0  0
 22 47  1  0  0  0  0
 25 48  1  0  0  0  0
M  END
> <clash_score>
0

> <docking_score>
-8.500402450561523

> <overlap_score>
0.9642547369003296

$$$$
BENZO_44_1
  -OEChem-08222022163D

 45 48  0     0  0  0  0  0  0999 V2000
    3.9160    2.0630   19.5520 C   0  0  0  0  0  0  0  0  0  0  0  0
    4.2750    1.7050   20.8490 C   0  0  0  0  0  0  0  0  0  0  0  0
    4.6890    1.6810   18.4640 C   0  0  0  0  0  0  0  0  0  0  0  0
    5.4210    0.9600   21.0930 C   0  0  0  0  0  0  0  0  0  0  0  0
    9.0720   -1.1280   24.8640 C   0  0  0  0  0  0  0  0  0  0  0  0
    9.7200   -2.2600   22.8630 C   0  0  0  0  0  0  0  0  0  0  0  0
    8.9960   -2.3380   25.5320 C   0  0  0  0  0  0  0  0  0  0  0  0
    9.6730   -3.4710   23.5300 C   0  0  0  0  0  0  0  0  0  0  0  0
   12.2111    0.2208   23.7905 C   0  0  0  0  0  0  0  0  0  0  0  0
   13.5412    0.5479   23.9364 C   0  0  0  0  0  0  0  0  0  0  0  0
   12.1057    2.5424   23.8305 C   0  0  0  0  0  0  0  0  0  0  0  0
    7.6390   -0.2680   18.5410 C   0  0  0  0  0  0  0  0  0  0  0  0
   11.3794    1.3761   23.7290 C   0  0  0  0  0  0  0  0  0  0  0  0
    5.8300    0.9190   18.6970 C   0  0  0  0  0  0  0  0  0  0  0  0
    6.1790    0.5730   19.9990 C   0  0  0  0  0  0  0  0  0  0  0  0
    9.3350   -1.0880   23.5010 C   0  0  0  0  0  0  0  0  0  0  0  0
    9.3070   -3.5340   24.8780 C   0  0  0  0  0  0  0  0  0  0  0  0
    9.0420    0.3700   21.5280 C   0  0  0  0  0  0  0  0  0  0  0  0
    9.5894   -5.8809   24.7798 C   0  0  0  0  0  0  0  0  0  0  0  0
    9.8870    1.3260   23.5730 C   0  0  0  0  0  0  0  0  0  0  0  0
    6.7580    0.3810   17.8350 N   0  0  0  0  0  0  0  0  0  0  0  0
    7.3170   -0.1610   19.8550 N   0  0  0  0  0  0  0  0  0  0  0  0
    8.1890   -0.7180   20.8700 N   0  0  0  0  0  0  0  0  0  0  0  0
    9.4560    0.1560   22.8130 N   0  0  0  0  0  0  0  0  0  0  0  0
    9.2690    1.4140   20.9380 O   0  0  0  0  0  0  0  0  0  0  0  0
    9.2555   -4.7124   25.5274 O   0  0  0  0  0  0  0  0  0  0  0  0
   13.7831    2.2420   23.9988 S   0  0  0  0  0  0  0  0  0  0  0  0
    3.0134    2.6521   19.3911 H   0  0  0  0  0  0  0  0  0  0  0  0
    3.6460    2.0127   21.6812 H   0  0  0  0  0  0  0  0  0  0  0  0
    4.4037    1.9731   17.4543 H   0  0  0  0  0  0  0  0  0  0  0  0
    5.7084    0.6923   22.1132 H   0  0  0  0  0  0  0  0  0  0  0  0
    8.9221   -0.1995   25.4231 H   0  0  0  0  0  0  0  0  0  0  0  0
   10.0642   -2.2347   21.8253 H   0  0  0  0  0  0  0  0  0  0  0  0
    8.6902   -2.3588   26.5805 H   0  0  0  0  0  0  0  0  0  0  0  0
    9.9254   -4.3921   22.9961 H   0  0  0  0  0  0  0  0  0  0  0  0
   11.8558   -0.8003   23.7315 H   0  0  0  0  0  0  0  0  0  0  0  0
   14.3824   -0.1267   24.0100 H   0  0  0  0  0  0  0  0  0  0  0  0
   11.7354    3.5581   23.8155 H   0  0  0  0  0  0  0  0  0  0  0  0
    8.4862   -0.8060   18.1787 H   0  0  0  0  0  0  0  0  0  0  0  0
    9.5074   -6.7611   25.4222 H   0  0  0  0  0  0  0  0  0  0  0  0
   10.6088   -5.7902   24.3963 H   0  0  0  0  0  0  0  0  0  0  0  0
    8.8944   -5.9778   23.9424 H   0  0  0  0  0  0  0  0  0  0  0  0
    9.3974    1.2912   24.5523 H   0  0  0  0  0  0  0  0  0  0  0  0
    9.5159    2.2168   23.0553 H   0  0  0  0  0  0  0  0  0  0  0  0
    8.2233   -1.5737   21.0809 H   0  0  0  0  0  0  0  0  0  0  0  0
  1  2  1  0  0  0  0
  1  3  2  0  0  0  0
  2  4  2  0  0  0  0
  3 14  1  0  0  0  0
  4 15  1  0  0  0  0
  5  7  2  0  0  0  0
  5 16  1  0  0  0  0
  6  8  1  0  0  0  0
  6 16  2  0  0  0  0
  7 17  1  0  0  0  0
  8 17  2  0  0  0  0
  9 10  2  0  0  0  0
  9 13  1  0  0  0  0
 10 27  1  0  0  0  0
 11 13  2  0  0  0  0
 11 27  1  0  0  0  0
 12 21  2  0  0  0  0
 12 22  1  0  0  0  0
 13 20  1  0  0  0  0
 14 15  2  0  0  0  0
 14 21  1  0  0  0  0
 15 22  1  0  0  0  0
 16 24  1  0  0  0  0
 17 26  1  0  0  0  0
 18 23  1  0  0  0  0
 18 24  1  0  0  0  0
 18 25  2  0  0  0  0
 19 26  1  0  0  0  0
 20 24  1  0  0  0  0
 22 23  1  0  0  0  0
  1 28  1  0  0  0  0
  2 29  1  0  0  0  0
  3 30  1  0  0  0  0
  4 31  1  0  0  0  0
  5 32  1  0  0  0  0
  6 33  1  0  0  0  0
  7 34  1  0  0  0  0
  8 35  1  0  0  0  0
  9 36  1  0  0  0  0
 10 37  1  0  0  0  0
 11 38  1  0  0  0  0
 12 39  1  0  0  0  0
 19 40  1  0  0  0  0
 19 41  1  0  0  0  0
 19 42  1  0  0  0  0
 20 43  1  0  0  0  0
 20 44  1  0  0  0  0
 23 45  1  0  0  0  0
M  END
> <clash_score>
0

> <docking_score>
-7.773568153381348

> <overlap_score>
0.9491583108901978

$$$$
BENZO_47_1
  -OEChem-08222022163D

 48 51  0     0  0  0  0  0  0999 V2000
    3.9160    2.0630   19.5520 C   0  0  0  0  0  0  0  0  0  0  0  0
    4.2750    1.7050   20.8490 C   0  0  0  0  0  0  0  0  0  0  0  0
    4.6890    1.6810   18.4640 C   0  0  0  0  0  0  0  0  0  0  0  0
    5.4210    0.9600   21.0930 C   0  0  0  0  0  0  0  0  0  0  0  0
    9.0720   -1.1280   24.8640 C   0  0  0  0  0  0  0  0  0  0  0  0
    9.7200   -2.2600   22.8630 C   0  0  0  0  0  0  0  0  0  0  0  0
    8.9960   -2.3380   25.5320 C   0  0  0  0  0  0  0  0  0  0  0  0
    9.6730   -3.4710   23.5300 C   0  0  0  0  0  0  0  0  0  0  0  0
   12.2914    2.2071   23.0512 C   0  0  0  0  0  0  0  0  0  0  0  0
   12.1614    0.6214   24.5689 C   0  0  0  0  0  0  0  0  0  0  0  0
    7.6390   -0.2680   18.5410 C   0  0  0  0  0  0  0  0  0  0  0  0
   11.3794    1.3761   23.7290 C   0  0  0  0  0  0  0  0  0  0  0  0
    5.8300    0.9190   18.6970 C   0  0  0  0  0  0  0  0  0  0  0  0
    6.1790    0.5730   19.9990 C   0  0  0  0  0  0  0  0  0  0  0  0
    9.3350   -1.0880   23.5010 C   0  0  0  0  0  0  0  0  0  0  0  0
    9.3070   -3.5340   24.8780 C   0  0  0  0  0  0  0  0  0  0  0  0
    9.0420    0.3700   21.5280 C   0  0  0  0  0  0  0  0  0  0  0  0
   14.6267    0.5248   25.0067 C   0  0  0  0  0  0  0  0  0  0  0  0
    8.8720   -4.6805   26.9013 C   0  0  0  0  0  0  0  0  0  0  0  0
    9.8870    1.3260   23.5730 C   0  0  0  0  0  0  0  0  0  0  0  0
   13.5560    2.0002   23.4280 N   0  0  0  0  0  0  0  0  0  0  0  0
    6.7580    0.3810   17.8350 N   0  0  0  0  0  0  0  0  0  0  0  0
   13.4442    1.0306   24.3518 N   0  0  0  0  0  0  0  0  0  0  0  0
    7.3170   -0.1610   19.8550 N   0  0  0  0  0  0  0  0  0  0  0  0
    8.1890   -0.7180   20.8700 N   0  0  0  0  0  0  0  0  0  0  0  0
    9.4560    0.1560   22.8130 N   0  0  0  0  0  0  0  0  0  0  0  0
    9.2690    1.4140   20.9380 O   0  0  0  0  0  0  0  0  0  0  0  0
    9.2555   -4.7124   25.5274 O   0  0  0  0  0  0  0  0  0  0  0  0
    3.0134    2.6521   19.3911 H   0  0  0  0  0  0  0  0  0  0  0  0
    3.6460    2.0127   21.6812 H   0  0  0  0  0  0  0  0  0  0  0  0
    4.4037    1.9731   17.4543 H   0  0  0  0  0  0  0  0  0  0  0  0
    5.7084    0.6923   22.1132 H   0  0  0  0  0  0  0  0  0  0  0  0
    8.9221   -0.1995   25.4231 H   0  0  0  0  0  0  0  0  0  0  0  0
   10.0642   -2.2347   21.8253 H   0  0  0  0  0  0  0  0  0  0  0  0
    8.6902   -2.3588   26.5805 H   0  0  0  0  0  0  0  0  0  0  0  0
    9.9254   -4.3921   22.9961 H   0  0  0  0  0  0  0  0  0  0  0  0
   12.0895    2.9562   22.2987 H   0  0  0  0  0  0  0  0  0  0  0  0
   11.9202   -0.1518   25.2857 H   0  0  0  0  0  0  0  0  0  0  0  0
    8.4862   -0.8060   18.1787 H   0  0  0  0  0  0  0  0  0  0  0  0
   15.0068   -0.3132   24.4165 H   0  0  0  0  0  0  0  0  0  0  0  0
   15.3758    1.3189   25.0698 H   0  0  0  0  0  0  0  0  0  0  0  0
   14.3676    0.1958   26.0170 H   0  0  0  0  0  0  0  0  0  0  0  0
    8.8711   -5.6964   27.3038 H   0  0  0  0  0  0  0  0  0  0  0  0
    7.8758   -4.2402   26.9923 H   0  0  0  0  0  0  0  0  0  0  0  0
    9.5894   -4.0716   27.4566 H   0  0  0  0  0  0  0  0  0  0  0  0
    9.3974    1.2912   24.5523 H   0  0  0  0  0  0  0  0  0  0  0  0
    9.5159    2.2168   23.0553 H   0  0  0  0  0  0  0  0  0  0  0  0
    8.2233   -1.5737   21.0809 H   0  0  0  0  0  0  0  0  0  0  0  0
  1  2  1  0  0  0  0
  1  3  2  0  0  0  0
  2  4  2  0  0  0  0
  3 13  1  0  0  0  0
  4 14  1  0  0  0  0
  5  7  2  0  0  0  0
  5 15  1  0  0  0  0
  6  8  1  0  0  0  0
  6 15  2  0  0  0  0
  7 16  1  0  0  0  0
  8 16  2  0  0  0  0
  9 12  1  0  0  0  0
  9 21  2  0  0  0  0
 10 12  2  0  0  0  0
 10 23  1  0  0  0  0
 11 22  2  0  0  0  0
 11 24  1  0  0  0  0
 12 20  1  0  0  0  0
 13 14  2  0  0  0  0
 13 22  1  0  0  0  0
 14 24  1  0  0  0  0
 15 26  1  0  0  0  0
 16 28  1  0  0  0  0
 17 25  1  0  0  0  0
 17 26  1  0  0  0  0
 17 27  2  0  0  0  0
 18 23  1  0  0  0  0
 19 28  1  0  0  0  0
 20 26  1  0  0  0  0
 21 23  1  0  0  0  0
 24 25  1  0  0  0  0
  1 29  1  0  0  0  0
  2 30  1  0  0  0  0
  3 31  1  0  0  0  0
  4 32  1  0  0  0  0
  5 33  1  0  0  0  0
  6 34  1  0  0  0  0
  7 35  1  0  0  0  0
  8 36  1  0  0  0  0
  9 37  1  0  0  0  0
 10 38  1  0  0  0  0
 11 39  1  0  0  0  0
 18 40  1  0  0  0  0
 18 41  1  0  0  0  0
 18 42  1  0  0  0  0
 19 43  1  0  0  0  0
 19 44  1  0  0  0  0
 19 45  1  0  0  0  0
 20 46  1  0  0  0  0
 20 47  1  0  0  0  0
 25 48  1  0  0  0  0
M  END
> <clash_score>
0.6199434752611445

> <docking_score>
-8.238595962524414

> <overlap_score>
0.9605907201766968

$$$$
BENZO_46_1
  -OEChem-08222022163D

 48 51  0     0  0  0  0  0  0999 V2000
    3.9160    2.0630   19.5520 C   0  0  0  0  0  0  0  0  0  0  0  0
    4.2750    1.7050   20.8490 C   0  0  0  0  0  0  0  0  0  0  0  0
   13.4007    0.5725   24.7805 C   0  0  0  0  0  0  0  0  0  0  0  0
   12.0141    0.5273   24.6359 C   0  0  0  0  0  0  0  0  0  0  0  0
    4.6890    1.6810   18.4640 C   0  0  0  0  0  0  0  0  0  0  0  0
    5.4210    0.9600   21.0930 C   0  0  0  0  0  0  0  0  0  0  0  0
    9.0720   -1.1280   24.8640 C   0  0  0  0  0  0  0  0  0  0  0  0
    9.7200   -2.2600   22.8630 C   0  0  0  0  0  0  0  0  0  0  0  0
    8.9960   -2.3380   25.5320 C   0  0  0  0  0  0  0  0  0  0  0  0
    9.6730   -3.4710   23.5300 C   0  0  0  0  0  0  0  0  0  0  0  0
   14.1526    1.4666   24.0184 C   0  0  0  0  0  0  0  0  0  0  0  0
   12.1314    2.2702   22.9668 C   0  0  0  0  0  0  0  0  0  0  0  0
    7.6390   -0.2680   18.5410 C   0  0  0  0  0  0  0  0  0  0  0  0
   11.3794    1.3761   23.7290 C   0  0  0  0  0  0  0  0  0  0  0  0
    5.8300    0.9190   18.6970 C   0  0  0  0  0  0  0  0  0  0  0  0
    6.1790    0.5730   19.9990 C   0  0  0  0  0  0  0  0  0  0  0  0
    9.3350   -1.0880   23.5010 C   0  0  0  0  0  0  0  0  0  0  0  0
    9.3070   -3.5340   24.8780 C   0  0  0  0  0  0  0  0  0  0  0  0
   13.5180    2.3154   23.1115 C   0  0  0  0  0  0  0  0  0  0  0  0
    9.0420    0.3700   21.5280 C   0  0  0  0  0  0  0  0  0  0  0  0
    8.8720   -4.6805   26.9013 C   0  0  0  0  0  0  0  0  0  0  0  0
    9.8870    1.3260   23.5730 C   0  0  0  0  0  0  0  0  0  0  0  0
    6.7580    0.3810   17.8350 N   0  0  0  0  0  0  0  0  0  0  0  0
    7.3170   -0.1610   19.8550 N   0  0  0  0  0  0  0  0  0  0  0  0
    8.1890   -0.7180   20.8700 N   0  0  0  0  0  0  0  0  0  0  0  0
    9.4560    0.1560   22.8130 N   0  0  0  0  0  0  0  0  0  0  0  0
    9.2690    1.4140   20.9380 O   0  0  0  0  0  0  0  0  0  0  0  0
    9.2555   -4.7124   25.5274 O   0  0  0  0  0  0  0  0  0  0  0  0
   14.4463    3.4175   22.1707 Cl  0  0  0  0  0  0  0  0  0  0  0  0
    3.0134    2.6521   19.3911 H   0  0  0  0  0  0  0  0  0  0  0  0
    3.6460    2.0127   21.6812 H   0  0  0  0  0  0  0  0  0  0  0  0
   13.8945   -0.0888   25.4867 H   0  0  0  0  0  0  0  0  0  0  0  0
   11.4361   -0.1726   25.2338 H   0  0  0  0  0  0  0  0  0  0  0  0
    4.4037    1.9731   17.4543 H   0  0  0  0  0  0  0  0  0  0  0  0
    5.7084    0.6923   22.1132 H   0  0  0  0  0  0  0  0  0  0  0  0
    8.9221   -0.1995   25.4231 H   0  0  0  0  0  0  0  0  0  0  0  0
   10.0642   -2.2347   21.8253 H   0  0  0  0  0  0  0  0  0  0  0  0
    8.6902   -2.3588   26.5805 H   0  0  0  0  0  0  0  0  0  0  0  0
    9.9254   -4.3921   22.9961 H   0  0  0  0  0  0  0  0  0  0  0  0
   15.2326    1.4907   24.1414 H   0  0  0  0  0  0  0  0  0  0  0  0
   11.6318    2.9303   22.2615 H   0  0  0  0  0  0  0  0  0  0  0  0
    8.4862   -0.8060   18.1787 H   0  0  0  0  0  0  0  0  0  0  0  0
    8.8711   -5.6964   27.3038 H   0  0  0  0  0  0  0  0  0  0  0  0
    7.8758   -4.2402   26.9923 H   0  0  0  0  0  0  0  0  0  0  0  0
    9.5894   -4.0716   27.4566 H   0  0  0  0  0  0  0  0  0  0  0  0
    9.3974    1.2912   24.5523 H   0  0  0  0  0  0  0  0  0  0  0  0
    9.5159    2.2168   23.0553 H   0  0  0  0  0  0  0  0  0  0  0  0
    8.2233   -1.5737   21.0809 H   0  0  0  0  0  0  0  0  0  0  0  0
  1  2  1  0  0  0  0
  1  5  2  0  0  0  0
  2  6  2  0  0  0  0
  3  4  2  0  0  0  0
  3 11  1  0  0  0  0
  4 14  1  0  0  0  0
  5 15  1  0  0  0  0
  6 16  1  0  0  0  0
  7  9  2  0  0  0  0
  7 17  1  0  0  0  0
  8 10  1  0  0  0  0
  8 17  2  0  0  0  0
  9 18  1  0  0  0  0
 10 18  2  0  0  0  0
 11 19  2  0  0  0  0
 12 14  2  0  0  0  0
 12 19  1  0  0  0  0
 13 23  2  0  0  0  0
 13 24  1  0  0  0  0
 14 22  1  0  0  0  0
 15 16  2  0  0  0  0
 15 23  1  0  0  0  0
 16 24  1  0  0  0  0
 17 26  1  0  0  0  0
 18 28  1  0  0  0  0
 19 29  1  0  0  0  0
 20 25  1  0  0  0  0
 20 26  1  0  0  0  0
 20 27  2  0  0  0  0
 21 28  1  0  0  0  0
 22 26  1  0  0  0  0
 24 25  1  0  0  0  0
  1 30  1  0  0  0  0
  2 31  1  0  0  0  0
  3 32  1  0  0  0  0
  4 33  1  0  0  0  0
  5 34  1  0  0  0  0
  6 35  1  0  0  0  0
  7 36  1  0  0  0  0
  8 37  1  0  0  0  0
  9 38  1  0  0  0  0
 10 39  1  0  0  0  0
 11 40  1  0  0  0  0
 12 41  1  0  0  0  0
 13 42  1  0  0  0  0
 21 43  1  0  0  0  0
 21 44  1  0  0  0  0
 21 45  1  0  0  0  0
 22 46  1  0  0  0  0
 22 47  1  0  0  0  0
 25 48  1  0  0  0  0
M  END
> <clash_score>
0

> <docking_score>
-7.667561054229736

> <overlap_score>
0.9730232954025269

$$$$
BENZO_49_1
  -OEChem-08222022163D

 58 62  0     0  0  0  0  0  0999 V2000
   14.1526    1.4694   24.0176 C   0  0  0  0  0  0  0  0  0  0  0  0
   13.3741    0.8121   24.9701 C   0  0  0  0  0  0  0  0  0  0  0  0
   13.5446    2.0802   22.9208 C   0  0  0  0  0  0  0  0  0  0  0  0
    3.9160    2.0630   19.5520 C   0  0  0  0  0  0  0  0  0  0  0  0
    4.2750    1.7050   20.8490 C   0  0  0  0  0  0  0  0  0  0  0  0
   11.9875    0.7654   24.8259 C   0  0  0  0  0  0  0  0  0  0  0  0
   12.1580    2.0335   22.7765 C   0  0  0  0  0  0  0  0  0  0  0  0
    4.6890    1.6810   18.4640 C   0  0  0  0  0  0  0  0  0  0  0  0
    5.4210    0.9600   21.0930 C   0  0  0  0  0  0  0  0  0  0  0  0
    8.9960   -2.3380   25.5320 C   0  0  0  0  0  0  0  0  0  0  0  0
    9.6730   -3.4710   23.5300 C   0  0  0  0  0  0  0  0  0  0  0  0
    9.0720   -1.1280   24.8640 C   0  0  0  0  0  0  0  0  0  0  0  0
    9.7200   -2.2600   22.8630 C   0  0  0  0  0  0  0  0  0  0  0  0
    7.6390   -0.2680   18.5410 C   0  0  0  0  0  0  0  0  0  0  0  0
   11.3794    1.3761   23.7290 C   0  0  0  0  0  0  0  0  0  0  0  0
    5.8300    0.9190   18.6970 C   0  0  0  0  0  0  0  0  0  0  0  0
    6.1790    0.5730   19.9990 C   0  0  0  0  0  0  0  0  0  0  0  0
    9.3070   -3.5340   24.8780 C   0  0  0  0  0  0  0  0  0  0  0  0
    9.3350   -1.0880   23.5010 C   0  0  0  0  0  0  0  0  0  0  0  0
    8.3597   -5.0073   26.6307 C   0  0  0  0  0  0  0  0  0  0  0  0
    9.0420    0.3700   21.5280 C   0  0  0  0  0  0  0  0  0  0  0  0
    8.4720   -6.3981   27.2296 C   0  0  0  0  0  0  0  0  0  0  0  0
    9.9252   -6.7605   27.4803 C   0  0  0  0  0  0  0  0  0  0  0  0
   10.7833   -6.6094   26.2282 C   0  0  0  0  0  0  0  0  0  0  0  0
   10.0539   -5.9099   25.0823 C   0  0  0  0  0  0  0  0  0  0  0  0
    9.8870    1.3260   23.5730 C   0  0  0  0  0  0  0  0  0  0  0  0
    6.7580    0.3810   17.8350 N   0  0  0  0  0  0  0  0  0  0  0  0
    7.3170   -0.1610   19.8550 N   0  0  0  0  0  0  0  0  0  0  0  0
    9.2530   -4.7797   25.5644 N   0  0  0  0  0  0  0  0  0  0  0  0
    8.1890   -0.7180   20.8700 N   0  0  0  0  0  0  0  0  0  0  0  0
    9.4560    0.1560   22.8130 N   0  0  0  0  0  0  0  0  0  0  0  0
    7.4954   -4.2356   27.0450 O   0  0  0  0  0  0  0  0  0  0  0  0
    9.2690    1.4140   20.9380 O   0  0  0  0  0  0  0  0  0  0  0  0
   15.2322    1.5068   24.1308 H   0  0  0  0  0  0  0  0  0  0  0  0
   13.8473    0.3374   25.8248 H   0  0  0  0  0  0  0  0  0  0  0  0
   14.1503    2.5930   22.1795 H   0  0  0  0  0  0  0  0  0  0  0  0
    3.0134    2.6521   19.3911 H   0  0  0  0  0  0  0  0  0  0  0  0
    3.6460    2.0127   21.6812 H   0  0  0  0  0  0  0  0  0  0  0  0
   11.3889    0.2508   25.5729 H   0  0  0  0  0  0  0  0  0  0  0  0
   11.6930    2.5120   21.9187 H   0  0  0  0  0  0  0  0  0  0  0  0
    4.4037    1.9731   17.4543 H   0  0  0  0  0  0  0  0  0  0  0  0
    5.7084    0.6923   22.1132 H   0  0  0  0  0  0  0  0  0  0  0  0
    8.6895   -2.3529   26.5807 H   0  0  0  0  0  0  0  0  0  0  0  0
    9.9262   -4.3897   22.9916 H   0  0  0  0  0  0  0  0  0  0  0  0
    8.9224   -0.1998   25.4238 H   0  0  0  0  0  0  0  0  0  0  0  0
   10.0649   -2.2343   21.8258 H   0  0  0  0  0  0  0  0  0  0  0  0
    8.4862   -0.8060   18.1787 H   0  0  0  0  0  0  0  0  0  0  0  0
    7.9325   -6.4148   28.1641 H   0  0  0  0  0  0  0  0  0  0  0  0
    8.0254   -7.0920   26.5333 H   0  0  0  0  0  0  0  0  0  0  0  0
   10.3387   -6.1267   28.2923 H   0  0  0  0  0  0  0  0  0  0  0  0
    9.9904   -7.8023   27.8537 H   0  0  0  0  0  0  0  0  0  0  0  0
   11.7037   -6.0404   26.4771 H   0  0  0  0  0  0  0  0  0  0  0  0
   11.1411   -7.6068   25.8918 H   0  0  0  0  0  0  0  0  0  0  0  0
   10.7782   -5.5162   24.3756 H   0  0  0  0  0  0  0  0  0  0  0  0
    9.4042   -6.6189   24.5807 H   0  0  0  0  0  0  0  0  0  0  0  0
    9.3974    1.2912   24.5523 H   0  0  0  0  0  0  0  0  0  0  0  0
    9.5159    2.2168   23.0553 H   0  0  0  0  0  0  0  0  0  0  0  0
    8.2565   -1.5523   21.1108 H   0  0  0  0  0  0  0  0  0  0  0  0
  1  2  1  0  0  0  0
  1  3  2  0  0  0  0
  2  6  2  0  0  0  0
  3  7  1  0  0  0  0
  4  5  1  0  0  0  0
  4  8  2  0  0  0  0
  5  9  2  0  0  0  0
  6 15  1  0  0  0  0
  7 15  2  0  0  0  0
  8 16  1  0  0  0  0
  9 17  1  0  0  0  0
 10 12  2  0  0  0  0
 10 18  1  0  0  0  0
 11 13  1  0  0  0  0
 11 18  2  0  0  0  0
 12 19  1  0  0  0  0
 13 19  2  0  0  0  0
 14 27  2  0  0  0  0
 14 28  1  0  0  0  0
 15 26  1  0  0  0  0
 16 17  2  0  0  0  0
 16 27  1  0  0  0  0
 17 28  1  0  0  0  0
 18 29  1  0  0  0  0
 19 31  1  0  0  0  0
 20 22  1  0  0  0  0
 20 29  1  0  0  0  0
 20 32  2  0  0  0  0
 21 30  1  0  0  0  0
 21 31  1  0  0  0  0
 21 33  2  0  0  0  0
 22 23  1  0  0  0  0
 23 24  1  0  0  0  0
 24 25  1  0  0  0  0
 25 29  1  0  0  0  0
 26 31  1  0  0  0  0
 28 30  1  0  0  0  0
  1 34  1  0  0  0  0
  2 35  1  0  0  0  0
  3 36  1  0  0  0  0
  4 37  1  0  0  0  0
  5 38  1  0  0  0  0
  6 39  1  0  0  0  0
  7 40  1  0  0  0  0
  8 41  1  0  0  0  0
  9 42  1  0  0  0  0
 10 43  1  0  0  0  0
 11 44  1  0  0  0  0
 12 45  1  0  0  0  0
 13 46  1  0  0  0  0
 14 47  1  0  0  0  0
 22 48  1  0  0  0  0
 22 49  1  0  0  0  0
 23 50  1  0  0  0  0
 23 51  1  0  0  0  0
 24 52  1  0  0  0  0
 24 53  1  0  0  0  0
 25 54  1  0  0  0  0
 25 55  1  0  0  0  0
 26 56  1  0  0  0  0
 26 57  1  0  0  0  0
 30 58  1  0  0  0  0
M  END
> <clash_score>
0.7790763812073098

> <docking_score>
-7.890211582183838

> <overlap_score>
1.0041024684906006

$$$$
BENZO_48_1
  -OEChem-08222022163D

 55 59  0     0  0  0  0  0  0999 V2000
    3.9160    2.0630   19.5520 C   0  0  0  0  0  0  0  0  0  0  0  0
    4.2750    1.7050   20.8490 C   0  0  0  0  0  0  0  0  0  0  0  0
    4.6890    1.6810   18.4640 C   0  0  0  0  0  0  0  0  0  0  0  0
    5.4210    0.9600   21.0930 C   0  0  0  0  0  0  0  0  0  0  0  0
    8.9960   -2.3380   25.5320 C   0  0  0  0  0  0  0  0  0  0  0  0
    9.6730   -3.4710   23.5300 C   0  0  0  0  0  0  0  0  0  0  0  0
    9.0720   -1.1280   24.8640 C   0  0  0  0  0  0  0  0  0  0  0  0
    9.7200   -2.2600   22.8630 C   0  0  0  0  0  0  0  0  0  0  0  0
   12.2913    1.4279   22.6355 C   0  0  0  0  0  0  0  0  0  0  0  0
   13.6024    1.4662   23.0564 C   0  0  0  0  0  0  0  0  0  0  0  0
   12.0284    1.3764   24.9443 C   0  0  0  0  0  0  0  0  0  0  0  0
    7.6390   -0.2680   18.5410 C   0  0  0  0  0  0  0  0  0  0  0  0
   11.3794    1.3761   23.7290 C   0  0  0  0  0  0  0  0  0  0  0  0
    5.8300    0.9190   18.6970 C   0  0  0  0  0  0  0  0  0  0  0  0
    6.1790    0.5730   19.9990 C   0  0  0  0  0  0  0  0  0  0  0  0
    9.3070   -3.5340   24.8780 C   0  0  0  0  0  0  0  0  0  0  0  0
    9.3350   -1.0880   23.5010 C   0  0  0  0  0  0  0  0  0  0  0  0
    8.3596   -5.0074   26.6308 C   0  0  0  0  0  0  0  0  0  0  0  0
    9.0420    0.3700   21.5280 C   0  0  0  0  0  0  0  0  0  0  0  0
    8.4579   -6.4047   27.2169 C   0  0  0  0  0  0  0  0  0  0  0  0
    8.4717   -7.4504   26.1159 C   0  0  0  0  0  0  0  0  0  0  0  0
    9.5645   -7.1893   25.0842 C   0  0  0  0  0  0  0  0  0  0  0  0
   10.2327   -5.8252   25.2501 C   0  0  0  0  0  0  0  0  0  0  0  0
    9.8870    1.3260   23.5730 C   0  0  0  0  0  0  0  0  0  0  0  0
    6.7580    0.3810   17.8350 N   0  0  0  0  0  0  0  0  0  0  0  0
    7.3170   -0.1610   19.8550 N   0  0  0  0  0  0  0  0  0  0  0  0
    9.2529   -4.7798   25.5645 N   0  0  0  0  0  0  0  0  0  0  0  0
    8.1890   -0.7180   20.8700 N   0  0  0  0  0  0  0  0  0  0  0  0
    9.4560    0.1560   22.8130 N   0  0  0  0  0  0  0  0  0  0  0  0
    7.5990   -4.1865   27.1424 O   0  0  0  0  0  0  0  0  0  0  0  0
    9.2690    1.4140   20.9380 O   0  0  0  0  0  0  0  0  0  0  0  0
   13.7301    1.4394   24.7638 S   0  0  0  0  0  0  0  0  0  0  0  0
    3.0134    2.6521   19.3911 H   0  0  0  0  0  0  0  0  0  0  0  0
    3.6460    2.0127   21.6812 H   0  0  0  0  0  0  0  0  0  0  0  0
    4.4037    1.9731   17.4543 H   0  0  0  0  0  0  0  0  0  0  0  0
    5.7084    0.6923   22.1132 H   0  0  0  0  0  0  0  0  0  0  0  0
    8.6895   -2.3529   26.5807 H   0  0  0  0  0  0  0  0  0  0  0  0
    9.9262   -4.3897   22.9916 H   0  0  0  0  0  0  0  0  0  0  0  0
    8.9224   -0.1998   25.4238 H   0  0  0  0  0  0  0  0  0  0  0  0
   10.0649   -2.2343   21.8258 H   0  0  0  0  0  0  0  0  0  0  0  0
   12.0045    1.4365   21.5915 H   0  0  0  0  0  0  0  0  0  0  0  0
   14.4914    1.5078   22.4430 H   0  0  0  0  0  0  0  0  0  0  0  0
   11.5886    1.3416   25.9314 H   0  0  0  0  0  0  0  0  0  0  0  0
    8.4862   -0.8060   18.1787 H   0  0  0  0  0  0  0  0  0  0  0  0
    9.3706   -6.4745   27.7885 H   0  0  0  0  0  0  0  0  0  0  0  0
    7.6055   -6.5497   27.8636 H   0  0  0  0  0  0  0  0  0  0  0  0
    8.6095   -8.4604   26.5550 H   0  0  0  0  0  0  0  0  0  0  0  0
    7.4835   -7.4763   25.6142 H   0  0  0  0  0  0  0  0  0  0  0  0
   10.3359   -7.9850   25.1531 H   0  0  0  0  0  0  0  0  0  0  0  0
    9.1458   -7.2796   24.0582 H   0  0  0  0  0  0  0  0  0  0  0  0
   10.9408   -5.8640   26.0725 H   0  0  0  0  0  0  0  0  0  0  0  0
   10.7521   -5.5631   24.3347 H   0  0  0  0  0  0  0  0  0  0  0  0
    9.3974    1.2912   24.5523 H   0  0  0  0  0  0  0  0  0  0  0  0
    9.5159    2.2168   23.0554 H   0  0  0  0  0  0  0  0  0  0  0  0
    8.2565   -1.5523   21.1108 H   0  0  0  0  0  0  0  0  0  0  0  0
  1  2  1  0  0  0  0
  1  3  2  0  0  0  0
  2  4  2  0  0  0  0
  3 14  1  0  0  0  0
  4 15  1  0  0  0  0
  5  7  2  0  0  0  0
  5 16  1  0  0  0  0
  6  8  1  0  0  0  0
  6 16  2  0  0  0  0
  7 17  1  0  0  0  0
  8 17  2  0  0  0  0
  9 10  2  0  0  0  0
  9 13  1  0  0  0  0
 10 32  1  0  0  0  0
 11 13  2  0  0  0  0
 11 32  1  0  0  0  0
 12 25  2  0  0  0  0
 12 26  1  0  0  0  0
 13 24  1  0  0  0  0
 14 15  2  0  0  0  0
 14 25  1  0  0  0  0
 15 26  1  0  0  0  0
 16 27  1  0  0  0  0
 17 29  1  0  0  0  0
 18 20  1  0  0  0  0
 18 27  1  0  0  0  0
 18 30  2  0  0  0  0
 19 28  1  0  0  0  0
 19 29  1  0  0  0  0
 19 31  2  0  0  0  0
 20 21  1  0  0  0  0
 21 22  1  0  0  0  0
 22 23  1  0  0  0  0
 23 27  1  0  0  0  0
 24 29  1  0  0  0  0
 26 28  1  0  0  0  0
  1 33  1  0  0  0  0
  2 34  1  0  0  0  0
  3 35  1  0  0  0  0
  4 36  1  0  0  0  0
  5 37  1  0  0  0  0
  6 38  1  0  0  0  0
  7 39  1  0  0  0  0
  8 40  1  0  0  0  0
  9 41  1  0  0  0  0
 10 42  1  0  0  0  0
 11 43  1  0  0  0  0
 12 44  1  0  0  0  0
 20 45  1  0  0  0  0
 20 46  1  0  0  0  0
 21 47  1  0  0  0  0
 21 48  1  0  0  0  0
 22 49  1  0  0  0  0
 22 50  1  0  0  0  0
 23 51  1  0  0  0  0
 23 52  1  0  0  0  0
 24 53  1  0  0  0  0
 24 54  1  0  0  0  0
 28 55  1  0  0  0  0
M  END
> <clash_score>
0.6354463265328341

> <docking_score>
-7.805525779724121

> <overlap_score>
0.9878004789352417

$$$$
BENZO_53_1
  -OEChem-08222022163D

 57 61  0     0  0  0  0  0  0999 V2000
   14.1526    1.4694   24.0176 C   0  0  0  0  0  0  0  0  0  0  0  0
   13.3741    0.8121   24.9701 C   0  0  0  0  0  0  0  0  0  0  0  0
   13.5446    2.0802   22.9208 C   0  0  0  0  0  0  0  0  0  0  0  0
    3.9160    2.0630   19.5520 C   0  0  0  0  0  0  0  0  0  0  0  0
    4.2750    1.7050   20.8490 C   0  0  0  0  0  0  0  0  0  0  0  0
   11.9875    0.7654   24.8258 C   0  0  0  0  0  0  0  0  0  0  0  0
   12.1580    2.0335   22.7765 C   0  0  0  0  0  0  0  0  0  0  0  0
    4.6890    1.6810   18.4640 C   0  0  0  0  0  0  0  0  0  0  0  0
    5.4210    0.9600   21.0930 C   0  0  0  0  0  0  0  0  0  0  0  0
    8.9960   -2.3380   25.5320 C   0  0  0  0  0  0  0  0  0  0  0  0
    9.6730   -3.4710   23.5300 C   0  0  0  0  0  0  0  0  0  0  0  0
    9.0720   -1.1280   24.8640 C   0  0  0  0  0  0  0  0  0  0  0  0
    9.7200   -2.2600   22.8630 C   0  0  0  0  0  0  0  0  0  0  0  0
    7.6390   -0.2680   18.5410 C   0  0  0  0  0  0  0  0  0  0  0  0
   11.3794    1.3761   23.7290 C   0  0  0  0  0  0  0  0  0  0  0  0
    5.8300    0.9190   18.6970 C   0  0  0  0  0  0  0  0  0  0  0  0
    6.1790    0.5730   19.9990 C   0  0  0  0  0  0  0  0  0  0  0  0
    9.3070   -3.5340   24.8780 C   0  0  0  0  0  0  0  0  0  0  0  0
    9.3350   -1.0880   23.5010 C   0  0  0  0  0  0  0  0  0  0  0  0
    9.0420    0.3700   21.5280 C   0  0  0  0  0  0  0  0  0  0  0  0
   10.0771   -5.0255   26.7193 C   0  0  0  0  0  0  0  0  0  0  0  0
    8.0926   -5.6195   25.4071 C   0  0  0  0  0  0  0  0  0  0  0  0
    9.1933   -4.9427   27.9592 C   0  0  0  0  0  0  0  0  0  0  0  0
    7.2756   -5.5290   26.6967 C   0  0  0  0  0  0  0  0  0  0  0  0
    9.8870    1.3260   23.5730 C   0  0  0  0  0  0  0  0  0  0  0  0
    6.7580    0.3810   17.8350 N   0  0  0  0  0  0  0  0  0  0  0  0
    7.3170   -0.1610   19.8550 N   0  0  0  0  0  0  0  0  0  0  0  0
    9.2563   -4.7368   25.5413 N   0  0  0  0  0  0  0  0  0  0  0  0
    8.1890   -0.7180   20.8700 N   0  0  0  0  0  0  0  0  0  0  0  0
    9.4560    0.1560   22.8130 N   0  0  0  0  0  0  0  0  0  0  0  0
    9.2690    1.4140   20.9380 O   0  0  0  0  0  0  0  0  0  0  0  0
    8.0883   -5.8459   27.8325 O   0  0  0  0  0  0  0  0  0  0  0  0
   15.2322    1.5068   24.1308 H   0  0  0  0  0  0  0  0  0  0  0  0
   13.8473    0.3374   25.8248 H   0  0  0  0  0  0  0  0  0  0  0  0
   14.1503    2.5930   22.1795 H   0  0  0  0  0  0  0  0  0  0  0  0
    3.0134    2.6521   19.3911 H   0  0  0  0  0  0  0  0  0  0  0  0
    3.6460    2.0127   21.6812 H   0  0  0  0  0  0  0  0  0  0  0  0
   11.3889    0.2508   25.5729 H   0  0  0  0  0  0  0  0  0  0  0  0
   11.6930    2.5120   21.9187 H   0  0  0  0  0  0  0  0  0  0  0  0
    4.4037    1.9731   17.4543 H   0  0  0  0  0  0  0  0  0  0  0  0
    5.7084    0.6923   22.1132 H   0  0  0  0  0  0  0  0  0  0  0  0
    8.6905   -2.3533   26.5810 H   0  0  0  0  0  0  0  0  0  0  0  0
    9.9266   -4.3896   22.9917 H   0  0  0  0  0  0  0  0  0  0  0  0
    8.9233   -0.1992   25.4232 H   0  0  0  0  0  0  0  0  0  0  0  0
   10.0650   -2.2330   21.8256 H   0  0  0  0  0  0  0  0  0  0  0  0
    8.4862   -0.8060   18.1787 H   0  0  0  0  0  0  0  0  0  0  0  0
   10.8985   -4.3115   26.8085 H   0  0  0  0  0  0  0  0  0  0  0  0
   10.4915   -6.0334   26.6323 H   0  0  0  0  0  0  0  0  0  0  0  0
    8.4327   -6.6456   25.2620 H   0  0  0  0  0  0  0  0  0  0  0  0
    7.4725   -5.3241   24.5619 H   0  0  0  0  0  0  0  0  0  0  0  0
    9.7636   -5.2398   28.8419 H   0  0  0  0  0  0  0  0  0  0  0  0
    8.8236   -3.9268   28.1248 H   0  0  0  0  0  0  0  0  0  0  0  0
    6.8339   -4.5337   26.8232 H   0  0  0  0  0  0  0  0  0  0  0  0
    6.4550   -6.2521   26.6643 H   0  0  0  0  0  0  0  0  0  0  0  0
    9.3974    1.2912   24.5523 H   0  0  0  0  0  0  0  0  0  0  0  0
    9.5159    2.2168   23.0554 H   0  0  0  0  0  0  0  0  0  0  0  0
    8.2565   -1.5523   21.1108 H   0  0  0  0  0  0  0  0  0  0  0  0
  1  2  1  0  0  0  0
  1  3  2  0  0  0  0
  2  6  2  0  0  0  0
  3  7  1  0  0  0  0
  4  5  1  0  0  0  0
  4  8  2  0  0  0  0
  5  9  2  0  0  0  0
  6 15  1  0  0  0  0
  7 15  2  0  0  0  0
  8 16  1  0  0  0  0
  9 17  1  0  0  0  0
 10 12  2  0  0  0  0
 10 18  1  0  0  0  0
 11 13  1  0  0  0  0
 11 18  2  0  0  0  0
 12 19  1  0  0  0  0
 13 19  2  0  0  0  0
 14 26  2  0  0  0  0
 14 27  1  0  0  0  0
 15 25  1  0  0  0  0
 16 17  2  0  0  0  0
 16 26  1  0  0  0  0
 17 27  1  0  0  0  0
 18 28  1  0  0  0  0
 19 30  1  0  0  0  0
 20 29  1  0  0  0  0
 20 30  1  0  0  0  0
 20 31  2  0  0  0  0
 21 23  1  0  0  0  0
 21 28  1  0  0  0  0
 22 24  1  0  0  0  0
 22 28  1  0  0  0  0
 23 32  1  0  0  0  0
 24 32  1  0  0  0  0
 25 30  1  0  0  0  0
 27 29  1  0  0  0  0
  1 33  1  0  0  0  0
  2 34  1  0  0  0  0
  3 35  1  0  0  0  0
  4 36  1  0  0  0  0
  5 37  1  0  0  0  0
  6 38  1  0  0  0  0
  7 39  1  0  0  0  0
  8 40  1  0  0  0  0
  9 41  1  0  0  0  0
 10 42  1  0  0  0  0
 11 43  1  0  0  0  0
 12 44  1  0  0  0  0
 13 45  1  0  0  0  0
 14 46  1  0  0  0  0
 21 47  1  0  0  0  0
 21 48  1  0  0  0  0
 22 49  1  0  0  0  0
 22 50  1  0  0  0  0
 23 51  1  0  0  0  0
 23 52  1  0  0  0  0
 24 53  1  0  0  0  0
 24 54  1  0  0  0  0
 25 55  1  0  0  0  0
 25 56  1  0  0  0  0
 29 57  1  0  0  0  0
M  END
> <clash_score>
0

> <docking_score>
-8.871355056762695

> <overlap_score>
0.990332305431366

$$$$
BENZO_50_1
  -OEChem-08222022163D

 58 62  0     0  0  0  0  0  0999 V2000
    3.9160    2.0630   19.5520 C   0  0  0  0  0  0  0  0  0  0  0  0
    4.2750    1.7050   20.8490 C   0  0  0  0  0  0  0  0  0  0  0  0
   13.4007    0.5725   24.7805 C   0  0  0  0  0  0  0  0  0  0  0  0
   12.0141    0.5273   24.6359 C   0  0  0  0  0  0  0  0  0  0  0  0
    4.6890    1.6810   18.4640 C   0  0  0  0  0  0  0  0  0  0  0  0
    5.4210    0.9600   21.0930 C   0  0  0  0  0  0  0  0  0  0  0  0
    8.9960   -2.3380   25.5320 C   0  0  0  0  0  0  0  0  0  0  0  0
    9.6730   -3.4710   23.5300 C   0  0  0  0  0  0  0  0  0  0  0  0
    9.0720   -1.1280   24.8640 C   0  0  0  0  0  0  0  0  0  0  0  0
    9.7200   -2.2600   22.8630 C   0  0  0  0  0  0  0  0  0  0  0  0
   14.1526    1.4666   24.0184 C   0  0  0  0  0  0  0  0  0  0  0  0
   12.1314    2.2702   22.9668 C   0  0  0  0  0  0  0  0  0  0  0  0
    7.6390   -0.2680   18.5410 C   0  0  0  0  0  0  0  0  0  0  0  0
   11.3794    1.3761   23.7290 C   0  0  0  0  0  0  0  0  0  0  0  0
    5.8300    0.9190   18.6970 C   0  0  0  0  0  0  0  0  0  0  0  0
    6.1790    0.5730   19.9990 C   0  0  0  0  0  0  0  0  0  0  0  0
    9.3070   -3.5340   24.8780 C   0  0  0  0  0  0  0  0  0  0  0  0
    9.3350   -1.0880   23.5010 C   0  0  0  0  0  0  0  0  0  0  0  0
   13.5180    2.3154   23.1115 C   0  0  0  0  0  0  0  0  0  0  0  0
    8.3597   -5.0073   26.6307 C   0  0  0  0  0  0  0  0  0  0  0  0
    9.0420    0.3700   21.5280 C   0  0  0  0  0  0  0  0  0  0  0  0
    8.4720   -6.3981   27.2296 C   0  0  0  0  0  0  0  0  0  0  0  0
    9.9252   -6.7605   27.4803 C   0  0  0  0  0  0  0  0  0  0  0  0
   10.7833   -6.6094   26.2282 C   0  0  0  0  0  0  0  0  0  0  0  0
   10.0539   -5.9099   25.0823 C   0  0  0  0  0  0  0  0  0  0  0  0
    9.8870    1.3260   23.5730 C   0  0  0  0  0  0  0  0  0  0  0  0
    6.7580    0.3810   17.8350 N   0  0  0  0  0  0  0  0  0  0  0  0
    7.3170   -0.1610   19.8550 N   0  0  0  0  0  0  0  0  0  0  0  0
    9.2530   -4.7797   25.5644 N   0  0  0  0  0  0  0  0  0  0  0  0
    8.1890   -0.7180   20.8700 N   0  0  0  0  0  0  0  0  0  0  0  0
    9.4560    0.1560   22.8130 N   0  0  0  0  0  0  0  0  0  0  0  0
    7.4954   -4.2356   27.0450 O   0  0  0  0  0  0  0  0  0  0  0  0
    9.2690    1.4140   20.9380 O   0  0  0  0  0  0  0  0  0  0  0  0
   14.4464    3.4175   22.1707 Cl  0  0  0  0  0  0  0  0  0  0  0  0
    3.0134    2.6521   19.3911 H   0  0  0  0  0  0  0  0  0  0  0  0
    3.6460    2.0127   21.6812 H   0  0  0  0  0  0  0  0  0  0  0  0
   13.8945   -0.0888   25.4867 H   0  0  0  0  0  0  0  0  0  0  0  0
   11.4361   -0.1726   25.2338 H   0  0  0  0  0  0  0  0  0  0  0  0
    4.4037    1.9731   17.4543 H   0  0  0  0  0  0  0  0  0  0  0  0
    5.7084    0.6923   22.1132 H   0  0  0  0  0  0  0  0  0  0  0  0
    8.6895   -2.3529   26.5807 H   0  0  0  0  0  0  0  0  0  0  0  0
    9.9262   -4.3897   22.9916 H   0  0  0  0  0  0  0  0  0  0  0  0
    8.9224   -0.1998   25.4238 H   0  0  0  0  0  0  0  0  0  0  0  0
   10.0649   -2.2343   21.8258 H   0  0  0  0  0  0  0  0  0  0  0  0
   15.2326    1.4907   24.1414 H   0  0  0  0  0  0  0  0  0  0  0  0
   11.6318    2.9303   22.2615 H   0  0  0  0  0  0  0  0  0  0  0  0
    8.4862   -0.8060   18.1787 H   0  0  0  0  0  0  0  0  0  0  0  0
    7.9325   -6.4148   28.1641 H   0  0  0  0  0  0  0  0  0  0  0  0
    8.0254   -7.0920   26.5333 H   0  0  0  0  0  0  0  0  0  0  0  0
   10.3387   -6.1267   28.2923 H   0  0  0  0  0  0  0  0  0  0  0  0
    9.9904   -7.8023   27.8537 H   0  0  0  0  0  0  0  0  0  0  0  0
   11.7037   -6.0404   26.4771 H   0  0  0  0  0  0  0  0  0  0  0  0
   11.1411   -7.6068   25.8918 H   0  0  0  0  0  0  0  0  0  0  0  0
   10.7782   -5.5162   24.3756 H   0  0  0  0  0  0  0  0  0  0  0  0
    9.4042   -6.6189   24.5807 H   0  0  0  0  0  0  0  0  0  0  0  0
    9.3974    1.2912   24.5523 H   0  0  0  0  0  0  0  0  0  0  0  0
    9.5159    2.2168   23.0553 H   0  0  0  0  0  0  0  0  0  0  0  0
    8.2565   -1.5523   21.1108 H   0  0  0  0  0  0  0  0  0  0  0  0
  1  2  1  0  0  0  0
  1  5  2  0  0  0  0
  2  6  2  0  0  0  0
  3  4  2  0  0  0  0
  3 11  1  0  0  0  0
  4 14  1  0  0  0  0
  5 15  1  0  0  0  0
  6 16  1  0  0  0  0
  7  9  2  0  0  0  0
  7 17  1  0  0  0  0
  8 10  1  0  0  0  0
  8 17  2  0  0  0  0
  9 18  1  0  0  0  0
 10 18  2  0  0  0  0
 11 19  2  0  0  0  0
 12 14  2  0  0  0  0
 12 19  1  0  0  0  0
 13 27  2  0  0  0  0
 13 28  1  0  0  0  0
 14 26  1  0  0  0  0
 15 16  2  0  0  0  0
 15 27  1  0  0  0  0
 16 28  1  0  0  0  0
 17 29  1  0  0  0  0
 18 31  1  0  0  0  0
 19 34  1  0  0  0  0
 20 22  1  0  0  0  0
 20 29  1  0  0  0  0
 20 32  2  0  0  0  0
 21 30  1  0  0  0  0
 21 31  1  0  0  0  0
 21 33  2  0  0  0  0
 22 23  1  0  0  0  0
 23 24  1  0  0  0  0
 24 25  1  0  0  0  0
 25 29  1  0  0  0  0
 26 31  1  0  0  0  0
 28 30  1  0  0  0  0
  1 35  1  0  0  0  0
  2 36  1  0  0  0  0
  3 37  1  0  0  0  0
  4 38  1  0  0  0  0
  5 39  1  0  0  0  0
  6 40  1  0  0  0  0
  7 41  1  0  0  0  0
  8 42  1  0  0  0  0
  9 43  1  0  0  0  0
 10 44  1  0  0  0  0
 11 45  1  0  0  0  0
 12 46  1  0  0  0  0
 13 47  1  0  0  0  0
 22 48  1  0  0  0  0
 22 49  1  0  0  0  0
 23 50  1  0  0  0  0
 23 51  1  0  0  0  0
 24 52  1  0  0  0  0
 24 53  1  0  0  0  0
 25 54  1  0  0  0  0
 25 55  1  0  0  0  0
 26 56  1  0  0  0  0
 26 57  1  0  0  0  0
 30 58  1  0  0  0  0
M  END
> <clash_score>
0.7790763812073098

> <docking_score>
-7.027177333831787

> <overlap_score>
1.015157699584961

$$$$
BENZO_51_1
  -OEChem-08222022163D

 58 62  0     0  0  0  0  0  0999 V2000
    3.9160    2.0630   19.5520 C   0  0  0  0  0  0  0  0  0  0  0  0
    4.2750    1.7050   20.8490 C   0  0  0  0  0  0  0  0  0  0  0  0
    4.6890    1.6810   18.4640 C   0  0  0  0  0  0  0  0  0  0  0  0
    5.4210    0.9600   21.0930 C   0  0  0  0  0  0  0  0  0  0  0  0
    8.9960   -2.3380   25.5320 C   0  0  0  0  0  0  0  0  0  0  0  0
    9.6730   -3.4710   23.5300 C   0  0  0  0  0  0  0  0  0  0  0  0
    9.0720   -1.1280   24.8640 C   0  0  0  0  0  0  0  0  0  0  0  0
    9.7200   -2.2600   22.8630 C   0  0  0  0  0  0  0  0  0  0  0  0
   12.1233    1.3811   24.9242 C   0  0  0  0  0  0  0  0  0  0  0  0
   12.3262    1.4247   22.7351 C   0  0  0  0  0  0  0  0  0  0  0  0
    7.6390   -0.2680   18.5410 C   0  0  0  0  0  0  0  0  0  0  0  0
   11.3794    1.3761   23.7290 C   0  0  0  0  0  0  0  0  0  0  0  0
    5.8300    0.9190   18.6970 C   0  0  0  0  0  0  0  0  0  0  0  0
    6.1790    0.5730   19.9990 C   0  0  0  0  0  0  0  0  0  0  0  0
    9.3070   -3.5340   24.8780 C   0  0  0  0  0  0  0  0  0  0  0  0
    9.3350   -1.0880   23.5010 C   0  0  0  0  0  0  0  0  0  0  0  0
    8.3597   -5.0073   26.6307 C   0  0  0  0  0  0  0  0  0  0  0  0
    9.0420    0.3700   21.5280 C   0  0  0  0  0  0  0  0  0  0  0  0
    8.4720   -6.3981   27.2296 C   0  0  0  0  0  0  0  0  0  0  0  0
    9.9252   -6.7605   27.4803 C   0  0  0  0  0  0  0  0  0  0  0  0
   10.7833   -6.6094   26.2282 C   0  0  0  0  0  0  0  0  0  0  0  0
   10.0539   -5.9099   25.0823 C   0  0  0  0  0  0  0  0  0  0  0  0
   14.8305    1.5084   22.7418 C   0  0  0  0  0  0  0  0  0  0  0  0
    9.8870    1.3260   23.5730 C   0  0  0  0  0  0  0  0  0  0  0  0
   13.4410    1.4289   24.7112 N   0  0  0  0  0  0  0  0  0  0  0  0
    6.7580    0.3810   17.8350 N   0  0  0  0  0  0  0  0  0  0  0  0
   13.5326    1.4543   23.3707 N   0  0  0  0  0  0  0  0  0  0  0  0
    7.3170   -0.1610   19.8550 N   0  0  0  0  0  0  0  0  0  0  0  0
    9.2530   -4.7797   25.5644 N   0  0  0  0  0  0  0  0  0  0  0  0
    8.1890   -0.7180   20.8700 N   0  0  0  0  0  0  0  0  0  0  0  0
    9.4560    0.1560   22.8130 N   0  0  0  0  0  0  0  0  0  0  0  0
    7.4954   -4.2356   27.0450 O   0  0  0  0  0  0  0  0  0  0  0  0
    9.2690    1.4140   20.9380 O   0  0  0  0  0  0  0  0  0  0  0  0
    3.0134    2.6521   19.3911 H   0  0  0  0  0  0  0  0  0  0  0  0
    3.6460    2.0127   21.6812 H   0  0  0  0  0  0  0  0  0  0  0  0
    4.4037    1.9731   17.4543 H   0  0  0  0  0  0  0  0  0  0  0  0
    5.7084    0.6923   22.1132 H   0  0  0  0  0  0  0  0  0  0  0  0
    8.6895   -2.3529   26.5807 H   0  0  0  0  0  0  0  0  0  0  0  0
    9.9262   -4.3897   22.9916 H   0  0  0  0  0  0  0  0  0  0  0  0
    8.9224   -0.1998   25.4238 H   0  0  0  0  0  0  0  0  0  0  0  0
   10.0649   -2.2343   21.8258 H   0  0  0  0  0  0  0  0  0  0  0  0
   11.7624    1.3510   25.9426 H   0  0  0  0  0  0  0  0  0  0  0  0
   12.2462    1.4390   21.6566 H   0  0  0  0  0  0  0  0  0  0  0  0
    8.4862   -0.8060   18.1787 H   0  0  0  0  0  0  0  0  0  0  0  0
    7.9325   -6.4148   28.1641 H   0  0  0  0  0  0  0  0  0  0  0  0
    8.0254   -7.0920   26.5333 H   0  0  0  0  0  0  0  0  0  0  0  0
   10.3387   -6.1267   28.2923 H   0  0  0  0  0  0  0  0  0  0  0  0
    9.9904   -7.8023   27.8537 H   0  0  0  0  0  0  0  0  0  0  0  0
   11.7037   -6.0404   26.4771 H   0  0  0  0  0  0  0  0  0  0  0  0
   11.1411   -7.6068   25.8918 H   0  0  0  0  0  0  0  0  0  0  0  0
   10.7782   -5.5162   24.3756 H   0  0  0  0  0  0  0  0  0  0  0  0
    9.4042   -6.6189   24.5807 H   0  0  0  0  0  0  0  0  0  0  0  0
   15.0990    2.5601   22.6124 H   0  0  0  0  0  0  0  0  0  0  0  0
   15.5636    1.0018   23.3756 H   0  0  0  0  0  0  0  0  0  0  0  0
   14.7841    1.0025   21.7733 H   0  0  0  0  0  0  0  0  0  0  0  0
    9.3974    1.2912   24.5523 H   0  0  0  0  0  0  0  0  0  0  0  0
    9.5159    2.2168   23.0553 H   0  0  0  0  0  0  0  0  0  0  0  0
    8.2565   -1.5523   21.1108 H   0  0  0  0  0  0  0  0  0  0  0  0
  1  2  1  0  0  0  0
  1  3  2  0  0  0  0
  2  4  2  0  0  0  0
  3 13  1  0  0  0  0
  4 14  1  0  0  0  0
  5  7  2  0  0  0  0
  5 15  1  0  0  0  0
  6  8  1  0  0  0  0
  6 15  2  0  0  0  0
  7 16  1  0  0  0  0
  8 16  2  0  0  0  0
  9 12  1  0  0  0  0
  9 25  2  0  0  0  0
 10 12  2  0  0  0  0
 10 27  1  0  0  0  0
 11 26  2  0  0  0  0
 11 28  1  0  0  0  0
 12 24  1  0  0  0  0
 13 14  2  0  0  0  0
 13 26  1  0  0  0  0
 14 28  1  0  0  0  0
 15 29  1  0  0  0  0
 16 31  1  0  0  0  0
 17 19  1  0  0  0  0
 17 29  1  0  0  0  0
 17 32  2  0  0  0  0
 18 30  1  0  0  0  0
 18 31  1  0  0  0  0
 18 33  2  0  0  0  0
 19 20  1  0  0  0  0
 20 21  1  0  0  0  0
 21 22  1  0  0  0  0
 22 29  1  0  0  0  0
 23 27  1  0  0  0  0
 24 31  1  0  0  0  0
 25 27  1  0  0  0  0
 28 30  1  0  0  0  0
  1 34  1  0  0  0  0
  2 35  1  0  0  0  0
  3 36  1  0  0  0  0
  4 37  1  0  0  0  0
  5 38  1  0  0  0  0
  6 39  1  0  0  0  0
  7 40  1  0  0  0  0
  8 41  1  0  0  0  0
  9 42  1  0  0  0  0
 10 43  1  0  0  0  0
 11 44  1  0  0  0  0
 19 45  1  0  0  0  0
 19 46  1  0  0  0  0
 20 47  1  0  0  0  0
 20 48  1  0  0  0  0
 21 49  1  0  0  0  0
 21 50  1  0  0  0  0
 22 51  1  0  0  0  0
 22 52  1  0  0  0  0
 23 53  1  0  0  0  0
 23 54  1  0  0  0  0
 23 55  1  0  0  0  0
 24 56  1  0  0  0  0
 24 57  1  0  0  0  0
 30 58  1  0  0  0  0
M  END
> <clash_score>
0.7790763812073098

> <docking_score>
-7.606344699859619

> <overlap_score>
0.999036431312561

$$$$
BENZO_52_1
  -OEChem-08222022163D

 54 58  0     0  0  0  0  0  0999 V2000
    3.9160    2.0630   19.5520 C   0  0  0  0  0  0  0  0  0  0  0  0
    4.2750    1.7050   20.8490 C   0  0  0  0  0  0  0  0  0  0  0  0
    4.6890    1.6810   18.4640 C   0  0  0  0  0  0  0  0  0  0  0  0
    5.4210    0.9600   21.0930 C   0  0  0  0  0  0  0  0  0  0  0  0
    8.9960   -2.3380   25.5320 C   0  0  0  0  0  0  0  0  0  0  0  0
    9.6730   -3.4710   23.5300 C   0  0  0  0  0  0  0  0  0  0  0  0
    9.0720   -1.1280   24.8640 C   0  0  0  0  0  0  0  0  0  0  0  0
    9.7200   -2.2600   22.8630 C   0  0  0  0  0  0  0  0  0  0  0  0
   12.2111    0.2208   23.7905 C   0  0  0  0  0  0  0  0  0  0  0  0
   13.5412    0.5479   23.9363 C   0  0  0  0  0  0  0  0  0  0  0  0
   12.1057    2.5424   23.8305 C   0  0  0  0  0  0  0  0  0  0  0  0
    7.6390   -0.2680   18.5410 C   0  0  0  0  0  0  0  0  0  0  0  0
   11.3794    1.3761   23.7290 C   0  0  0  0  0  0  0  0  0  0  0  0
    5.8300    0.9190   18.6970 C   0  0  0  0  0  0  0  0  0  0  0  0
    6.1790    0.5730   19.9990 C   0  0  0  0  0  0  0  0  0  0  0  0
    9.3070   -3.5340   24.8780 C   0  0  0  0  0  0  0  0  0  0  0  0
    9.3350   -1.0880   23.5010 C   0  0  0  0  0  0  0  0  0  0  0  0
    9.0420    0.3700   21.5280 C   0  0  0  0  0  0  0  0  0  0  0  0
    9.5174   -4.8597   26.9770 C   0  0  0  0  0  0  0  0  0  0  0  0
    8.5165   -5.8725   24.9808 C   0  0  0  0  0  0  0  0  0  0  0  0
    8.1868   -5.0439   27.6987 C   0  0  0  0  0  0  0  0  0  0  0  0
    7.2200   -6.0347   25.7755 C   0  0  0  0  0  0  0  0  0  0  0  0
    9.8870    1.3260   23.5730 C   0  0  0  0  0  0  0  0  0  0  0  0
    6.7580    0.3810   17.8350 N   0  0  0  0  0  0  0  0  0  0  0  0
    7.3170   -0.1610   19.8550 N   0  0  0  0  0  0  0  0  0  0  0  0
    9.2563   -4.7368   25.5413 N   0  0  0  0  0  0  0  0  0  0  0  0
    8.1890   -0.7180   20.8700 N   0  0  0  0  0  0  0  0  0  0  0  0
    9.4560    0.1560   22.8130 N   0  0  0  0  0  0  0  0  0  0  0  0
    9.2690    1.4140   20.9380 O   0  0  0  0  0  0  0  0  0  0  0  0
    7.4994   -6.1853   27.1719 O   0  0  0  0  0  0  0  0  0  0  0  0
   13.7831    2.2420   23.9988 S   0  0  0  0  0  0  0  0  0  0  0  0
    3.0134    2.6521   19.3911 H   0  0  0  0  0  0  0  0  0  0  0  0
    3.6460    2.0127   21.6812 H   0  0  0  0  0  0  0  0  0  0  0  0
    4.4037    1.9731   17.4543 H   0  0  0  0  0  0  0  0  0  0  0  0
    5.7084    0.6923   22.1132 H   0  0  0  0  0  0  0  0  0  0  0  0
    8.6905   -2.3533   26.5810 H   0  0  0  0  0  0  0  0  0  0  0  0
    9.9266   -4.3896   22.9917 H   0  0  0  0  0  0  0  0  0  0  0  0
    8.9233   -0.1992   25.4232 H   0  0  0  0  0  0  0  0  0  0  0  0
   10.0650   -2.2330   21.8256 H   0  0  0  0  0  0  0  0  0  0  0  0
   11.8558   -0.8003   23.7315 H   0  0  0  0  0  0  0  0  0  0  0  0
   14.3824   -0.1267   24.0100 H   0  0  0  0  0  0  0  0  0  0  0  0
   11.7354    3.5581   23.8155 H   0  0  0  0  0  0  0  0  0  0  0  0
    8.4862   -0.8060   18.1787 H   0  0  0  0  0  0  0  0  0  0  0  0
   10.0205   -3.9698   27.3609 H   0  0  0  0  0  0  0  0  0  0  0  0
   10.1535   -5.7310   27.1549 H   0  0  0  0  0  0  0  0  0  0  0  0
    9.1181   -6.7773   25.0755 H   0  0  0  0  0  0  0  0  0  0  0  0
    8.2812   -5.7064   23.9304 H   0  0  0  0  0  0  0  0  0  0  0  0
    8.3628   -5.2252   28.7611 H   0  0  0  0  0  0  0  0  0  0  0  0
    7.5530   -4.1570   27.6103 H   0  0  0  0  0  0  0  0  0  0  0  0
    6.5459   -5.1839   25.6221 H   0  0  0  0  0  0  0  0  0  0  0  0
    6.6948   -6.9354   25.4436 H   0  0  0  0  0  0  0  0  0  0  0  0
    9.3974    1.2912   24.5523 H   0  0  0  0  0  0  0  0  0  0  0  0
    9.5159    2.2168   23.0554 H   0  0  0  0  0  0  0  0  0  0  0  0
    8.2565   -1.5523   21.1108 H   0  0  0  0  0  0  0  0  0  0  0  0
  1  2  1  0  0  0  0
  1  3  2  0  0  0  0
  2  4  2  0  0  0  0
  3 14  1  0  0  0  0
  4 15  1  0  0  0  0
  5  7  2  0  0  0  0
  5 16  1  0  0  0  0
  6  8  1  0  0  0  0
  6 16  2  0  0  0  0
  7 17  1  0  0  0  0
  8 17  2  0  0  0  0
  9 10  2  0  0  0  0
  9 13  1  0  0  0  0
 10 31  1  0  0  0  0
 11 13  2  0  0  0  0
 11 31  1  0  0  0  0
 12 24  2  0  0  0  0
 12 25  1  0  0  0  0
 13 23  1  0  0  0  0
 14 15  2  0  0  0  0
 14 24  1  0  0  0  0
 15 25  1  0  0  0  0
 16 26  1  0  0  0  0
 17 28  1  0  0  0  0
 18 27  1  0  0  0  0
 18 28  1  0  0  0  0
 18 29  2  0  0  0  0
 19 21  1  0  0  0  0
 19 26  1  0  0  0  0
 20 22  1  0  0  0  0
 20 26  1  0  0  0  0
 21 30  1  0  0  0  0
 22 30  1  0  0  0  0
 23 28  1  0  0  0  0
 25 27  1  0  0  0  0
  1 32  1  0  0  0  0
  2 33  1  0  0  0  0
  3 34  1  0  0  0  0
  4 35  1  0  0  0  0
  5 36  1  0  0  0  0
  6 37  1  0  0  0  0
  7 38  1  0  0  0  0
  8 39  1  0  0  0  0
  9 40  1  0  0  0  0
 10 41  1  0  0  0  0
 11 42  1  0  0  0  0
 12 43  1  0  0  0  0
 19 44  1  0  0  0  0
 19 45  1  0  0  0  0
 20 46  1  0  0  0  0
 20 47  1  0  0  0  0
 21 48  1  0  0  0  0
 21 49  1  0  0  0  0
 22 50  1  0  0  0  0
 22 51  1  0  0  0  0
 23 52  1  0  0  0  0
 23 53  1  0  0  0  0
 27 54  1  0  0  0  0
M  END
> <clash_score>
0

> <docking_score>
-8.106627464294434

> <overlap_score>
0.9791509509086609

$$$$
BENZO_57_1
  -OEChem-08222022163D

 52 55  0     0  0  0  0  0  0999 V2000
   14.1526    1.4694   24.0176 C   0  0  0  0  0  0  0  0  0  0  0  0
    4.2750    1.7050   20.8490 C   0  0  0  0  0  0  0  0  0  0  0  0
   13.3741    0.8121   24.9701 C   0  0  0  0  0  0  0  0  0  0  0  0
   13.5446    2.0802   22.9208 C   0  0  0  0  0  0  0  0  0  0  0  0
    3.9160    2.0630   19.5520 C   0  0  0  0  0  0  0  0  0  0  0  0
    5.4210    0.9600   21.0930 C   0  0  0  0  0  0  0  0  0  0  0  0
   11.9875    0.7654   24.8258 C   0  0  0  0  0  0  0  0  0  0  0  0
   12.1580    2.0335   22.7765 C   0  0  0  0  0  0  0  0  0  0  0  0
    4.6890    1.6810   18.4640 C   0  0  0  0  0  0  0  0  0  0  0  0
    9.0720   -1.1280   24.8640 C   0  0  0  0  0  0  0  0  0  0  0  0
    9.7200   -2.2600   22.8630 C   0  0  0  0  0  0  0  0  0  0  0  0
    8.9960   -2.3380   25.5320 C   0  0  0  0  0  0  0  0  0  0  0  0
    9.6730   -3.4710   23.5300 C   0  0  0  0  0  0  0  0  0  0  0  0
    6.1790    0.5730   19.9990 C   0  0  0  0  0  0  0  0  0  0  0  0
   11.3794    1.3761   23.7290 C   0  0  0  0  0  0  0  0  0  0  0  0
    5.8300    0.9190   18.6970 C   0  0  0  0  0  0  0  0  0  0  0  0
    9.3350   -1.0880   23.5010 C   0  0  0  0  0  0  0  0  0  0  0  0
    9.3070   -3.5340   24.8780 C   0  0  0  0  0  0  0  0  0  0  0  0
    7.3170   -0.1610   19.8550 C   0  0  0  0  0  0  0  0  0  0  0  0
    9.0420    0.3700   21.5280 C   0  0  0  0  0  0  0  0  0  0  0  0
    8.0128   -5.2151   26.1416 C   0  0  0  0  0  0  0  0  0  0  0  0
   10.4372   -5.5860   25.6589 C   0  0  0  0  0  0  0  0  0  0  0  0
    9.8870    1.3260   23.5730 C   0  0  0  0  0  0  0  0  0  0  0  0
    7.6390   -0.2680   18.5410 N   0  0  0  0  0  0  0  0  0  0  0  0
    6.7580    0.3810   17.8350 N   0  0  0  0  0  0  0  0  0  0  0  0
    8.1890   -0.7180   20.8700 N   0  0  0  0  0  0  0  0  0  0  0  0
    9.4560    0.1560   22.8130 N   0  0  0  0  0  0  0  0  0  0  0  0
    9.2543   -4.7552   25.5519 N   0  0  0  0  0  0  0  0  0  0  0  0
    9.2690    1.4140   20.9380 O   0  0  0  0  0  0  0  0  0  0  0  0
   15.2322    1.5068   24.1308 H   0  0  0  0  0  0  0  0  0  0  0  0
    3.6468    2.0173   21.6825 H   0  0  0  0  0  0  0  0  0  0  0  0
   13.8473    0.3374   25.8248 H   0  0  0  0  0  0  0  0  0  0  0  0
   14.1503    2.5930   22.1795 H   0  0  0  0  0  0  0  0  0  0  0  0
    3.0153    2.6527   19.3907 H   0  0  0  0  0  0  0  0  0  0  0  0
    5.7015    0.6980   22.1071 H   0  0  0  0  0  0  0  0  0  0  0  0
   11.3889    0.2508   25.5729 H   0  0  0  0  0  0  0  0  0  0  0  0
   11.6930    2.5120   21.9187 H   0  0  0  0  0  0  0  0  0  0  0  0
    4.4064    1.9744   17.4453 H   0  0  0  0  0  0  0  0  0  0  0  0
    8.9217   -0.1995   25.4232 H   0  0  0  0  0  0  0  0  0  0  0  0
   10.0643   -2.2341   21.8254 H   0  0  0  0  0  0  0  0  0  0  0  0
    8.6893   -2.3540   26.5808 H   0  0  0  0  0  0  0  0  0  0  0  0
    9.9257   -4.3898   22.9921 H   0  0  0  0  0  0  0  0  0  0  0  0
    8.1744   -6.1904   26.6238 H   0  0  0  0  0  0  0  0  0  0  0  0
    7.6718   -4.4870   26.8924 H   0  0  0  0  0  0  0  0  0  0  0  0
    7.2494   -5.3166   25.3561 H   0  0  0  0  0  0  0  0  0  0  0  0
   10.1946   -6.4995   26.2216 H   0  0  0  0  0  0  0  0  0  0  0  0
   10.7865   -5.8577   24.6518 H   0  0  0  0  0  0  0  0  0  0  0  0
   11.2285   -5.0312   26.1842 H   0  0  0  0  0  0  0  0  0  0  0  0
    9.3974    1.2912   24.5523 H   0  0  0  0  0  0  0  0  0  0  0  0
    9.5159    2.2168   23.0553 H   0  0  0  0  0  0  0  0  0  0  0  0
    6.8044    0.4388   16.8592 H   0  0  0  0  0  0  0  0  0  0  0  0
    8.2409   -1.5618   21.0967 H   0  0  0  0  0  0  0  0  0  0  0  0
  1  3  1  0  0  0  0
  1  4  2  0  0  0  0
  2  5  1  0  0  0  0
  2  6  2  0  0  0  0
  3  7  2  0  0  0  0
  4  8  1  0  0  0  0
  5  9  2  0  0  0  0
  6 14  1  0  0  0  0
  7 15  1  0  0  0  0
  8 15  2  0  0  0  0
  9 16  1  0  0  0  0
 10 12  2  0  0  0  0
 10 17  1  0  0  0  0
 11 13  1  0  0  0  0
 11 17  2  0  0  0  0
 12 18  1  0  0  0  0
 13 18  2  0  0  0  0
 14 16  2  0  0  0  0
 14 19  1  0  0  0  0
 15 23  1  0  0  0  0
 16 25  1  0  0  0  0
 17 27  1  0  0  0  0
 18 28  1  0  0  0  0
 19 24  2  0  0  0  0
 19 26  1  0  0  0  0
 20 26  1  0  0  0  0
 20 27  1  0  0  0  0
 20 29  2  0  0  0  0
 21 28  1  0  0  0  0
 22 28  1  0  0  0  0
 23 27  1  0  0  0  0
 24 25  1  0  0  0  0
  1 30  1  0  0  0  0
  2 31  1  0  0  0  0
  3 32  1  0  0  0  0
  4 33  1  0  0  0  0
  5 34  1  0  0  0  0
  6 35  1  0  0  0  0
  7 36  1  0  0  0  0
  8 37  1  0  0  0  0
  9 38  1  0  0  0  0
 10 39  1  0  0  0  0
 11 40  1  0  0  0  0
 12 41  1  0  0  0  0
 13 42  1  0  0  0  0
 21 43  1  0  0  0  0
 21 44  1  0  0  0  0
 21 45  1  0  0  0  0
 22 46  1  0  0  0  0
 22 47  1  0  0  0  0
 22 48  1  0  0  0  0
 23 49  1  0  0  0  0
 23 50  1  0  0  0  0
 25 51  1  0  0  0  0
 26 52  1  0  0  0  0
M  END
> <clash_score>
0

> <docking_score>
-8.66699504852295

> <overlap_score>
0.9780115485191345

$$$$
BENZO_56_1
  -OEChem-08222022163D

 49 52  0     0  0  0  0  0  0999 V2000
    4.2750    1.7050   20.8490 C   0  0  0  0  0  0  0  0  0  0  0  0
    3.9160    2.0630   19.5520 C   0  0  0  0  0  0  0  0  0  0  0  0
    5.4210    0.9600   21.0930 C   0  0  0  0  0  0  0  0  0  0  0  0
    4.6890    1.6810   18.4640 C   0  0  0  0  0  0  0  0  0  0  0  0
    9.0720   -1.1280   24.8640 C   0  0  0  0  0  0  0  0  0  0  0  0
    9.7200   -2.2600   22.8630 C   0  0  0  0  0  0  0  0  0  0  0  0
    8.9960   -2.3380   25.5320 C   0  0  0  0  0  0  0  0  0  0  0  0
    9.6730   -3.4710   23.5300 C   0  0  0  0  0  0  0  0  0  0  0  0
   12.2913    1.4279   22.6355 C   0  0  0  0  0  0  0  0  0  0  0  0
   13.6024    1.4661   23.0564 C   0  0  0  0  0  0  0  0  0  0  0  0
   12.0284    1.3764   24.9443 C   0  0  0  0  0  0  0  0  0  0  0  0
    6.1790    0.5730   19.9990 C   0  0  0  0  0  0  0  0  0  0  0  0
   11.3794    1.3761   23.7290 C   0  0  0  0  0  0  0  0  0  0  0  0
    5.8300    0.9190   18.6970 C   0  0  0  0  0  0  0  0  0  0  0  0
    9.3350   -1.0880   23.5010 C   0  0  0  0  0  0  0  0  0  0  0  0
    9.3070   -3.5340   24.8780 C   0  0  0  0  0  0  0  0  0  0  0  0
    7.3170   -0.1610   19.8550 C   0  0  0  0  0  0  0  0  0  0  0  0
    9.0420    0.3700   21.5280 C   0  0  0  0  0  0  0  0  0  0  0  0
    8.8742   -4.8064   26.9496 C   0  0  0  0  0  0  0  0  0  0  0  0
    9.5655   -5.9897   24.8591 C   0  0  0  0  0  0  0  0  0  0  0  0
    9.8870    1.3260   23.5730 C   0  0  0  0  0  0  0  0  0  0  0  0
    7.6390   -0.2680   18.5410 N   0  0  0  0  0  0  0  0  0  0  0  0
    6.7580    0.3810   17.8350 N   0  0  0  0  0  0  0  0  0  0  0  0
    8.1890   -0.7180   20.8700 N   0  0  0  0  0  0  0  0  0  0  0  0
    9.4560    0.1560   22.8130 N   0  0  0  0  0  0  0  0  0  0  0  0
    9.2543   -4.7552   25.5519 N   0  0  0  0  0  0  0  0  0  0  0  0
    9.2690    1.4140   20.9380 O   0  0  0  0  0  0  0  0  0  0  0  0
   13.7301    1.4394   24.7638 S   0  0  0  0  0  0  0  0  0  0  0  0
    3.6468    2.0173   21.6825 H   0  0  0  0  0  0  0  0  0  0  0  0
    3.0153    2.6527   19.3907 H   0  0  0  0  0  0  0  0  0  0  0  0
    5.7015    0.6980   22.1071 H   0  0  0  0  0  0  0  0  0  0  0  0
    4.4064    1.9744   17.4453 H   0  0  0  0  0  0  0  0  0  0  0  0
    8.9217   -0.1995   25.4232 H   0  0  0  0  0  0  0  0  0  0  0  0
   10.0643   -2.2341   21.8254 H   0  0  0  0  0  0  0  0  0  0  0  0
    8.6893   -2.3540   26.5808 H   0  0  0  0  0  0  0  0  0  0  0  0
    9.9257   -4.3898   22.9921 H   0  0  0  0  0  0  0  0  0  0  0  0
   12.0045    1.4365   21.5915 H   0  0  0  0  0  0  0  0  0  0  0  0
   14.4914    1.5078   22.4431 H   0  0  0  0  0  0  0  0  0  0  0  0
   11.5886    1.3416   25.9314 H   0  0  0  0  0  0  0  0  0  0  0  0
    8.8922   -5.8499   27.2971 H   0  0  0  0  0  0  0  0  0  0  0  0
    9.5819   -4.2099   27.5440 H   0  0  0  0  0  0  0  0  0  0  0  0
    7.8599   -4.3978   27.0688 H   0  0  0  0  0  0  0  0  0  0  0  0
    9.4683   -6.8360   25.5551 H   0  0  0  0  0  0  0  0  0  0  0  0
    8.8685   -6.1243   24.0189 H   0  0  0  0  0  0  0  0  0  0  0  0
   10.5962   -5.9459   24.4771 H   0  0  0  0  0  0  0  0  0  0  0  0
    9.3974    1.2912   24.5523 H   0  0  0  0  0  0  0  0  0  0  0  0
    9.5159    2.2168   23.0553 H   0  0  0  0  0  0  0  0  0  0  0  0
    6.8044    0.4388   16.8592 H   0  0  0  0  0  0  0  0  0  0  0  0
    8.2409   -1.5618   21.0967 H   0  0  0  0  0  0  0  0  0  0  0  0
  1  2  1  0  0  0  0
  1  3  2  0  0  0  0
  2  4  2  0  0  0  0
  3 12  1  0  0  0  0
  4 14  1  0  0  0  0
  5  7  2  0  0  0  0
  5 15  1  0  0  0  0
  6  8  1  0  0  0  0
  6 15  2  0  0  0  0
  7 16  1  0  0  0  0
  8 16  2  0  0  0  0
  9 10  2  0  0  0  0
  9 13  1  0  0  0  0
 10 28  1  0  0  0  0
 11 13  2  0  0  0  0
 11 28  1  0  0  0  0
 12 14  2  0  0  0  0
 12 17  1  0  0  0  0
 13 21  1  0  0  0  0
 14 23  1  0  0  0  0
 15 25  1  0  0  0  0
 16 26  1  0  0  0  0
 17 22  2  0  0  0  0
 17 24  1  0  0  0  0
 18 24  1  0  0  0  0
 18 25  1  0  0  0  0
 18 27  2  0  0  0  0
 19 26  1  0  0  0  0
 20 26  1  0  0  0  0
 21 25  1  0  0  0  0
 22 23  1  0  0  0  0
  1 29  1  0  0  0  0
  2 30  1  0  0  0  0
  3 31  1  0  0  0  0
  4 32  1  0  0  0  0
  5 33  1  0  0  0  0
  6 34  1  0  0  0  0
  7 35  1  0  0  0  0
  8 36  1  0  0  0  0
  9 37  1  0  0  0  0
 10 38  1  0  0  0  0
 11 39  1  0  0  0  0
 19 40  1  0  0  0  0
 19 41  1  0  0  0  0
 19 42  1  0  0  0  0
 20 43  1  0  0  0  0
 20 44  1  0  0  0  0
 20 45  1  0  0  0  0
 21 46  1  0  0  0  0
 21 47  1  0  0  0  0
 23 48  1  0  0  0  0
 24 49  1  0  0  0  0
M  END
> <clash_score>
0

> <docking_score>
-8.423985481262207

> <overlap_score>
0.963939368724823

$$$$
BENZO_54_1
  -OEChem-08222022163D

 57 61  0     0  0  0  0  0  0999 V2000
    3.9160    2.0630   19.5520 C   0  0  0  0  0  0  0  0  0  0  0  0
    4.2750    1.7050   20.8490 C   0  0  0  0  0  0  0  0  0  0  0  0
   13.4006    0.5725   24.7805 C   0  0  0  0  0  0  0  0  0  0  0  0
   12.0141    0.5273   24.6359 C   0  0  0  0  0  0  0  0  0  0  0  0
    4.6890    1.6810   18.4640 C   0  0  0  0  0  0  0  0  0  0  0  0
    5.4210    0.9600   21.0930 C   0  0  0  0  0  0  0  0  0  0  0  0
    8.9960   -2.3380   25.5320 C   0  0  0  0  0  0  0  0  0  0  0  0
    9.6730   -3.4710   23.5300 C   0  0  0  0  0  0  0  0  0  0  0  0
    9.0720   -1.1280   24.8640 C   0  0  0  0  0  0  0  0  0  0  0  0
    9.7200   -2.2600   22.8630 C   0  0  0  0  0  0  0  0  0  0  0  0
   14.1526    1.4666   24.0184 C   0  0  0  0  0  0  0  0  0  0  0  0
   12.1314    2.2702   22.9668 C   0  0  0  0  0  0  0  0  0  0  0  0
    7.6390   -0.2680   18.5410 C   0  0  0  0  0  0  0  0  0  0  0  0
   11.3794    1.3761   23.7290 C   0  0  0  0  0  0  0  0  0  0  0  0
    5.8300    0.9190   18.6970 C   0  0  0  0  0  0  0  0  0  0  0  0
    6.1790    0.5730   19.9990 C   0  0  0  0  0  0  0  0  0  0  0  0
    9.3070   -3.5340   24.8780 C   0  0  0  0  0  0  0  0  0  0  0  0
    9.3350   -1.0880   23.5010 C   0  0  0  0  0  0  0  0  0  0  0  0
   13.5180    2.3154   23.1115 C   0  0  0  0  0  0  0  0  0  0  0  0
    9.0420    0.3700   21.5280 C   0  0  0  0  0  0  0  0  0  0  0  0
   10.0771   -5.0255   26.7193 C   0  0  0  0  0  0  0  0  0  0  0  0
    8.0926   -5.6195   25.4071 C   0  0  0  0  0  0  0  0  0  0  0  0
    9.1933   -4.9427   27.9592 C   0  0  0  0  0  0  0  0  0  0  0  0
    7.2756   -5.5290   26.6967 C   0  0  0  0  0  0  0  0  0  0  0  0
    9.8870    1.3260   23.5730 C   0  0  0  0  0  0  0  0  0  0  0  0
    6.7580    0.3810   17.8350 N   0  0  0  0  0  0  0  0  0  0  0  0
    7.3170   -0.1610   19.8550 N   0  0  0  0  0  0  0  0  0  0  0  0
    9.2563   -4.7368   25.5413 N   0  0  0  0  0  0  0  0  0  0  0  0
    8.1890   -0.7180   20.8700 N   0  0  0  0  0  0  0  0  0  0  0  0
    9.4560    0.1560   22.8130 N   0  0  0  0  0  0  0  0  0  0  0  0
    9.2690    1.4140   20.9380 O   0  0  0  0  0  0  0  0  0  0  0  0
    8.0883   -5.8459   27.8325 O   0  0  0  0  0  0  0  0  0  0  0  0
   14.4463    3.4175   22.1707 Cl  0  0  0  0  0  0  0  0  0  0  0  0
    3.0134    2.6521   19.3911 H   0  0  0  0  0  0  0  0  0  0  0  0
    3.6460    2.0127   21.6812 H   0  0  0  0  0  0  0  0  0  0  0  0
   13.8945   -0.0888   25.4867 H   0  0  0  0  0  0  0  0  0  0  0  0
   11.4361   -0.1726   25.2338 H   0  0  0  0  0  0  0  0  0  0  0  0
    4.4037    1.9731   17.4543 H   0  0  0  0  0  0  0  0  0  0  0  0
    5.7084    0.6923   22.1132 H   0  0  0  0  0  0  0  0  0  0  0  0
    8.6905   -2.3533   26.5810 H   0  0  0  0  0  0  0  0  0  0  0  0
    9.9266   -4.3896   22.9917 H   0  0  0  0  0  0  0  0  0  0  0  0
    8.9233   -0.1992   25.4232 H   0  0  0  0  0  0  0  0  0  0  0  0
   10.0650   -2.2330   21.8256 H   0  0  0  0  0  0  0  0  0  0  0  0
   15.2326    1.4907   24.1414 H   0  0  0  0  0  0  0  0  0  0  0  0
   11.6318    2.9303   22.2615 H   0  0  0  0  0  0  0  0  0  0  0  0
    8.4862   -0.8060   18.1787 H   0  0  0  0  0  0  0  0  0  0  0  0
   10.8985   -4.3115   26.8085 H   0  0  0  0  0  0  0  0  0  0  0  0
   10.4915   -6.0334   26.6323 H   0  0  0  0  0  0  0  0  0  0  0  0
    8.4327   -6.6456   25.2620 H   0  0  0  0  0  0  0  0  0  0  0  0
    7.4725   -5.3241   24.5619 H   0  0  0  0  0  0  0  0  0  0  0  0
    9.7636   -5.2398   28.8419 H   0  0  0  0  0  0  0  0  0  0  0  0
    8.8236   -3.9268   28.1248 H   0  0  0  0  0  0  0  0  0  0  0  0
    6.8339   -4.5337   26.8232 H   0  0  0  0  0  0  0  0  0  0  0  0
    6.4550   -6.2521   26.6643 H   0  0  0  0  0  0  0  0  0  0  0  0
    9.3974    1.2912   24.5523 H   0  0  0  0  0  0  0  0  0  0  0  0
    9.5159    2.2168   23.0554 H   0  0  0  0  0  0  0  0  0  0  0  0
    8.2565   -1.5523   21.1108 H   0  0  0  0  0  0  0  0  0  0  0  0
  1  2  1  0  0  0  0
  1  5  2  0  0  0  0
  2  6  2  0  0  0  0
  3  4  2  0  0  0  0
  3 11  1  0  0  0  0
  4 14  1  0  0  0  0
  5 15  1  0  0  0  0
  6 16  1  0  0  0  0
  7  9  2  0  0  0  0
  7 17  1  0  0  0  0
  8 10  1  0  0  0  0
  8 17  2  0  0  0  0
  9 18  1  0  0  0  0
 10 18  2  0  0  0  0
 11 19  2  0  0  0  0
 12 14  2  0  0  0  0
 12 19  1  0  0  0  0
 13 26  2  0  0  0  0
 13 27  1  0  0  0  0
 14 25  1  0  0  0  0
 15 16  2  0  0  0  0
 15 26  1  0  0  0  0
 16 27  1  0  0  0  0
 17 28  1  0  0  0  0
 18 30  1  0  0  0  0
 19 33  1  0  0  0  0
 20 29  1  0  0  0  0
 20 30  1  0  0  0  0
 20 31  2  0  0  0  0
 21 23  1  0  0  0  0
 21 28  1  0  0  0  0
 22 24  1  0  0  0  0
 22 28  1  0  0  0  0
 23 32  1  0  0  0  0
 24 32  1  0  0  0  0
 25 30  1  0  0  0  0
 27 29  1  0  0  0  0
  1 34  1  0  0  0  0
  2 35  1  0  0  0  0
  3 36  1  0  0  0  0
  4 37  1  0  0  0  0
  5 38  1  0  0  0  0
  6 39  1  0  0  0  0
  7 40  1  0  0  0  0
  8 41  1  0  0  0  0
  9 42  1  0  0  0  0
 10 43  1  0  0  0  0
 11 44  1  0  0  0  0
 12 45  1  0  0  0  0
 13 46  1  0  0  0  0
 21 47  1  0  0  0  0
 21 48  1  0  0  0  0
 22 49  1  0  0  0  0
 22 50  1  0  0  0  0
 23 51  1  0  0  0  0
 23 52  1  0  0  0  0
 24 53  1  0  0  0  0
 24 54  1  0  0  0  0
 25 55  1  0  0  0  0
 25 56  1  0  0  0  0
 29 57  1  0  0  0  0
M  END
> <clash_score>
0

> <docking_score>
-8.008331298828125

> <overlap_score>
1.0014259815216064

$$$$
BENZO_55_1
  -OEChem-08222022163D

 57 61  0     0  0  0  0  0  0999 V2000
    3.9160    2.0630   19.5520 C   0  0  0  0  0  0  0  0  0  0  0  0
    4.2750    1.7050   20.8490 C   0  0  0  0  0  0  0  0  0  0  0  0
    4.6890    1.6810   18.4640 C   0  0  0  0  0  0  0  0  0  0  0  0
    5.4210    0.9600   21.0930 C   0  0  0  0  0  0  0  0  0  0  0  0
    8.9960   -2.3380   25.5320 C   0  0  0  0  0  0  0  0  0  0  0  0
    9.6730   -3.4710   23.5300 C   0  0  0  0  0  0  0  0  0  0  0  0
    9.0720   -1.1280   24.8640 C   0  0  0  0  0  0  0  0  0  0  0  0
    9.7200   -2.2600   22.8630 C   0  0  0  0  0  0  0  0  0  0  0  0
   12.2914    2.2071   23.0512 C   0  0  0  0  0  0  0  0  0  0  0  0
   12.1614    0.6214   24.5689 C   0  0  0  0  0  0  0  0  0  0  0  0
    7.6390   -0.2680   18.5410 C   0  0  0  0  0  0  0  0  0  0  0  0
   11.3794    1.3761   23.7290 C   0  0  0  0  0  0  0  0  0  0  0  0
    5.8300    0.9190   18.6970 C   0  0  0  0  0  0  0  0  0  0  0  0
    6.1790    0.5730   19.9990 C   0  0  0  0  0  0  0  0  0  0  0  0
    9.3070   -3.5340   24.8780 C   0  0  0  0  0  0  0  0  0  0  0  0
    9.3350   -1.0880   23.5010 C   0  0  0  0  0  0  0  0  0  0  0  0
    9.0420    0.3700   21.5280 C   0  0  0  0  0  0  0  0  0  0  0  0
   10.0771   -5.0255   26.7193 C   0  0  0  0  0  0  0  0  0  0  0  0
    8.0926   -5.6195   25.4071 C   0  0  0  0  0  0  0  0  0  0  0  0
    9.1933   -4.9427   27.9592 C   0  0  0  0  0  0  0  0  0  0  0  0
    7.2756   -5.5290   26.6967 C   0  0  0  0  0  0  0  0  0  0  0  0
   14.6267    0.5248   25.0067 C   0  0  0  0  0  0  0  0  0  0  0  0
    9.8870    1.3260   23.5730 C   0  0  0  0  0  0  0  0  0  0  0  0
   13.5560    2.0002   23.4280 N   0  0  0  0  0  0  0  0  0  0  0  0
    6.7580    0.3810   17.8350 N   0  0  0  0  0  0  0  0  0  0  0  0
   13.4442    1.0306   24.3518 N   0  0  0  0  0  0  0  0  0  0  0  0
    7.3170   -0.1610   19.8550 N   0  0  0  0  0  0  0  0  0  0  0  0
    9.2563   -4.7368   25.5413 N   0  0  0  0  0  0  0  0  0  0  0  0
    8.1890   -0.7180   20.8700 N   0  0  0  0  0  0  0  0  0  0  0  0
    9.4560    0.1560   22.8130 N   0  0  0  0  0  0  0  0  0  0  0  0
    9.2690    1.4140   20.9380 O   0  0  0  0  0  0  0  0  0  0  0  0
    8.0883   -5.8459   27.8325 O   0  0  0  0  0  0  0  0  0  0  0  0
    3.0134    2.6521   19.3911 H   0  0  0  0  0  0  0  0  0  0  0  0
    3.6460    2.0127   21.6812 H   0  0  0  0  0  0  0  0  0  0  0  0
    4.4037    1.9731   17.4543 H   0  0  0  0  0  0  0  0  0  0  0  0
    5.7084    0.6923   22.1132 H   0  0  0  0  0  0  0  0  0  0  0  0
    8.6905   -2.3533   26.5810 H   0  0  0  0  0  0  0  0  0  0  0  0
    9.9266   -4.3896   22.9917 H   0  0  0  0  0  0  0  0  0  0  0  0
    8.9233   -0.1992   25.4232 H   0  0  0  0  0  0  0  0  0  0  0  0
   10.0650   -2.2330   21.8256 H   0  0  0  0  0  0  0  0  0  0  0  0
   12.0895    2.9562   22.2987 H   0  0  0  0  0  0  0  0  0  0  0  0
   11.9201   -0.1518   25.2857 H   0  0  0  0  0  0  0  0  0  0  0  0
    8.4862   -0.8060   18.1787 H   0  0  0  0  0  0  0  0  0  0  0  0
   10.8985   -4.3115   26.8085 H   0  0  0  0  0  0  0  0  0  0  0  0
   10.4915   -6.0334   26.6323 H   0  0  0  0  0  0  0  0  0  0  0  0
    8.4327   -6.6456   25.2620 H   0  0  0  0  0  0  0  0  0  0  0  0
    7.4725   -5.3241   24.5619 H   0  0  0  0  0  0  0  0  0  0  0  0
    9.7636   -5.2398   28.8419 H   0  0  0  0  0  0  0  0  0  0  0  0
    8.8236   -3.9268   28.1248 H   0  0  0  0  0  0  0  0  0  0  0  0
    6.8339   -4.5337   26.8232 H   0  0  0  0  0  0  0  0  0  0  0  0
    6.4550   -6.2521   26.6643 H   0  0  0  0  0  0  0  0  0  0  0  0
   15.0068   -0.3132   24.4165 H   0  0  0  0  0  0  0  0  0  0  0  0
   15.3758    1.3189   25.0698 H   0  0  0  0  0  0  0  0  0  0  0  0
   14.3676    0.1958   26.0170 H   0  0  0  0  0  0  0  0  0  0  0  0
    9.3974    1.2912   24.5523 H   0  0  0  0  0  0  0  0  0  0  0  0
    9.5159    2.2168   23.0554 H   0  0  0  0  0  0  0  0  0  0  0  0
    8.2565   -1.5523   21.1108 H   0  0  0  0  0  0  0  0  0  0  0  0
  1  2  1  0  0  0  0
  1  3  2  0  0  0  0
  2  4  2  0  0  0  0
  3 13  1  0  0  0  0
  4 14  1  0  0  0  0
  5  7  2  0  0  0  0
  5 15  1  0  0  0  0
  6  8  1  0  0  0  0
  6 15  2  0  0  0  0
  7 16  1  0  0  0  0
  8 16  2  0  0  0  0
  9 12  1  0  0  0  0
  9 24  2  0  0  0  0
 10 12  2  0  0  0  0
 10 26  1  0  0  0  0
 11 25  2  0  0  0  0
 11 27  1  0  0  0  0
 12 23  1  0  0  0  0
 13 14  2  0  0  0  0
 13 25  1  0  0  0  0
 14 27  1  0  0  0  0
 15 28  1  0  0  0  0
 16 30  1  0  0  0  0
 17 29  1  0  0  0  0
 17 30  1  0  0  0  0
 17 31  2  0  0  0  0
 18 20  1  0  0  0  0
 18 28  1  0  0  0  0
 19 21  1  0  0  0  0
 19 28  1  0  0  0  0
 20 32  1  0  0  0  0
 21 32  1  0  0  0  0
 22 26  1  0  0  0  0
 23 30  1  0  0  0  0
 24 26  1  0  0  0  0
 27 29  1  0  0  0  0
  1 33  1  0  0  0  0
  2 34  1  0  0  0  0
  3 35  1  0  0  0  0
  4 36  1  0  0  0  0
  5 37  1  0  0  0  0
  6 38  1  0  0  0  0
  7 39  1  0  0  0  0
  8 40  1  0  0  0  0
  9 41  1  0  0  0  0
 10 42  1  0  0  0  0
 11 43  1  0  0  0  0
 18 44  1  0  0  0  0
 18 45  1  0  0  0  0
 19 46  1  0  0  0  0
 19 47  1  0  0  0  0
 20 48  1  0  0  0  0
 20 49  1  0  0  0  0
 21 50  1  0  0  0  0
 21 51  1  0  0  0  0
 22 52  1  0  0  0  0
 22 53  1  0  0  0  0
 22 54  1  0  0  0  0
 23 55  1  0  0  0  0
 23 56  1  0  0  0  0
 29 57  1  0  0  0  0
M  END
> <clash_score>
0.6199415991294811

> <docking_score>
-8.579355239868164

> <overlap_score>
0.9891133904457092

$$$$
BENZO_59_1
  -OEChem-08222022163D

 52 55  0     0  0  0  0  0  0999 V2000
    4.2750    1.7050   20.8490 C   0  0  0  0  0  0  0  0  0  0  0  0
    3.9160    2.0630   19.5520 C   0  0  0  0  0  0  0  0  0  0  0  0
    5.4210    0.9600   21.0930 C   0  0  0  0  0  0  0  0  0  0  0  0
    4.6890    1.6810   18.4640 C   0  0  0  0  0  0  0  0  0  0  0  0
    9.0720   -1.1280   24.8640 C   0  0  0  0  0  0  0  0  0  0  0  0
    9.7200   -2.2600   22.8630 C   0  0  0  0  0  0  0  0  0  0  0  0
    8.9960   -2.3380   25.5320 C   0  0  0  0  0  0  0  0  0  0  0  0
    9.6730   -3.4710   23.5300 C   0  0  0  0  0  0  0  0  0  0  0  0
   12.2914    2.2071   23.0512 C   0  0  0  0  0  0  0  0  0  0  0  0
   12.1614    0.6214   24.5689 C   0  0  0  0  0  0  0  0  0  0  0  0
    6.1790    0.5730   19.9990 C   0  0  0  0  0  0  0  0  0  0  0  0
   11.3794    1.3761   23.7290 C   0  0  0  0  0  0  0  0  0  0  0  0
    5.8300    0.9190   18.6970 C   0  0  0  0  0  0  0  0  0  0  0  0
    9.3350   -1.0880   23.5010 C   0  0  0  0  0  0  0  0  0  0  0  0
    9.3070   -3.5340   24.8780 C   0  0  0  0  0  0  0  0  0  0  0  0
    7.3170   -0.1610   19.8550 C   0  0  0  0  0  0  0  0  0  0  0  0
    9.0420    0.3700   21.5280 C   0  0  0  0  0  0  0  0  0  0  0  0
   14.6267    0.5248   25.0067 C   0  0  0  0  0  0  0  0  0  0  0  0
    8.0128   -5.2151   26.1416 C   0  0  0  0  0  0  0  0  0  0  0  0
   10.4372   -5.5860   25.6589 C   0  0  0  0  0  0  0  0  0  0  0  0
    9.8870    1.3260   23.5730 C   0  0  0  0  0  0  0  0  0  0  0  0
   13.5560    2.0002   23.4280 N   0  0  0  0  0  0  0  0  0  0  0  0
    7.6390   -0.2680   18.5410 N   0  0  0  0  0  0  0  0  0  0  0  0
    6.7580    0.3810   17.8350 N   0  0  0  0  0  0  0  0  0  0  0  0
   13.4442    1.0306   24.3518 N   0  0  0  0  0  0  0  0  0  0  0  0
    8.1890   -0.7180   20.8700 N   0  0  0  0  0  0  0  0  0  0  0  0
    9.4560    0.1560   22.8130 N   0  0  0  0  0  0  0  0  0  0  0  0
    9.2543   -4.7552   25.5519 N   0  0  0  0  0  0  0  0  0  0  0  0
    9.2690    1.4140   20.9380 O   0  0  0  0  0  0  0  0  0  0  0  0
    3.6468    2.0173   21.6825 H   0  0  0  0  0  0  0  0  0  0  0  0
    3.0153    2.6527   19.3907 H   0  0  0  0  0  0  0  0  0  0  0  0
    5.7015    0.6980   22.1071 H   0  0  0  0  0  0  0  0  0  0  0  0
    4.4064    1.9744   17.4453 H   0  0  0  0  0  0  0  0  0  0  0  0
    8.9217   -0.1995   25.4232 H   0  0  0  0  0  0  0  0  0  0  0  0
   10.0643   -2.2341   21.8254 H   0  0  0  0  0  0  0  0  0  0  0  0
    8.6893   -2.3540   26.5808 H   0  0  0  0  0  0  0  0  0  0  0  0
    9.9257   -4.3898   22.9921 H   0  0  0  0  0  0  0  0  0  0  0  0
   12.0895    2.9562   22.2987 H   0  0  0  0  0  0  0  0  0  0  0  0
   11.9202   -0.1518   25.2857 H   0  0  0  0  0  0  0  0  0  0  0  0
   15.0068   -0.3132   24.4165 H   0  0  0  0  0  0  0  0  0  0  0  0
   15.3758    1.3189   25.0698 H   0  0  0  0  0  0  0  0  0  0  0  0
   14.3676    0.1958   26.0170 H   0  0  0  0  0  0  0  0  0  0  0  0
    8.1744   -6.1904   26.6238 H   0  0  0  0  0  0  0  0  0  0  0  0
    7.6718   -4.4870   26.8924 H   0  0  0  0  0  0  0  0  0  0  0  0
    7.2494   -5.3166   25.3561 H   0  0  0  0  0  0  0  0  0  0  0  0
   10.1946   -6.4995   26.2216 H   0  0  0  0  0  0  0  0  0  0  0  0
   10.7865   -5.8577   24.6518 H   0  0  0  0  0  0  0  0  0  0  0  0
   11.2285   -5.0312   26.1842 H   0  0  0  0  0  0  0  0  0  0  0  0
    9.3974    1.2912   24.5523 H   0  0  0  0  0  0  0  0  0  0  0  0
    9.5159    2.2168   23.0553 H   0  0  0  0  0  0  0  0  0  0  0  0
    6.8044    0.4388   16.8592 H   0  0  0  0  0  0  0  0  0  0  0  0
    8.2409   -1.5618   21.0967 H   0  0  0  0  0  0  0  0  0  0  0  0
  1  2  1  0  0  0  0
  1  3  2  0  0  0  0
  2  4  2  0  0  0  0
  3 11  1  0  0  0  0
  4 13  1  0  0  0  0
  5  7  2  0  0  0  0
  5 14  1  0  0  0  0
  6  8  1  0  0  0  0
  6 14  2  0  0  0  0
  7 15  1  0  0  0  0
  8 15  2  0  0  0  0
  9 12  1  0  0  0  0
  9 22  2  0  0  0  0
 10 12  2  0  0  0  0
 10 25  1  0  0  0  0
 11 13  2  0  0  0  0
 11 16  1  0  0  0  0
 12 21  1  0  0  0  0
 13 24  1  0  0  0  0
 14 27  1  0  0  0  0
 15 28  1  0  0  0  0
 16 23  2  0  0  0  0
 16 26  1  0  0  0  0
 17 26  1  0  0  0  0
 17 27  1  0  0  0  0
 17 29  2  0  0  0  0
 18 25  1  0  0  0  0
 19 28  1  0  0  0  0
 20 28  1  0  0  0  0
 21 27  1  0  0  0  0
 22 25  1  0  0  0  0
 23 24  1  0  0  0  0
  1 30  1  0  0  0  0
  2 31  1  0  0  0  0
  3 32  1  0  0  0  0
  4 33  1  0  0  0  0
  5 34  1  0  0  0  0
  6 35  1  0  0  0  0
  7 36  1  0  0  0  0
  8 37  1  0  0  0  0
  9 38  1  0  0  0  0
 10 39  1  0  0  0  0
 18 40  1  0  0  0  0
 18 41  1  0  0  0  0
 18 42  1  0  0  0  0
 19 43  1  0  0  0  0
 19 44  1  0  0  0  0
 19 45  1  0  0  0  0
 20 46  1  0  0  0  0
 20 47  1  0  0  0  0
 20 48  1  0  0  0  0
 21 49  1  0  0  0  0
 21 50  1  0  0  0  0
 24 51  1  0  0  0  0
 26 52  1  0  0  0  0
M  END
> <clash_score>
0.619941928330921

> <docking_score>
-8.375003814697266

> <overlap_score>
0.9767898917198181

$$$$
BENZO_58_1
  -OEChem-08222022163D

 52 55  0     0  0  0  0  0  0999 V2000
    4.2750    1.7050   20.8490 C   0  0  0  0  0  0  0  0  0  0  0  0
    3.9160    2.0630   19.5520 C   0  0  0  0  0  0  0  0  0  0  0  0
   13.4007    0.5725   24.7805 C   0  0  0  0  0  0  0  0  0  0  0  0
    5.4210    0.9600   21.0930 C   0  0  0  0  0  0  0  0  0  0  0  0
   12.0141    0.5273   24.6359 C   0  0  0  0  0  0  0  0  0  0  0  0
    4.6890    1.6810   18.4640 C   0  0  0  0  0  0  0  0  0  0  0  0
    9.0720   -1.1280   24.8640 C   0  0  0  0  0  0  0  0  0  0  0  0
    9.7200   -2.2600   22.8630 C   0  0  0  0  0  0  0  0  0  0  0  0
    8.9960   -2.3380   25.5320 C   0  0  0  0  0  0  0  0  0  0  0  0
    9.6730   -3.4710   23.5300 C   0  0  0  0  0  0  0  0  0  0  0  0
   14.1526    1.4666   24.0184 C   0  0  0  0  0  0  0  0  0  0  0  0
   12.1314    2.2702   22.9668 C   0  0  0  0  0  0  0  0  0  0  0  0
    6.1790    0.5730   19.9990 C   0  0  0  0  0  0  0  0  0  0  0  0
   11.3794    1.3761   23.7290 C   0  0  0  0  0  0  0  0  0  0  0  0
    5.8300    0.9190   18.6970 C   0  0  0  0  0  0  0  0  0  0  0  0
    9.3350   -1.0880   23.5010 C   0  0  0  0  0  0  0  0  0  0  0  0
    9.3070   -3.5340   24.8780 C   0  0  0  0  0  0  0  0  0  0  0  0
   13.5180    2.3154   23.1115 C   0  0  0  0  0  0  0  0  0  0  0  0
    7.3170   -0.1610   19.8550 C   0  0  0  0  0  0  0  0  0  0  0  0
    9.0420    0.3700   21.5280 C   0  0  0  0  0  0  0  0  0  0  0  0
    8.0128   -5.2151   26.1416 C   0  0  0  0  0  0  0  0  0  0  0  0
   10.4372   -5.5860   25.6589 C   0  0  0  0  0  0  0  0  0  0  0  0
    9.8870    1.3260   23.5730 C   0  0  0  0  0  0  0  0  0  0  0  0
    7.6390   -0.2680   18.5410 N   0  0  0  0  0  0  0  0  0  0  0  0
    6.7580    0.3810   17.8350 N   0  0  0  0  0  0  0  0  0  0  0  0
    8.1890   -0.7180   20.8700 N   0  0  0  0  0  0  0  0  0  0  0  0
    9.4560    0.1560   22.8130 N   0  0  0  0  0  0  0  0  0  0  0  0
    9.2543   -4.7552   25.5519 N   0  0  0  0  0  0  0  0  0  0  0  0
    9.2690    1.4140   20.9380 O   0  0  0  0  0  0  0  0  0  0  0  0
   14.4463    3.4175   22.1707 Cl  0  0  0  0  0  0  0  0  0  0  0  0
    3.6468    2.0173   21.6825 H   0  0  0  0  0  0  0  0  0  0  0  0
    3.0153    2.6527   19.3907 H   0  0  0  0  0  0  0  0  0  0  0  0
   13.8945   -0.0888   25.4867 H   0  0  0  0  0  0  0  0  0  0  0  0
    5.7015    0.6980   22.1071 H   0  0  0  0  0  0  0  0  0  0  0  0
   11.4361   -0.1726   25.2338 H   0  0  0  0  0  0  0  0  0  0  0  0
    4.4064    1.9744   17.4453 H   0  0  0  0  0  0  0  0  0  0  0  0
    8.9217   -0.1995   25.4232 H   0  0  0  0  0  0  0  0  0  0  0  0
   10.0643   -2.2341   21.8254 H   0  0  0  0  0  0  0  0  0  0  0  0
    8.6893   -2.3540   26.5808 H   0  0  0  0  0  0  0  0  0  0  0  0
    9.9257   -4.3898   22.9921 H   0  0  0  0  0  0  0  0  0  0  0  0
   15.2326    1.4907   24.1414 H   0  0  0  0  0  0  0  0  0  0  0  0
   11.6318    2.9303   22.2615 H   0  0  0  0  0  0  0  0  0  0  0  0
    8.1744   -6.1904   26.6238 H   0  0  0  0  0  0  0  0  0  0  0  0
    7.6718   -4.4870   26.8924 H   0  0  0  0  0  0  0  0  0  0  0  0
    7.2494   -5.3166   25.3561 H   0  0  0  0  0  0  0  0  0  0  0  0
   10.1946   -6.4995   26.2216 H   0  0  0  0  0  0  0  0  0  0  0  0
   10.7865   -5.8577   24.6518 H   0  0  0  0  0  0  0  0  0  0  0  0
   11.2285   -5.0312   26.1842 H   0  0  0  0  0  0  0  0  0  0  0  0
    9.3974    1.2912   24.5523 H   0  0  0  0  0  0  0  0  0  0  0  0
    9.5159    2.2168   23.0553 H   0  0  0  0  0  0  0  0  0  0  0  0
    6.8044    0.4388   16.8592 H   0  0  0  0  0  0  0  0  0  0  0  0
    8.2409   -1.5618   21.0967 H   0  0  0  0  0  0  0  0  0  0  0  0
  1  2  1  0  0  0  0
  1  4  2  0  0  0  0
  2  6  2  0  0  0  0
  3  5  2  0  0  0  0
  3 11  1  0  0  0  0
  4 13  1  0  0  0  0
  5 14  1  0  0  0  0
  6 15  1  0  0  0  0
  7  9  2  0  0  0  0
  7 16  1  0  0  0  0
  8 10  1  0  0  0  0
  8 16  2  0  0  0  0
  9 17  1  0  0  0  0
 10 17  2  0  0  0  0
 11 18  2  0  0  0  0
 12 14  2  0  0  0  0
 12 18  1  0  0  0  0
 13 15  2  0  0  0  0
 13 19  1  0  0  0  0
 14 23  1  0  0  0  0
 15 25  1  0  0  0  0
 16 27  1  0  0  0  0
 17 28  1  0  0  0  0
 18 30  1  0  0  0  0
 19 24  2  0  0  0  0
 19 26  1  0  0  0  0
 20 26  1  0  0  0  0
 20 27  1  0  0  0  0
 20 29  2  0  0  0  0
 21 28  1  0  0  0  0
 22 28  1  0  0  0  0
 23 27  1  0  0  0  0
 24 25  1  0  0  0  0
  1 31  1  0  0  0  0
  2 32  1  0  0  0  0
  3 33  1  0  0  0  0
  4 34  1  0  0  0  0
  5 35  1  0  0  0  0
  6 36  1  0  0  0  0
  7 37  1  0  0  0  0
  8 38  1  0  0  0  0
  9 39  1  0  0  0  0
 10 40  1  0  0  0  0
 11 41  1  0  0  0  0
 12 42  1  0  0  0  0
 21 43  1  0  0  0  0
 21 44  1  0  0  0  0
 21 45  1  0  0  0  0
 22 46  1  0  0  0  0
 22 47  1  0  0  0  0
 22 48  1  0  0  0  0
 23 49  1  0  0  0  0
 23 50  1  0  0  0  0
 25 51  1  0  0  0  0
 26 52  1  0  0  0  0
M  END
> <clash_score>
0

> <docking_score>
-7.8039751052856445

> <overlap_score>
0.9891859889030457

$$$$
BENZO_61_1
  -OEChem-08222022163D

 54 57  0     0  0  0  0  0  0999 V2000
   14.1526    1.4694   24.0176 C   0  0  0  0  0  0  0  0  0  0  0  0
    4.2750    1.7050   20.8490 C   0  0  0  0  0  0  0  0  0  0  0  0
   13.3741    0.8121   24.9701 C   0  0  0  0  0  0  0  0  0  0  0  0
   13.5446    2.0802   22.9208 C   0  0  0  0  0  0  0  0  0  0  0  0
    3.9160    2.0630   19.5520 C   0  0  0  0  0  0  0  0  0  0  0  0
    5.4210    0.9600   21.0930 C   0  0  0  0  0  0  0  0  0  0  0  0
   11.9875    0.7654   24.8258 C   0  0  0  0  0  0  0  0  0  0  0  0
   12.1580    2.0335   22.7765 C   0  0  0  0  0  0  0  0  0  0  0  0
    4.6890    1.6810   18.4640 C   0  0  0  0  0  0  0  0  0  0  0  0
    8.9960   -2.3380   25.5320 C   0  0  0  0  0  0  0  0  0  0  0  0
    9.6730   -3.4710   23.5300 C   0  0  0  0  0  0  0  0  0  0  0  0
    9.0720   -1.1280   24.8640 C   0  0  0  0  0  0  0  0  0  0  0  0
    9.7200   -2.2600   22.8630 C   0  0  0  0  0  0  0  0  0  0  0  0
    6.1790    0.5730   19.9990 C   0  0  0  0  0  0  0  0  0  0  0  0
   11.3794    1.3761   23.7290 C   0  0  0  0  0  0  0  0  0  0  0  0
    5.8300    0.9190   18.6970 C   0  0  0  0  0  0  0  0  0  0  0  0
    9.3070   -3.5340   24.8780 C   0  0  0  0  0  0  0  0  0  0  0  0
    9.3350   -1.0880   23.5010 C   0  0  0  0  0  0  0  0  0  0  0  0
    7.3170   -0.1610   19.8550 C   0  0  0  0  0  0  0  0  0  0  0  0
    9.5334   -6.0236   25.0414 C   0  0  0  0  0  0  0  0  0  0  0  0
    9.0420    0.3700   21.5280 C   0  0  0  0  0  0  0  0  0  0  0  0
   10.6330   -7.3746   26.8775 C   0  0  0  0  0  0  0  0  0  0  0  0
    9.8870    1.3260   23.5730 C   0  0  0  0  0  0  0  0  0  0  0  0
    9.3523   -7.0865   26.1149 C   0  0  0  0  0  0  0  0  0  0  0  0
    7.6390   -0.2680   18.5410 N   0  0  0  0  0  0  0  0  0  0  0  0
    6.7580    0.3810   17.8350 N   0  0  0  0  0  0  0  0  0  0  0  0
    9.2546   -4.7422   25.5438 N   0  0  0  0  0  0  0  0  0  0  0  0
    8.1890   -0.7180   20.8700 N   0  0  0  0  0  0  0  0  0  0  0  0
    9.4560    0.1560   22.8130 N   0  0  0  0  0  0  0  0  0  0  0  0
    9.8806   -6.3053   23.8992 O   0  0  0  0  0  0  0  0  0  0  0  0
    9.2690    1.4140   20.9380 O   0  0  0  0  0  0  0  0  0  0  0  0
   15.2322    1.5068   24.1308 H   0  0  0  0  0  0  0  0  0  0  0  0
    3.6468    2.0173   21.6825 H   0  0  0  0  0  0  0  0  0  0  0  0
   13.8473    0.3374   25.8248 H   0  0  0  0  0  0  0  0  0  0  0  0
   14.1503    2.5930   22.1795 H   0  0  0  0  0  0  0  0  0  0  0  0
    3.0153    2.6527   19.3907 H   0  0  0  0  0  0  0  0  0  0  0  0
    5.7015    0.6980   22.1071 H   0  0  0  0  0  0  0  0  0  0  0  0
   11.3889    0.2508   25.5729 H   0  0  0  0  0  0  0  0  0  0  0  0
   11.6930    2.5120   21.9187 H   0  0  0  0  0  0  0  0  0  0  0  0
    4.4064    1.9744   17.4453 H   0  0  0  0  0  0  0  0  0  0  0  0
    8.6895   -2.3529   26.5807 H   0  0  0  0  0  0  0  0  0  0  0  0
    9.9262   -4.3897   22.9916 H   0  0  0  0  0  0  0  0  0  0  0  0
    8.9224   -0.1998   25.4238 H   0  0  0  0  0  0  0  0  0  0  0  0
   10.0649   -2.2343   21.8258 H   0  0  0  0  0  0  0  0  0  0  0  0
   11.4241   -7.7171   26.2024 H   0  0  0  0  0  0  0  0  0  0  0  0
   10.4629   -8.1530   27.6277 H   0  0  0  0  0  0  0  0  0  0  0  0
   10.9949   -6.4779   27.3912 H   0  0  0  0  0  0  0  0  0  0  0  0
    9.3974    1.2912   24.5523 H   0  0  0  0  0  0  0  0  0  0  0  0
    9.5159    2.2168   23.0553 H   0  0  0  0  0  0  0  0  0  0  0  0
    8.5795   -6.7463   26.8138 H   0  0  0  0  0  0  0  0  0  0  0  0
    8.9966   -8.0064   25.6368 H   0  0  0  0  0  0  0  0  0  0  0  0
    6.8044    0.4388   16.8592 H   0  0  0  0  0  0  0  0  0  0  0  0
    8.9776   -4.7057   26.5317 H   0  0  0  0  0  0  0  0  0  0  0  0
    8.2409   -1.5618   21.0967 H   0  0  0  0  0  0  0  0  0  0  0  0
  1  3  1  0  0  0  0
  1  4  2  0  0  0  0
  2  5  1  0  0  0  0
  2  6  2  0  0  0  0
  3  7  2  0  0  0  0
  4  8  1  0  0  0  0
  5  9  2  0  0  0  0
  6 14  1  0  0  0  0
  7 15  1  0  0  0  0
  8 15  2  0  0  0  0
  9 16  1  0  0  0  0
 10 12  2  0  0  0  0
 10 17  1  0  0  0  0
 11 13  1  0  0  0  0
 11 17  2  0  0  0  0
 12 18  1  0  0  0  0
 13 18  2  0  0  0  0
 14 16  2  0  0  0  0
 14 19  1  0  0  0  0
 15 23  1  0  0  0  0
 16 26  1  0  0  0  0
 17 27  1  0  0  0  0
 18 29  1  0  0  0  0
 19 25  2  0  0  0  0
 19 28  1  0  0  0  0
 20 24  1  0  0  0  0
 20 27  1  0  0  0  0
 20 30  2  0  0  0  0
 21 28  1  0  0  0  0
 21 29  1  0  0  0  0
 21 31  2  0  0  0  0
 22 24  1  0  0  0  0
 23 29  1  0  0  0  0
 25 26  1  0  0  0  0
  1 32  1  0  0  0  0
  2 33  1  0  0  0  0
  3 34  1  0  0  0  0
  4 35  1  0  0  0  0
  5 36  1  0  0  0  0
  6 37  1  0  0  0  0
  7 38  1  0  0  0  0
  8 39  1  0  0  0  0
  9 40  1  0  0  0  0
 10 41  1  0  0  0  0
 11 42  1  0  0  0  0
 12 43  1  0  0  0  0
 13 44  1  0  0  0  0
 22 45  1  0  0  0  0
 22 46  1  0  0  0  0
 22 47  1  0  0  0  0
 23 48  1  0  0  0  0
 23 49  1  0  0  0  0
 24 50  1  0  0  0  0
 24 51  1  0  0  0  0
 26 52  1  0  0  0  0
 27 53  1  0  0  0  0
 28 54  1  0  0  0  0
M  END
> <clash_score>
1.4986627179605445

> <docking_score>
-5.472719192504883

> <overlap_score>
0.9802290797233582

$$$$
BENZO_60_1
  -OEChem-08222022163D

 51 54  0     0  0  0  0  0  0999 V2000
    4.2750    1.7050   20.8490 C   0  0  0  0  0  0  0  0  0  0  0  0
    3.9160    2.0630   19.5520 C   0  0  0  0  0  0  0  0  0  0  0  0
    5.4210    0.9600   21.0930 C   0  0  0  0  0  0  0  0  0  0  0  0
    4.6890    1.6810   18.4640 C   0  0  0  0  0  0  0  0  0  0  0  0
    8.9960   -2.3380   25.5320 C   0  0  0  0  0  0  0  0  0  0  0  0
    9.6730   -3.4710   23.5300 C   0  0  0  0  0  0  0  0  0  0  0  0
    9.0720   -1.1280   24.8640 C   0  0  0  0  0  0  0  0  0  0  0  0
    9.7200   -2.2600   22.8630 C   0  0  0  0  0  0  0  0  0  0  0  0
   12.2111    0.2208   23.7905 C   0  0  0  0  0  0  0  0  0  0  0  0
   13.5412    0.5479   23.9363 C   0  0  0  0  0  0  0  0  0  0  0  0
   12.1057    2.5424   23.8305 C   0  0  0  0  0  0  0  0  0  0  0  0
    6.1790    0.5730   19.9990 C   0  0  0  0  0  0  0  0  0  0  0  0
   11.3794    1.3761   23.7290 C   0  0  0  0  0  0  0  0  0  0  0  0
    5.8300    0.9190   18.6970 C   0  0  0  0  0  0  0  0  0  0  0  0
    9.3070   -3.5340   24.8780 C   0  0  0  0  0  0  0  0  0  0  0  0
    9.3350   -1.0880   23.5010 C   0  0  0  0  0  0  0  0  0  0  0  0
    7.3170   -0.1610   19.8550 C   0  0  0  0  0  0  0  0  0  0  0  0
    9.5334   -6.0236   25.0414 C   0  0  0  0  0  0  0  0  0  0  0  0
    9.0420    0.3700   21.5280 C   0  0  0  0  0  0  0  0  0  0  0  0
   10.6330   -7.3746   26.8775 C   0  0  0  0  0  0  0  0  0  0  0  0
    9.8870    1.3260   23.5730 C   0  0  0  0  0  0  0  0  0  0  0  0
    9.3523   -7.0865   26.1149 C   0  0  0  0  0  0  0  0  0  0  0  0
    7.6390   -0.2680   18.5410 N   0  0  0  0  0  0  0  0  0  0  0  0
    6.7580    0.3810   17.8350 N   0  0  0  0  0  0  0  0  0  0  0  0
    9.2546   -4.7422   25.5438 N   0  0  0  0  0  0  0  0  0  0  0  0
    8.1890   -0.7180   20.8700 N   0  0  0  0  0  0  0  0  0  0  0  0
    9.4560    0.1560   22.8130 N   0  0  0  0  0  0  0  0  0  0  0  0
    9.8806   -6.3053   23.8992 O   0  0  0  0  0  0  0  0  0  0  0  0
    9.2690    1.4140   20.9380 O   0  0  0  0  0  0  0  0  0  0  0  0
   13.7831    2.2420   23.9988 S   0  0  0  0  0  0  0  0  0  0  0  0
    3.6468    2.0173   21.6825 H   0  0  0  0  0  0  0  0  0  0  0  0
    3.0153    2.6527   19.3907 H   0  0  0  0  0  0  0  0  0  0  0  0
    5.7015    0.6980   22.1071 H   0  0  0  0  0  0  0  0  0  0  0  0
    4.4064    1.9744   17.4453 H   0  0  0  0  0  0  0  0  0  0  0  0
    8.6895   -2.3529   26.5807 H   0  0  0  0  0  0  0  0  0  0  0  0
    9.9262   -4.3897   22.9916 H   0  0  0  0  0  0  0  0  0  0  0  0
    8.9224   -0.1998   25.4238 H   0  0  0  0  0  0  0  0  0  0  0  0
   10.0649   -2.2343   21.8258 H   0  0  0  0  0  0  0  0  0  0  0  0
   11.8558   -0.8003   23.7315 H   0  0  0  0  0  0  0  0  0  0  0  0
   14.3824   -0.1267   24.0100 H   0  0  0  0  0  0  0  0  0  0  0  0
   11.7354    3.5581   23.8155 H   0  0  0  0  0  0  0  0  0  0  0  0
   11.4241   -7.7171   26.2024 H   0  0  0  0  0  0  0  0  0  0  0  0
   10.4629   -8.1530   27.6277 H   0  0  0  0  0  0  0  0  0  0  0  0
   10.9949   -6.4779   27.3912 H   0  0  0  0  0  0  0  0  0  0  0  0
    9.3974    1.2912   24.5523 H   0  0  0  0  0  0  0  0  0  0  0  0
    9.5159    2.2168   23.0553 H   0  0  0  0  0  0  0  0  0  0  0  0
    8.5795   -6.7463   26.8138 H   0  0  0  0  0  0  0  0  0  0  0  0
    8.9966   -8.0064   25.6368 H   0  0  0  0  0  0  0  0  0  0  0  0
    6.8044    0.4388   16.8592 H   0  0  0  0  0  0  0  0  0  0  0  0
    8.9776   -4.7057   26.5317 H   0  0  0  0  0  0  0  0  0  0  0  0
    8.2409   -1.5618   21.0967 H   0  0  0  0  0  0  0  0  0  0  0  0
  1  2  1  0  0  0  0
  1  3  2  0  0  0  0
  2  4  2  0  0  0  0
  3 12  1  0  0  0  0
  4 14  1  0  0  0  0
  5  7  2  0  0  0  0
  5 15  1  0  0  0  0
  6  8  1  0  0  0  0
  6 15  2  0  0  0  0
  7 16  1  0  0  0  0
  8 16  2  0  0  0  0
  9 10  2  0  0  0  0
  9 13  1  0  0  0  0
 10 30  1  0  0  0  0
 11 13  2  0  0  0  0
 11 30  1  0  0  0  0
 12 14  2  0  0  0  0
 12 17  1  0  0  0  0
 13 21  1  0  0  0  0
 14 24  1  0  0  0  0
 15 25  1  0  0  0  0
 16 27  1  0  0  0  0
 17 23  2  0  0  0  0
 17 26  1  0  0  0  0
 18 22  1  0  0  0  0
 18 25  1  0  0  0  0
 18 28  2  0  0  0  0
 19 26  1  0  0  0  0
 19 27  1  0  0  0  0
 19 29  2  0  0  0  0
 20 22  1  0  0  0  0
 21 27  1  0  0  0  0
 23 24  1  0  0  0  0
  1 31  1  0  0  0  0
  2 32  1  0  0  0  0
  3 33  1  0  0  0  0
  4 34  1  0  0  0  0
  5 35  1  0  0  0  0
  6 36  1  0  0  0  0
  7 37  1  0  0  0  0
  8 38  1  0  0  0  0
  9 39  1  0  0  0  0
 10 40  1  0  0  0  0
 11 41  1  0  0  0  0
 20 42  1  0  0  0  0
 20 43  1  0  0  0  0
 20 44  1  0  0  0  0
 21 45  1  0  0  0  0
 21 46  1  0  0  0  0
 22 47  1  0  0  0  0
 22 48  1  0  0  0  0
 24 49  1  0  0  0  0
 25 50  1  0  0  0  0
 26 51  1  0  0  0  0
M  END
> <clash_score>
1.4986627179605445

> <docking_score>
-4.745891571044922

> <overlap_score>
0.965243399143219

$$$$
BENZO_65_1
  -OEChem-08222022163D

 59 63  0     0  0  0  0  0  0999 V2000
   14.1526    1.4694   24.0176 C   0  0  0  0  0  0  0  0  0  0  0  0
    4.2750    1.7050   20.8490 C   0  0  0  0  0  0  0  0  0  0  0  0
   13.3741    0.8121   24.9701 C   0  0  0  0  0  0  0  0  0  0  0  0
   13.5446    2.0802   22.9208 C   0  0  0  0  0  0  0  0  0  0  0  0
    3.9160    2.0630   19.5520 C   0  0  0  0  0  0  0  0  0  0  0  0
    5.4210    0.9600   21.0930 C   0  0  0  0  0  0  0  0  0  0  0  0
   11.9875    0.7654   24.8258 C   0  0  0  0  0  0  0  0  0  0  0  0
   12.1580    2.0335   22.7765 C   0  0  0  0  0  0  0  0  0  0  0  0
    4.6890    1.6810   18.4640 C   0  0  0  0  0  0  0  0  0  0  0  0
    8.9960   -2.3380   25.5320 C   0  0  0  0  0  0  0  0  0  0  0  0
    9.6730   -3.4710   23.5300 C   0  0  0  0  0  0  0  0  0  0  0  0
    9.0720   -1.1280   24.8640 C   0  0  0  0  0  0  0  0  0  0  0  0
    9.7200   -2.2600   22.8630 C   0  0  0  0  0  0  0  0  0  0  0  0
    6.1790    0.5730   19.9990 C   0  0  0  0  0  0  0  0  0  0  0  0
   11.3794    1.3761   23.7290 C   0  0  0  0  0  0  0  0  0  0  0  0
    5.8300    0.9190   18.6970 C   0  0  0  0  0  0  0  0  0  0  0  0
    9.3070   -3.5340   24.8780 C   0  0  0  0  0  0  0  0  0  0  0  0
    9.3350   -1.0880   23.5010 C   0  0  0  0  0  0  0  0  0  0  0  0
    7.3170   -0.1610   19.8550 C   0  0  0  0  0  0  0  0  0  0  0  0
    9.0420    0.3700   21.5280 C   0  0  0  0  0  0  0  0  0  0  0  0
    7.3635   -6.1361   27.1888 C   0  0  0  0  0  0  0  0  0  0  0  0
    8.1961   -4.9735   27.7341 C   0  0  0  0  0  0  0  0  0  0  0  0
    7.1942   -6.0394   25.6709 C   0  0  0  0  0  0  0  0  0  0  0  0
    9.5196   -4.8490   26.9797 C   0  0  0  0  0  0  0  0  0  0  0  0
    8.5442   -5.8838   24.9639 C   0  0  0  0  0  0  0  0  0  0  0  0
    9.8870    1.3260   23.5730 C   0  0  0  0  0  0  0  0  0  0  0  0
    7.6390   -0.2680   18.5410 N   0  0  0  0  0  0  0  0  0  0  0  0
    6.7580    0.3810   17.8350 N   0  0  0  0  0  0  0  0  0  0  0  0
    9.2562   -4.7384   25.5422 N   0  0  0  0  0  0  0  0  0  0  0  0
    8.1890   -0.7180   20.8700 N   0  0  0  0  0  0  0  0  0  0  0  0
    9.4560    0.1560   22.8130 N   0  0  0  0  0  0  0  0  0  0  0  0
    9.2690    1.4140   20.9380 O   0  0  0  0  0  0  0  0  0  0  0  0
   15.2322    1.5068   24.1308 H   0  0  0  0  0  0  0  0  0  0  0  0
    3.6468    2.0173   21.6825 H   0  0  0  0  0  0  0  0  0  0  0  0
   13.8473    0.3374   25.8248 H   0  0  0  0  0  0  0  0  0  0  0  0
   14.1503    2.5930   22.1795 H   0  0  0  0  0  0  0  0  0  0  0  0
    3.0153    2.6527   19.3907 H   0  0  0  0  0  0  0  0  0  0  0  0
    5.7015    0.6980   22.1071 H   0  0  0  0  0  0  0  0  0  0  0  0
   11.3889    0.2508   25.5729 H   0  0  0  0  0  0  0  0  0  0  0  0
   11.6930    2.5120   21.9187 H   0  0  0  0  0  0  0  0  0  0  0  0
    4.4064    1.9744   17.4453 H   0  0  0  0  0  0  0  0  0  0  0  0
    8.6905   -2.3533   26.5810 H   0  0  0  0  0  0  0  0  0  0  0  0
    9.9266   -4.3896   22.9917 H   0  0  0  0  0  0  0  0  0  0  0  0
    8.9233   -0.1992   25.4231 H   0  0  0  0  0  0  0  0  0  0  0  0
   10.0650   -2.2330   21.8256 H   0  0  0  0  0  0  0  0  0  0  0  0
    7.8482   -7.0901   27.4469 H   0  0  0  0  0  0  0  0  0  0  0  0
    6.3760   -6.1438   27.6724 H   0  0  0  0  0  0  0  0  0  0  0  0
    7.6307   -4.0424   27.6403 H   0  0  0  0  0  0  0  0  0  0  0  0
    8.3915   -5.1310   28.7968 H   0  0  0  0  0  0  0  0  0  0  0  0
    6.6888   -6.9376   25.3010 H   0  0  0  0  0  0  0  0  0  0  0  0
    6.5515   -5.1859   25.4257 H   0  0  0  0  0  0  0  0  0  0  0  0
   10.0492   -3.9640   27.3414 H   0  0  0  0  0  0  0  0  0  0  0  0
   10.1431   -5.7254   27.1778 H   0  0  0  0  0  0  0  0  0  0  0  0
    9.1338   -6.7931   25.0868 H   0  0  0  0  0  0  0  0  0  0  0  0
    8.3656   -5.7264   23.8998 H   0  0  0  0  0  0  0  0  0  0  0  0
    9.3974    1.2912   24.5523 H   0  0  0  0  0  0  0  0  0  0  0  0
    9.5159    2.2168   23.0553 H   0  0  0  0  0  0  0  0  0  0  0  0
    6.8044    0.4388   16.8592 H   0  0  0  0  0  0  0  0  0  0  0  0
    8.2565   -1.5523   21.1108 H   0  0  0  0  0  0  0  0  0  0  0  0
  1  3  1  0  0  0  0
  1  4  2  0  0  0  0
  2  5  1  0  0  0  0
  2  6  2  0  0  0  0
  3  7  2  0  0  0  0
  4  8  1  0  0  0  0
  5  9  2  0  0  0  0
  6 14  1  0  0  0  0
  7 15  1  0  0  0  0
  8 15  2  0  0  0  0
  9 16  1  0  0  0  0
 10 12  2  0  0  0  0
 10 17  1  0  0  0  0
 11 13  1  0  0  0  0
 11 17  2  0  0  0  0
 12 18  1  0  0  0  0
 13 18  2  0  0  0  0
 14 16  2  0  0  0  0
 14 19  1  0  0  0  0
 15 26  1  0  0  0  0
 16 28  1  0  0  0  0
 17 29  1  0  0  0  0
 18 31  1  0  0  0  0
 19 27  2  0  0  0  0
 19 30  1  0  0  0  0
 20 30  1  0  0  0  0
 20 31  1  0  0  0  0
 20 32  2  0  0  0  0
 21 22  1  0  0  0  0
 21 23  1  0  0  0  0
 22 24  1  0  0  0  0
 23 25  1  0  0  0  0
 24 29  1  0  0  0  0
 25 29  1  0  0  0  0
 26 31  1  0  0  0  0
 27 28  1  0  0  0  0
  1 33  1  0  0  0  0
  2 34  1  0  0  0  0
  3 35  1  0  0  0  0
  4 36  1  0  0  0  0
  5 37  1  0  0  0  0
  6 38  1  0  0  0  0
  7 39  1  0  0  0  0
  8 40  1  0  0  0  0
  9 41  1  0  0  0  0
 10 42  1  0  0  0  0
 11 43  1  0  0  0  0
 12 44  1  0  0  0  0
 13 45  1  0  0  0  0
 21 46  1  0  0  0  0
 21 47  1  0  0  0  0
 22 48  1  0  0  0  0
 22 49  1  0  0  0  0
 23 50  1  0  0  0  0
 23 51  1  0  0  0  0
 24 52  1  0  0  0  0
 24 53  1  0  0  0  0
 25 54  1  0  0  0  0
 25 55  1  0  0  0  0
 26 56  1  0  0  0  0
 26 57  1  0  0  0  0
 28 58  1  0  0  0  0
 30 59  1  0  0  0  0
M  END
> <clash_score>
0

> <docking_score>
-7.762760162353516

> <overlap_score>
0.9931822419166565

$$$$
BENZO_63_1
  -OEChem-08222022163D

 54 57  0     0  0  0  0  0  0999 V2000
    4.2750    1.7050   20.8490 C   0  0  0  0  0  0  0  0  0  0  0  0
    3.9160    2.0630   19.5520 C   0  0  0  0  0  0  0  0  0  0  0  0
    5.4210    0.9600   21.0930 C   0  0  0  0  0  0  0  0  0  0  0  0
    4.6890    1.6810   18.4640 C   0  0  0  0  0  0  0  0  0  0  0  0
    8.9960   -2.3380   25.5320 C   0  0  0  0  0  0  0  0  0  0  0  0
    9.6730   -3.4710   23.5300 C   0  0  0  0  0  0  0  0  0  0  0  0
    9.0720   -1.1280   24.8640 C   0  0  0  0  0  0  0  0  0  0  0  0
    9.7200   -2.2600   22.8630 C   0  0  0  0  0  0  0  0  0  0  0  0
   12.2914    2.2071   23.0512 C   0  0  0  0  0  0  0  0  0  0  0  0
   12.1614    0.6214   24.5689 C   0  0  0  0  0  0  0  0  0  0  0  0
    6.1790    0.5730   19.9990 C   0  0  0  0  0  0  0  0  0  0  0  0
   11.3794    1.3761   23.7290 C   0  0  0  0  0  0  0  0  0  0  0  0
    5.8300    0.9190   18.6970 C   0  0  0  0  0  0  0  0  0  0  0  0
    9.3070   -3.5340   24.8780 C   0  0  0  0  0  0  0  0  0  0  0  0
    9.3350   -1.0880   23.5010 C   0  0  0  0  0  0  0  0  0  0  0  0
    7.3170   -0.1610   19.8550 C   0  0  0  0  0  0  0  0  0  0  0  0
    9.5334   -6.0236   25.0414 C   0  0  0  0  0  0  0  0  0  0  0  0
    9.0420    0.3700   21.5280 C   0  0  0  0  0  0  0  0  0  0  0  0
   10.6330   -7.3746   26.8775 C   0  0  0  0  0  0  0  0  0  0  0  0
   14.6267    0.5248   25.0067 C   0  0  0  0  0  0  0  0  0  0  0  0
    9.8870    1.3260   23.5730 C   0  0  0  0  0  0  0  0  0  0  0  0
    9.3523   -7.0865   26.1149 C   0  0  0  0  0  0  0  0  0  0  0  0
   13.5560    2.0002   23.4280 N   0  0  0  0  0  0  0  0  0  0  0  0
    7.6390   -0.2680   18.5410 N   0  0  0  0  0  0  0  0  0  0  0  0
    6.7580    0.3810   17.8350 N   0  0  0  0  0  0  0  0  0  0  0  0
   13.4442    1.0306   24.3518 N   0  0  0  0  0  0  0  0  0  0  0  0
    9.2546   -4.7422   25.5438 N   0  0  0  0  0  0  0  0  0  0  0  0
    8.1890   -0.7180   20.8700 N   0  0  0  0  0  0  0  0  0  0  0  0
    9.4560    0.1560   22.8130 N   0  0  0  0  0  0  0  0  0  0  0  0
    9.8806   -6.3053   23.8992 O   0  0  0  0  0  0  0  0  0  0  0  0
    9.2690    1.4140   20.9380 O   0  0  0  0  0  0  0  0  0  0  0  0
    3.6468    2.0173   21.6825 H   0  0  0  0  0  0  0  0  0  0  0  0
    3.0153    2.6527   19.3907 H   0  0  0  0  0  0  0  0  0  0  0  0
    5.7015    0.6980   22.1071 H   0  0  0  0  0  0  0  0  0  0  0  0
    4.4064    1.9744   17.4453 H   0  0  0  0  0  0  0  0  0  0  0  0
    8.6895   -2.3529   26.5807 H   0  0  0  0  0  0  0  0  0  0  0  0
    9.9262   -4.3897   22.9916 H   0  0  0  0  0  0  0  0  0  0  0  0
    8.9224   -0.1998   25.4238 H   0  0  0  0  0  0  0  0  0  0  0  0
   10.0649   -2.2343   21.8258 H   0  0  0  0  0  0  0  0  0  0  0  0
   12.0895    2.9562   22.2987 H   0  0  0  0  0  0  0  0  0  0  0  0
   11.9202   -0.1518   25.2857 H   0  0  0  0  0  0  0  0  0  0  0  0
   11.4241   -7.7171   26.2024 H   0  0  0  0  0  0  0  0  0  0  0  0
   10.4629   -8.1530   27.6277 H   0  0  0  0  0  0  0  0  0  0  0  0
   10.9949   -6.4779   27.3912 H   0  0  0  0  0  0  0  0  0  0  0  0
   15.0068   -0.3132   24.4165 H   0  0  0  0  0  0  0  0  0  0  0  0
   15.3758    1.3189   25.0698 H   0  0  0  0  0  0  0  0  0  0  0  0
   14.3676    0.1958   26.0170 H   0  0  0  0  0  0  0  0  0  0  0  0
    9.3974    1.2912   24.5523 H   0  0  0  0  0  0  0  0  0  0  0  0
    9.5159    2.2168   23.0553 H   0  0  0  0  0  0  0  0  0  0  0  0
    8.5795   -6.7463   26.8138 H   0  0  0  0  0  0  0  0  0  0  0  0
    8.9966   -8.0064   25.6368 H   0  0  0  0  0  0  0  0  0  0  0  0
    6.8044    0.4388   16.8592 H   0  0  0  0  0  0  0  0  0  0  0  0
    8.9776   -4.7057   26.5317 H   0  0  0  0  0  0  0  0  0  0  0  0
    8.2409   -1.5618   21.0967 H   0  0  0  0  0  0  0  0  0  0  0  0
  1  2  1  0  0  0  0
  1  3  2  0  0  0  0
  2  4  2  0  0  0  0
  3 11  1  0  0  0  0
  4 13  1  0  0  0  0
  5  7  2  0  0  0  0
  5 14  1  0  0  0  0
  6  8  1  0  0  0  0
  6 14  2  0  0  0  0
  7 15  1  0  0  0  0
  8 15  2  0  0  0  0
  9 12  1  0  0  0  0
  9 23  2  0  0  0  0
 10 12  2  0  0  0  0
 10 26  1  0  0  0  0
 11 13  2  0  0  0  0
 11 16  1  0  0  0  0
 12 21  1  0  0  0  0
 13 25  1  0  0  0  0
 14 27  1  0  0  0  0
 15 29  1  0  0  0  0
 16 24  2  0  0  0  0
 16 28  1  0  0  0  0
 17 22  1  0  0  0  0
 17 27  1  0  0  0  0
 17 30  2  0  0  0  0
 18 28  1  0  0  0  0
 18 29  1  0  0  0  0
 18 31  2  0  0  0  0
 19 22  1  0  0  0  0
 20 26  1  0  0  0  0
 21 29  1  0  0  0  0
 23 26  1  0  0  0  0
 24 25  1  0  0  0  0
  1 32  1  0  0  0  0
  2 33  1  0  0  0  0
  3 34  1  0  0  0  0
  4 35  1  0  0  0  0
  5 36  1  0  0  0  0
  6 37  1  0  0  0  0
  7 38  1  0  0  0  0
  8 39  1  0  0  0  0
  9 40  1  0  0  0  0
 10 41  1  0  0  0  0
 19 42  1  0  0  0  0
 19 43  1  0  0  0  0
 19 44  1  0  0  0  0
 20 45  1  0  0  0  0
 20 46  1  0  0  0  0
 20 47  1  0  0  0  0
 21 48  1  0  0  0  0
 21 49  1  0  0  0  0
 22 50  1  0  0  0  0
 22 51  1  0  0  0  0
 25 52  1  0  0  0  0
 27 53  1  0  0  0  0
 28 54  1  0  0  0  0
M  END
> <clash_score>
2.1186046462914656

> <docking_score>
-5.180727005004883

> <overlap_score>
0.9790107011795044

$$$$
BENZO_62_1
  -OEChem-08222022163D

 54 57  0     0  0  0  0  0  0999 V2000
    4.2750    1.7050   20.8490 C   0  0  0  0  0  0  0  0  0  0  0  0
    3.9160    2.0630   19.5520 C   0  0  0  0  0  0  0  0  0  0  0  0
   13.4007    0.5725   24.7805 C   0  0  0  0  0  0  0  0  0  0  0  0
    5.4210    0.9600   21.0930 C   0  0  0  0  0  0  0  0  0  0  0  0
   12.0141    0.5273   24.6359 C   0  0  0  0  0  0  0  0  0  0  0  0
    4.6890    1.6810   18.4640 C   0  0  0  0  0  0  0  0  0  0  0  0
    8.9960   -2.3380   25.5320 C   0  0  0  0  0  0  0  0  0  0  0  0
    9.6730   -3.4710   23.5300 C   0  0  0  0  0  0  0  0  0  0  0  0
    9.0720   -1.1280   24.8640 C   0  0  0  0  0  0  0  0  0  0  0  0
    9.7200   -2.2600   22.8630 C   0  0  0  0  0  0  0  0  0  0  0  0
   14.1526    1.4666   24.0184 C   0  0  0  0  0  0  0  0  0  0  0  0
   12.1314    2.2702   22.9668 C   0  0  0  0  0  0  0  0  0  0  0  0
    6.1790    0.5730   19.9990 C   0  0  0  0  0  0  0  0  0  0  0  0
   11.3794    1.3761   23.7290 C   0  0  0  0  0  0  0  0  0  0  0  0
    5.8300    0.9190   18.6970 C   0  0  0  0  0  0  0  0  0  0  0  0
    9.3070   -3.5340   24.8780 C   0  0  0  0  0  0  0  0  0  0  0  0
    9.3350   -1.0880   23.5010 C   0  0  0  0  0  0  0  0  0  0  0  0
   13.5180    2.3154   23.1115 C   0  0  0  0  0  0  0  0  0  0  0  0
    7.3170   -0.1610   19.8550 C   0  0  0  0  0  0  0  0  0  0  0  0
    9.5334   -6.0236   25.0414 C   0  0  0  0  0  0  0  0  0  0  0  0
    9.0420    0.3700   21.5280 C   0  0  0  0  0  0  0  0  0  0  0  0
   10.6330   -7.3746   26.8775 C   0  0  0  0  0  0  0  0  0  0  0  0
    9.8870    1.3260   23.5730 C   0  0  0  0  0  0  0  0  0  0  0  0
    9.3523   -7.0865   26.1149 C   0  0  0  0  0  0  0  0  0  0  0  0
    7.6390   -0.2680   18.5410 N   0  0  0  0  0  0  0  0  0  0  0  0
    6.7580    0.3810   17.8350 N   0  0  0  0  0  0  0  0  0  0  0  0
    9.2546   -4.7422   25.5438 N   0  0  0  0  0  0  0  0  0  0  0  0
    8.1890   -0.7180   20.8700 N   0  0  0  0  0  0  0  0  0  0  0  0
    9.4560    0.1560   22.8130 N   0  0  0  0  0  0  0  0  0  0  0  0
    9.8806   -6.3053   23.8992 O   0  0  0  0  0  0  0  0  0  0  0  0
    9.2690    1.4140   20.9380 O   0  0  0  0  0  0  0  0  0  0  0  0
   14.4463    3.4175   22.1707 Cl  0  0  0  0  0  0  0  0  0  0  0  0
    3.6468    2.0173   21.6825 H   0  0  0  0  0  0  0  0  0  0  0  0
    3.0153    2.6527   19.3907 H   0  0  0  0  0  0  0  0  0  0  0  0
   13.8945   -0.0888   25.4867 H   0  0  0  0  0  0  0  0  0  0  0  0
    5.7015    0.6980   22.1071 H   0  0  0  0  0  0  0  0  0  0  0  0
   11.4361   -0.1726   25.2338 H   0  0  0  0  0  0  0  0  0  0  0  0
    4.4064    1.9744   17.4453 H   0  0  0  0  0  0  0  0  0  0  0  0
    8.6895   -2.3529   26.5807 H   0  0  0  0  0  0  0  0  0  0  0  0
    9.9262   -4.3897   22.9916 H   0  0  0  0  0  0  0  0  0  0  0  0
    8.9224   -0.1998   25.4238 H   0  0  0  0  0  0  0  0  0  0  0  0
   10.0649   -2.2343   21.8258 H   0  0  0  0  0  0  0  0  0  0  0  0
   15.2326    1.4907   24.1414 H   0  0  0  0  0  0  0  0  0  0  0  0
   11.6318    2.9303   22.2615 H   0  0  0  0  0  0  0  0  0  0  0  0
   11.4241   -7.7171   26.2024 H   0  0  0  0  0  0  0  0  0  0  0  0
   10.4629   -8.1530   27.6277 H   0  0  0  0  0  0  0  0  0  0  0  0
   10.9949   -6.4779   27.3912 H   0  0  0  0  0  0  0  0  0  0  0  0
    9.3974    1.2912   24.5523 H   0  0  0  0  0  0  0  0  0  0  0  0
    9.5159    2.2168   23.0553 H   0  0  0  0  0  0  0  0  0  0  0  0
    8.5795   -6.7463   26.8138 H   0  0  0  0  0  0  0  0  0  0  0  0
    8.9966   -8.0064   25.6368 H   0  0  0  0  0  0  0  0  0  0  0  0
    6.8044    0.4388   16.8592 H   0  0  0  0  0  0  0  0  0  0  0  0
    8.9776   -4.7057   26.5317 H   0  0  0  0  0  0  0  0  0  0  0  0
    8.2409   -1.5618   21.0967 H   0  0  0  0  0  0  0  0  0  0  0  0
  1  2  1  0  0  0  0
  1  4  2  0  0  0  0
  2  6  2  0  0  0  0
  3  5  2  0  0  0  0
  3 11  1  0  0  0  0
  4 13  1  0  0  0  0
  5 14  1  0  0  0  0
  6 15  1  0  0  0  0
  7  9  2  0  0  0  0
  7 16  1  0  0  0  0
  8 10  1  0  0  0  0
  8 16  2  0  0  0  0
  9 17  1  0  0  0  0
 10 17  2  0  0  0  0
 11 18  2  0  0  0  0
 12 14  2  0  0  0  0
 12 18  1  0  0  0  0
 13 15  2  0  0  0  0
 13 19  1  0  0  0  0
 14 23  1  0  0  0  0
 15 26  1  0  0  0  0
 16 27  1  0  0  0  0
 17 29  1  0  0  0  0
 18 32  1  0  0  0  0
 19 25  2  0  0  0  0
 19 28  1  0  0  0  0
 20 24  1  0  0  0  0
 20 27  1  0  0  0  0
 20 30  2  0  0  0  0
 21 28  1  0  0  0  0
 21 29  1  0  0  0  0
 21 31  2  0  0  0  0
 22 24  1  0  0  0  0
 23 29  1  0  0  0  0
 25 26  1  0  0  0  0
  1 33  1  0  0  0  0
  2 34  1  0  0  0  0
  3 35  1  0  0  0  0
  4 36  1  0  0  0  0
  5 37  1  0  0  0  0
  6 38  1  0  0  0  0
  7 39  1  0  0  0  0
  8 40  1  0  0  0  0
  9 41  1  0  0  0  0
 10 42  1  0  0  0  0
 11 43  1  0  0  0  0
 12 44  1  0  0  0  0
 22 45  1  0  0  0  0
 22 46  1  0  0  0  0
 22 47  1  0  0  0  0
 23 48  1  0  0  0  0
 23 49  1  0  0  0  0
 24 50  1  0  0  0  0
 24 51  1  0  0  0  0
 26 52  1  0  0  0  0
 27 53  1  0  0  0  0
 28 54  1  0  0  0  0
M  END
> <clash_score>
1.4986627179605445

> <docking_score>
-4.609699249267578

> <overlap_score>
0.9913628697395325

$$$$
BENZO_64_1
  -OEChem-08222022163D

 56 60  0     0  0  0  0  0  0999 V2000
    4.2750    1.7050   20.8490 C   0  0  0  0  0  0  0  0  0  0  0  0
    3.9160    2.0630   19.5520 C   0  0  0  0  0  0  0  0  0  0  0  0
    5.4210    0.9600   21.0930 C   0  0  0  0  0  0  0  0  0  0  0  0
    4.6890    1.6810   18.4640 C   0  0  0  0  0  0  0  0  0  0  0  0
    8.9960   -2.3380   25.5320 C   0  0  0  0  0  0  0  0  0  0  0  0
    9.6730   -3.4710   23.5300 C   0  0  0  0  0  0  0  0  0  0  0  0
    9.0720   -1.1280   24.8640 C   0  0  0  0  0  0  0  0  0  0  0  0
    9.7200   -2.2600   22.8630 C   0  0  0  0  0  0  0  0  0  0  0  0
   12.2913    1.4279   22.6355 C   0  0  0  0  0  0  0  0  0  0  0  0
   13.6024    1.4662   23.0564 C   0  0  0  0  0  0  0  0  0  0  0  0
   12.0284    1.3764   24.9443 C   0  0  0  0  0  0  0  0  0  0  0  0
    6.1790    0.5730   19.9990 C   0  0  0  0  0  0  0  0  0  0  0  0
   11.3794    1.3761   23.7290 C   0  0  0  0  0  0  0  0  0  0  0  0
    5.8300    0.9190   18.6970 C   0  0  0  0  0  0  0  0  0  0  0  0
    9.3070   -3.5340   24.8780 C   0  0  0  0  0  0  0  0  0  0  0  0
    9.3350   -1.0880   23.5010 C   0  0  0  0  0  0  0  0  0  0  0  0
    7.3170   -0.1610   19.8550 C   0  0  0  0  0  0  0  0  0  0  0  0
    9.0420    0.3700   21.5280 C   0  0  0  0  0  0  0  0  0  0  0  0
    7.2235   -6.6199   26.3009 C   0  0  0  0  0  0  0  0  0  0  0  0
    7.4293   -5.3101   27.0652 C   0  0  0  0  0  0  0  0  0  0  0  0
    7.7217   -6.5099   24.8580 C   0  0  0  0  0  0  0  0  0  0  0  0
    8.8782   -4.8357   26.9548 C   0  0  0  0  0  0  0  0  0  0  0  0
    9.1652   -6.0007   24.7995 C   0  0  0  0  0  0  0  0  0  0  0  0
    9.8870    1.3260   23.5730 C   0  0  0  0  0  0  0  0  0  0  0  0
    7.6390   -0.2680   18.5410 N   0  0  0  0  0  0  0  0  0  0  0  0
    6.7580    0.3810   17.8350 N   0  0  0  0  0  0  0  0  0  0  0  0
    9.2562   -4.7384   25.5422 N   0  0  0  0  0  0  0  0  0  0  0  0
    8.1890   -0.7180   20.8700 N   0  0  0  0  0  0  0  0  0  0  0  0
    9.4560    0.1560   22.8130 N   0  0  0  0  0  0  0  0  0  0  0  0
    9.2690    1.4140   20.9380 O   0  0  0  0  0  0  0  0  0  0  0  0
   13.7301    1.4394   24.7638 S   0  0  0  0  0  0  0  0  0  0  0  0
    3.6468    2.0173   21.6825 H   0  0  0  0  0  0  0  0  0  0  0  0
    3.0153    2.6527   19.3907 H   0  0  0  0  0  0  0  0  0  0  0  0
    5.7015    0.6980   22.1071 H   0  0  0  0  0  0  0  0  0  0  0  0
    4.4064    1.9744   17.4453 H   0  0  0  0  0  0  0  0  0  0  0  0
    8.6905   -2.3533   26.5810 H   0  0  0  0  0  0  0  0  0  0  0  0
    9.9266   -4.3896   22.9917 H   0  0  0  0  0  0  0  0  0  0  0  0
    8.9233   -0.1992   25.4231 H   0  0  0  0  0  0  0  0  0  0  0  0
   10.0650   -2.2330   21.8256 H   0  0  0  0  0  0  0  0  0  0  0  0
   12.0045    1.4365   21.5915 H   0  0  0  0  0  0  0  0  0  0  0  0
   14.4914    1.5078   22.4431 H   0  0  0  0  0  0  0  0  0  0  0  0
   11.5886    1.3416   25.9314 H   0  0  0  0  0  0  0  0  0  0  0  0
    7.7559   -7.4347   26.8149 H   0  0  0  0  0  0  0  0  0  0  0  0
    6.1572   -6.8883   26.3055 H   0  0  0  0  0  0  0  0  0  0  0  0
    6.7602   -4.5435   26.6651 H   0  0  0  0  0  0  0  0  0  0  0  0
    7.1684   -5.4551   28.1155 H   0  0  0  0  0  0  0  0  0  0  0  0
    7.6595   -7.4899   24.3736 H   0  0  0  0  0  0  0  0  0  0  0  0
    7.0706   -5.8317   24.2943 H   0  0  0  0  0  0  0  0  0  0  0  0
    8.9681   -3.8621   27.4435 H   0  0  0  0  0  0  0  0  0  0  0  0
    9.5387   -5.5390   27.4697 H   0  0  0  0  0  0  0  0  0  0  0  0
    9.8374   -6.7413   25.2344 H   0  0  0  0  0  0  0  0  0  0  0  0
    9.4414   -5.8515   23.7552 H   0  0  0  0  0  0  0  0  0  0  0  0
    9.3974    1.2912   24.5523 H   0  0  0  0  0  0  0  0  0  0  0  0
    9.5159    2.2168   23.0553 H   0  0  0  0  0  0  0  0  0  0  0  0
    6.8044    0.4388   16.8592 H   0  0  0  0  0  0  0  0  0  0  0  0
    8.2565   -1.5523   21.1108 H   0  0  0  0  0  0  0  0  0  0  0  0
  1  2  1  0  0  0  0
  1  3  2  0  0  0  0
  2  4  2  0  0  0  0
  3 12  1  0  0  0  0
  4 14  1  0  0  0  0
  5  7  2  0  0  0  0
  5 15  1  0  0  0  0
  6  8  1  0  0  0  0
  6 15  2  0  0  0  0
  7 16  1  0  0  0  0
  8 16  2  0  0  0  0
  9 10  2  0  0  0  0
  9 13  1  0  0  0  0
 10 31  1  0  0  0  0
 11 13  2  0  0  0  0
 11 31  1  0  0  0  0
 12 14  2  0  0  0  0
 12 17  1  0  0  0  0
 13 24  1  0  0  0  0
 14 26  1  0  0  0  0
 15 27  1  0  0  0  0
 16 29  1  0  0  0  0
 17 25  2  0  0  0  0
 17 28  1  0  0  0  0
 18 28  1  0  0  0  0
 18 29  1  0  0  0  0
 18 30  2  0  0  0  0
 19 20  1  0  0  0  0
 19 21  1  0  0  0  0
 20 22  1  0  0  0  0
 21 23  1  0  0  0  0
 22 27  1  0  0  0  0
 23 27  1  0  0  0  0
 24 29  1  0  0  0  0
 25 26  1  0  0  0  0
  1 32  1  0  0  0  0
  2 33  1  0  0  0  0
  3 34  1  0  0  0  0
  4 35  1  0  0  0  0
  5 36  1  0  0  0  0
  6 37  1  0  0  0  0
  7 38  1  0  0  0  0
  8 39  1  0  0  0  0
  9 40  1  0  0  0  0
 10 41  1  0  0  0  0
 11 42  1  0  0  0  0
 19 43  1  0  0  0  0
 19 44  1  0  0  0  0
 20 45  1  0  0  0  0
 20 46  1  0  0  0  0
 21 47  1  0  0  0  0
 21 48  1  0  0  0  0
 22 49  1  0  0  0  0
 22 50  1  0  0  0  0
 23 51  1  0  0  0  0
 23 52  1  0  0  0  0
 24 53  1  0  0  0  0
 24 54  1  0  0  0  0
 26 55  1  0  0  0  0
 28 56  1  0  0  0  0
M  END
> <clash_score>
0

> <docking_score>
-7.665248870849609

> <overlap_score>
0.9782364964485168

$$$$
BENZO_69_1
  -OEChem-08222022163D

 47 50  0     0  0  0  0  0  0999 V2000
   14.1526    1.4694   24.0176 C   0  0  0  0  0  0  0  0  0  0  0  0
    4.2750    1.7050   20.8490 C   0  0  0  0  0  0  0  0  0  0  0  0
   13.3741    0.8121   24.9701 C   0  0  0  0  0  0  0  0  0  0  0  0
   13.5446    2.0802   22.9208 C   0  0  0  0  0  0  0  0  0  0  0  0
    3.9160    2.0630   19.5520 C   0  0  0  0  0  0  0  0  0  0  0  0
    5.4210    0.9600   21.0930 C   0  0  0  0  0  0  0  0  0  0  0  0
   11.9875    0.7654   24.8258 C   0  0  0  0  0  0  0  0  0  0  0  0
   12.1580    2.0335   22.7765 C   0  0  0  0  0  0  0  0  0  0  0  0
    8.9960   -2.3380   25.5320 C   0  0  0  0  0  0  0  0  0  0  0  0
    9.6730   -3.4710   23.5300 C   0  0  0  0  0  0  0  0  0  0  0  0
    4.6890    1.6810   18.4640 C   0  0  0  0  0  0  0  0  0  0  0  0
    9.0720   -1.1280   24.8640 C   0  0  0  0  0  0  0  0  0  0  0  0
    9.7200   -2.2600   22.8630 C   0  0  0  0  0  0  0  0  0  0  0  0
    6.1790    0.5730   19.9990 C   0  0  0  0  0  0  0  0  0  0  0  0
    9.3070   -3.5340   24.8780 C   0  0  0  0  0  0  0  0  0  0  0  0
   11.3794    1.3761   23.7290 C   0  0  0  0  0  0  0  0  0  0  0  0
    5.8300    0.9190   18.6970 C   0  0  0  0  0  0  0  0  0  0  0  0
    9.3350   -1.0880   23.5010 C   0  0  0  0  0  0  0  0  0  0  0  0
    7.3170   -0.1610   19.8550 C   0  0  0  0  0  0  0  0  0  0  0  0
    9.0420    0.3700   21.5280 C   0  0  0  0  0  0  0  0  0  0  0  0
    9.2505   -4.8264   25.5904 C   0  0  0  0  0  0  0  0  0  0  0  0
    9.8870    1.3260   23.5730 C   0  0  0  0  0  0  0  0  0  0  0  0
    7.6390   -0.2680   18.5410 N   0  0  0  0  0  0  0  0  0  0  0  0
    6.7580    0.3810   17.8350 N   0  0  0  0  0  0  0  0  0  0  0  0
    8.1890   -0.7180   20.8700 N   0  0  0  0  0  0  0  0  0  0  0  0
    9.4560    0.1560   22.8130 N   0  0  0  0  0  0  0  0  0  0  0  0
    9.2690    1.4140   20.9380 O   0  0  0  0  0  0  0  0  0  0  0  0
   15.2322    1.5068   24.1308 H   0  0  0  0  0  0  0  0  0  0  0  0
    3.6468    2.0173   21.6825 H   0  0  0  0  0  0  0  0  0  0  0  0
   13.8473    0.3374   25.8248 H   0  0  0  0  0  0  0  0  0  0  0  0
   14.1503    2.5930   22.1795 H   0  0  0  0  0  0  0  0  0  0  0  0
    3.0153    2.6527   19.3907 H   0  0  0  0  0  0  0  0  0  0  0  0
    5.7015    0.6980   22.1071 H   0  0  0  0  0  0  0  0  0  0  0  0
   11.3889    0.2508   25.5729 H   0  0  0  0  0  0  0  0  0  0  0  0
   11.6930    2.5120   21.9187 H   0  0  0  0  0  0  0  0  0  0  0  0
    8.6919   -2.3557   26.5813 H   0  0  0  0  0  0  0  0  0  0  0  0
    9.9267   -4.3907   22.9939 H   0  0  0  0  0  0  0  0  0  0  0  0
    4.4064    1.9744   17.4453 H   0  0  0  0  0  0  0  0  0  0  0  0
    8.9217   -0.1995   25.4231 H   0  0  0  0  0  0  0  0  0  0  0  0
   10.0653   -2.2339   21.8256 H   0  0  0  0  0  0  0  0  0  0  0  0
    8.2503   -5.2678   25.5020 H   0  0  0  0  0  0  0  0  0  0  0  0
    9.9817   -5.5374   25.1845 H   0  0  0  0  0  0  0  0  0  0  0  0
    9.4841   -4.7043   26.6562 H   0  0  0  0  0  0  0  0  0  0  0  0
    9.3974    1.2912   24.5523 H   0  0  0  0  0  0  0  0  0  0  0  0
    9.5159    2.2168   23.0553 H   0  0  0  0  0  0  0  0  0  0  0  0
    6.8044    0.4388   16.8592 H   0  0  0  0  0  0  0  0  0  0  0  0
    8.2409   -1.5618   21.0967 H   0  0  0  0  0  0  0  0  0  0  0  0
  1  3  1  0  0  0  0
  1  4  2  0  0  0  0
  2  5  1  0  0  0  0
  2  6  2  0  0  0  0
  3  7  2  0  0  0  0
  4  8  1  0  0  0  0
  5 11  2  0  0  0  0
  6 14  1  0  0  0  0
  7 16  1  0  0  0  0
  8 16  2  0  0  0  0
  9 12  2  0  0  0  0
  9 15  1  0  0  0  0
 10 13  1  0  0  0  0
 10 15  2  0  0  0  0
 11 17  1  0  0  0  0
 12 18  1  0  0  0  0
 13 18  2  0  0  0  0
 14 17  2  0  0  0  0
 14 19  1  0  0  0  0
 15 21  1  0  0  0  0
 16 22  1  0  0  0  0
 17 24  1  0  0  0  0
 18 26  1  0  0  0  0
 19 23  2  0  0  0  0
 19 25  1  0  0  0  0
 20 25  1  0  0  0  0
 20 26  1  0  0  0  0
 20 27  2  0  0  0  0
 22 26  1  0  0  0  0
 23 24  1  0  0  0  0
  1 28  1  0  0  0  0
  2 29  1  0  0  0  0
  3 30  1  0  0  0  0
  4 31  1  0  0  0  0
  5 32  1  0  0  0  0
  6 33  1  0  0  0  0
  7 34  1  0  0  0  0
  8 35  1  0  0  0  0
  9 36  1  0  0  0  0
 10 37  1  0  0  0  0
 11 38  1  0  0  0  0
 12 39  1  0  0  0  0
 13 40  1  0  0  0  0
 21 41  1  0  0  0  0
 21 42  1  0  0  0  0
 21 43  1  0  0  0  0
 22 44  1  0  0  0  0
 22 45  1  0  0  0  0
 24 46  1  0  0  0  0
 25 47  1  0  0  0  0
M  END
> <clash_score>
0

> <docking_score>
-8.007792472839355

> <overlap_score>
0.939452588558197

$$$$
BENZO_68_1
  -OEChem-08222022163D

 44 47  0     0  0  0  0  0  0999 V2000
    4.2750    1.7050   20.8490 C   0  0  0  0  0  0  0  0  0  0  0  0
    3.9160    2.0630   19.5520 C   0  0  0  0  0  0  0  0  0  0  0  0
    5.4210    0.9600   21.0930 C   0  0  0  0  0  0  0  0  0  0  0  0
    8.9960   -2.3380   25.5320 C   0  0  0  0  0  0  0  0  0  0  0  0
    9.6730   -3.4710   23.5300 C   0  0  0  0  0  0  0  0  0  0  0  0
    4.6890    1.6810   18.4640 C   0  0  0  0  0  0  0  0  0  0  0  0
    9.0720   -1.1280   24.8640 C   0  0  0  0  0  0  0  0  0  0  0  0
    9.7200   -2.2600   22.8630 C   0  0  0  0  0  0  0  0  0  0  0  0
   12.2111    0.2208   23.7905 C   0  0  0  0  0  0  0  0  0  0  0  0
   13.5412    0.5479   23.9363 C   0  0  0  0  0  0  0  0  0  0  0  0
   12.1057    2.5424   23.8305 C   0  0  0  0  0  0  0  0  0  0  0  0
    6.1790    0.5730   19.9990 C   0  0  0  0  0  0  0  0  0  0  0  0
    9.3070   -3.5340   24.8780 C   0  0  0  0  0  0  0  0  0  0  0  0
   11.3794    1.3761   23.7290 C   0  0  0  0  0  0  0  0  0  0  0  0
    5.8300    0.9190   18.6970 C   0  0  0  0  0  0  0  0  0  0  0  0
    9.3350   -1.0880   23.5010 C   0  0  0  0  0  0  0  0  0  0  0  0
    7.3170   -0.1610   19.8550 C   0  0  0  0  0  0  0  0  0  0  0  0
    9.0420    0.3700   21.5280 C   0  0  0  0  0  0  0  0  0  0  0  0
    9.2505   -4.8264   25.5904 C   0  0  0  0  0  0  0  0  0  0  0  0
    9.8870    1.3260   23.5730 C   0  0  0  0  0  0  0  0  0  0  0  0
    7.6390   -0.2680   18.5410 N   0  0  0  0  0  0  0  0  0  0  0  0
    6.7580    0.3810   17.8350 N   0  0  0  0  0  0  0  0  0  0  0  0
    8.1890   -0.7180   20.8700 N   0  0  0  0  0  0  0  0  0  0  0  0
    9.4560    0.1560   22.8130 N   0  0  0  0  0  0  0  0  0  0  0  0
    9.2690    1.4140   20.9380 O   0  0  0  0  0  0  0  0  0  0  0  0
   13.7831    2.2420   23.9988 S   0  0  0  0  0  0  0  0  0  0  0  0
    3.6468    2.0173   21.6825 H   0  0  0  0  0  0  0  0  0  0  0  0
    3.0153    2.6527   19.3907 H   0  0  0  0  0  0  0  0  0  0  0  0
    5.7015    0.6980   22.1071 H   0  0  0  0  0  0  0  0  0  0  0  0
    8.6919   -2.3557   26.5813 H   0  0  0  0  0  0  0  0  0  0  0  0
    9.9267   -4.3907   22.9939 H   0  0  0  0  0  0  0  0  0  0  0  0
    4.4064    1.9744   17.4453 H   0  0  0  0  0  0  0  0  0  0  0  0
    8.9217   -0.1995   25.4231 H   0  0  0  0  0  0  0  0  0  0  0  0
   10.0653   -2.2339   21.8256 H   0  0  0  0  0  0  0  0  0  0  0  0
   11.8558   -0.8003   23.7315 H   0  0  0  0  0  0  0  0  0  0  0  0
   14.3824   -0.1267   24.0100 H   0  0  0  0  0  0  0  0  0  0  0  0
   11.7354    3.5581   23.8155 H   0  0  0  0  0  0  0  0  0  0  0  0
    8.2503   -5.2678   25.5020 H   0  0  0  0  0  0  0  0  0  0  0  0
    9.9817   -5.5374   25.1845 H   0  0  0  0  0  0  0  0  0  0  0  0
    9.4841   -4.7043   26.6562 H   0  0  0  0  0  0  0  0  0  0  0  0
    9.3974    1.2912   24.5523 H   0  0  0  0  0  0  0  0  0  0  0  0
    9.5159    2.2168   23.0553 H   0  0  0  0  0  0  0  0  0  0  0  0
    6.8044    0.4388   16.8592 H   0  0  0  0  0  0  0  0  0  0  0  0
    8.2409   -1.5618   21.0967 H   0  0  0  0  0  0  0  0  0  0  0  0
  1  2  1  0  0  0  0
  1  3  2  0  0  0  0
  2  6  2  0  0  0  0
  3 12  1  0  0  0  0
  4  7  2  0  0  0  0
  4 13  1  0  0  0  0
  5  8  1  0  0  0  0
  5 13  2  0  0  0  0
  6 15  1  0  0  0  0
  7 16  1  0  0  0  0
  8 16  2  0  0  0  0
  9 10  2  0  0  0  0
  9 14  1  0  0  0  0
 10 26  1  0  0  0  0
 11 14  2  0  0  0  0
 11 26  1  0  0  0  0
 12 15  2  0  0  0  0
 12 17  1  0  0  0  0
 13 19  1  0  0  0  0
 14 20  1  0  0  0  0
 15 22  1  0  0  0  0
 16 24  1  0  0  0  0
 17 21  2  0  0  0  0
 17 23  1  0  0  0  0
 18 23  1  0  0  0  0
 18 24  1  0  0  0  0
 18 25  2  0  0  0  0
 20 24  1  0  0  0  0
 21 22  1  0  0  0  0
  1 27  1  0  0  0  0
  2 28  1  0  0  0  0
  3 29  1  0  0  0  0
  4 30  1  0  0  0  0
  5 31  1  0  0  0  0
  6 32  1  0  0  0  0
  7 33  1  0  0  0  0
  8 34  1  0  0  0  0
  9 35  1  0  0  0  0
 10 36  1  0  0  0  0
 11 37  1  0  0  0  0
 19 38  1  0  0  0  0
 19 39  1  0  0  0  0
 19 40  1  0  0  0  0
 20 41  1  0  0  0  0
 20 42  1  0  0  0  0
 22 43  1  0  0  0  0
 23 44  1  0  0  0  0
M  END
> <clash_score>
0

> <docking_score>
-7.2809648513793945

> <overlap_score>
0.924271285533905

$$$$
BENZO_66_1
  -OEChem-08222022163D

 59 63  0     0  0  0  0  0  0999 V2000
    4.2750    1.7050   20.8490 C   0  0  0  0  0  0  0  0  0  0  0  0
    3.9160    2.0630   19.5520 C   0  0  0  0  0  0  0  0  0  0  0  0
   13.4007    0.5725   24.7805 C   0  0  0  0  0  0  0  0  0  0  0  0
    5.4210    0.9600   21.0930 C   0  0  0  0  0  0  0  0  0  0  0  0
   12.0141    0.5273   24.6359 C   0  0  0  0  0  0  0  0  0  0  0  0
    4.6890    1.6810   18.4640 C   0  0  0  0  0  0  0  0  0  0  0  0
    8.9960   -2.3380   25.5320 C   0  0  0  0  0  0  0  0  0  0  0  0
    9.6730   -3.4710   23.5300 C   0  0  0  0  0  0  0  0  0  0  0  0
    9.0720   -1.1280   24.8640 C   0  0  0  0  0  0  0  0  0  0  0  0
    9.7200   -2.2600   22.8630 C   0  0  0  0  0  0  0  0  0  0  0  0
   14.1526    1.4666   24.0184 C   0  0  0  0  0  0  0  0  0  0  0  0
   12.1314    2.2702   22.9668 C   0  0  0  0  0  0  0  0  0  0  0  0
    6.1790    0.5730   19.9990 C   0  0  0  0  0  0  0  0  0  0  0  0
   11.3794    1.3761   23.7290 C   0  0  0  0  0  0  0  0  0  0  0  0
    5.8300    0.9190   18.6970 C   0  0  0  0  0  0  0  0  0  0  0  0
    9.3070   -3.5340   24.8780 C   0  0  0  0  0  0  0  0  0  0  0  0
    9.3350   -1.0880   23.5010 C   0  0  0  0  0  0  0  0  0  0  0  0
   13.5180    2.3154   23.1115 C   0  0  0  0  0  0  0  0  0  0  0  0
    7.3170   -0.1610   19.8550 C   0  0  0  0  0  0  0  0  0  0  0  0
    9.0420    0.3700   21.5280 C   0  0  0  0  0  0  0  0  0  0  0  0
    7.3635   -6.1361   27.1888 C   0  0  0  0  0  0  0  0  0  0  0  0
    8.1961   -4.9735   27.7341 C   0  0  0  0  0  0  0  0  0  0  0  0
    7.1942   -6.0394   25.6709 C   0  0  0  0  0  0  0  0  0  0  0  0
    9.5196   -4.8490   26.9797 C   0  0  0  0  0  0  0  0  0  0  0  0
    8.5442   -5.8838   24.9639 C   0  0  0  0  0  0  0  0  0  0  0  0
    9.8870    1.3260   23.5730 C   0  0  0  0  0  0  0  0  0  0  0  0
    7.6390   -0.2680   18.5410 N   0  0  0  0  0  0  0  0  0  0  0  0
    6.7580    0.3810   17.8350 N   0  0  0  0  0  0  0  0  0  0  0  0
    9.2562   -4.7384   25.5422 N   0  0  0  0  0  0  0  0  0  0  0  0
    8.1890   -0.7180   20.8700 N   0  0  0  0  0  0  0  0  0  0  0  0
    9.4560    0.1560   22.8130 N   0  0  0  0  0  0  0  0  0  0  0  0
    9.2690    1.4140   20.9380 O   0  0  0  0  0  0  0  0  0  0  0  0
   14.4463    3.4175   22.1707 Cl  0  0  0  0  0  0  0  0  0  0  0  0
    3.6468    2.0173   21.6825 H   0  0  0  0  0  0  0  0  0  0  0  0
    3.0153    2.6527   19.3907 H   0  0  0  0  0  0  0  0  0  0  0  0
   13.8945   -0.0888   25.4867 H   0  0  0  0  0  0  0  0  0  0  0  0
    5.7015    0.6980   22.1071 H   0  0  0  0  0  0  0  0  0  0  0  0
   11.4361   -0.1726   25.2338 H   0  0  0  0  0  0  0  0  0  0  0  0
    4.4064    1.9744   17.4453 H   0  0  0  0  0  0  0  0  0  0  0  0
    8.6905   -2.3533   26.5810 H   0  0  0  0  0  0  0  0  0  0  0  0
    9.9266   -4.3896   22.9917 H   0  0  0  0  0  0  0  0  0  0  0  0
    8.9233   -0.1992   25.4231 H   0  0  0  0  0  0  0  0  0  0  0  0
   10.0650   -2.2330   21.8256 H   0  0  0  0  0  0  0  0  0  0  0  0
   15.2326    1.4907   24.1414 H   0  0  0  0  0  0  0  0  0  0  0  0
   11.6317    2.9303   22.2615 H   0  0  0  0  0  0  0  0  0  0  0  0
    7.8482   -7.0901   27.4469 H   0  0  0  0  0  0  0  0  0  0  0  0
    6.3760   -6.1438   27.6724 H   0  0  0  0  0  0  0  0  0  0  0  0
    7.6307   -4.0424   27.6403 H   0  0  0  0  0  0  0  0  0  0  0  0
    8.3915   -5.1310   28.7968 H   0  0  0  0  0  0  0  0  0  0  0  0
    6.6888   -6.9376   25.3010 H   0  0  0  0  0  0  0  0  0  0  0  0
    6.5515   -5.1859   25.4257 H   0  0  0  0  0  0  0  0  0  0  0  0
   10.0492   -3.9640   27.3414 H   0  0  0  0  0  0  0  0  0  0  0  0
   10.1431   -5.7254   27.1778 H   0  0  0  0  0  0  0  0  0  0  0  0
    9.1338   -6.7931   25.0868 H   0  0  0  0  0  0  0  0  0  0  0  0
    8.3656   -5.7264   23.8998 H   0  0  0  0  0  0  0  0  0  0  0  0
    9.3974    1.2912   24.5523 H   0  0  0  0  0  0  0  0  0  0  0  0
    9.5159    2.2168   23.0553 H   0  0  0  0  0  0  0  0  0  0  0  0
    6.8044    0.4388   16.8592 H   0  0  0  0  0  0  0  0  0  0  0  0
    8.2565   -1.5523   21.1108 H   0  0  0  0  0  0  0  0  0  0  0  0
  1  2  1  0  0  0  0
  1  4  2  0  0  0  0
  2  6  2  0  0  0  0
  3  5  2  0  0  0  0
  3 11  1  0  0  0  0
  4 13  1  0  0  0  0
  5 14  1  0  0  0  0
  6 15  1  0  0  0  0
  7  9  2  0  0  0  0
  7 16  1  0  0  0  0
  8 10  1  0  0  0  0
  8 16  2  0  0  0  0
  9 17  1  0  0  0  0
 10 17  2  0  0  0  0
 11 18  2  0  0  0  0
 12 14  2  0  0  0  0
 12 18  1  0  0  0  0
 13 15  2  0  0  0  0
 13 19  1  0  0  0  0
 14 26  1  0  0  0  0
 15 28  1  0  0  0  0
 16 29  1  0  0  0  0
 17 31  1  0  0  0  0
 18 33  1  0  0  0  0
 19 27  2  0  0  0  0
 19 30  1  0  0  0  0
 20 30  1  0  0  0  0
 20 31  1  0  0  0  0
 20 32  2  0  0  0  0
 21 22  1  0  0  0  0
 21 23  1  0  0  0  0
 22 24  1  0  0  0  0
 23 25  1  0  0  0  0
 24 29  1  0  0  0  0
 25 29  1  0  0  0  0
 26 31  1  0  0  0  0
 27 28  1  0  0  0  0
  1 34  1  0  0  0  0
  2 35  1  0  0  0  0
  3 36  1  0  0  0  0
  4 37  1  0  0  0  0
  5 38  1  0  0  0  0
  6 39  1  0  0  0  0
  7 40  1  0  0  0  0
  8 41  1  0  0  0  0
  9 42  1  0  0  0  0
 10 43  1  0  0  0  0
 11 44  1  0  0  0  0
 12 45  1  0  0  0  0
 21 46  1  0  0  0  0
 21 47  1  0  0  0  0
 22 48  1  0  0  0  0
 22 49  1  0  0  0  0
 23 50  1  0  0  0  0
 23 51  1  0  0  0  0
 24 52  1  0  0  0  0
 24 53  1  0  0  0  0
 25 54  1  0  0  0  0
 25 55  1  0  0  0  0
 26 56  1  0  0  0  0
 26 57  1  0  0  0  0
 28 58  1  0  0  0  0
 30 59  1  0  0  0  0
M  END
> <clash_score>
0

> <docking_score>
-6.899746894836426

> <overlap_score>
1.0042749643325806

$$$$
BENZO_67_1
  -OEChem-08222022163D

 59 63  0     0  0  0  0  0  0999 V2000
    4.2750    1.7050   20.8490 C   0  0  0  0  0  0  0  0  0  0  0  0
    3.9160    2.0630   19.5520 C   0  0  0  0  0  0  0  0  0  0  0  0
    5.4210    0.9600   21.0930 C   0  0  0  0  0  0  0  0  0  0  0  0
    4.6890    1.6810   18.4640 C   0  0  0  0  0  0  0  0  0  0  0  0
    8.9960   -2.3380   25.5320 C   0  0  0  0  0  0  0  0  0  0  0  0
    9.6730   -3.4710   23.5300 C   0  0  0  0  0  0  0  0  0  0  0  0
    9.0720   -1.1280   24.8640 C   0  0  0  0  0  0  0  0  0  0  0  0
    9.7200   -2.2600   22.8630 C   0  0  0  0  0  0  0  0  0  0  0  0
   12.1233    1.3811   24.9242 C   0  0  0  0  0  0  0  0  0  0  0  0
   12.3261    1.4247   22.7351 C   0  0  0  0  0  0  0  0  0  0  0  0
    6.1790    0.5730   19.9990 C   0  0  0  0  0  0  0  0  0  0  0  0
   11.3794    1.3761   23.7290 C   0  0  0  0  0  0  0  0  0  0  0  0
    5.8300    0.9190   18.6970 C   0  0  0  0  0  0  0  0  0  0  0  0
    9.3070   -3.5340   24.8780 C   0  0  0  0  0  0  0  0  0  0  0  0
    9.3350   -1.0880   23.5010 C   0  0  0  0  0  0  0  0  0  0  0  0
    7.3170   -0.1610   19.8550 C   0  0  0  0  0  0  0  0  0  0  0  0
    9.0420    0.3700   21.5280 C   0  0  0  0  0  0  0  0  0  0  0  0
    7.3635   -6.1361   27.1888 C   0  0  0  0  0  0  0  0  0  0  0  0
    8.1961   -4.9735   27.7341 C   0  0  0  0  0  0  0  0  0  0  0  0
    7.1942   -6.0394   25.6709 C   0  0  0  0  0  0  0  0  0  0  0  0
    9.5196   -4.8490   26.9797 C   0  0  0  0  0  0  0  0  0  0  0  0
    8.5442   -5.8838   24.9639 C   0  0  0  0  0  0  0  0  0  0  0  0
   14.8305    1.5084   22.7418 C   0  0  0  0  0  0  0  0  0  0  0  0
    9.8870    1.3260   23.5730 C   0  0  0  0  0  0  0  0  0  0  0  0
   13.4410    1.4289   24.7112 N   0  0  0  0  0  0  0  0  0  0  0  0
    7.6390   -0.2680   18.5410 N   0  0  0  0  0  0  0  0  0  0  0  0
    6.7580    0.3810   17.8350 N   0  0  0  0  0  0  0  0  0  0  0  0
   13.5326    1.4543   23.3706 N   0  0  0  0  0  0  0  0  0  0  0  0
    9.2562   -4.7384   25.5422 N   0  0  0  0  0  0  0  0  0  0  0  0
    8.1890   -0.7180   20.8700 N   0  0  0  0  0  0  0  0  0  0  0  0
    9.4560    0.1560   22.8130 N   0  0  0  0  0  0  0  0  0  0  0  0
    9.2690    1.4140   20.9380 O   0  0  0  0  0  0  0  0  0  0  0  0
    3.6468    2.0173   21.6825 H   0  0  0  0  0  0  0  0  0  0  0  0
    3.0153    2.6527   19.3907 H   0  0  0  0  0  0  0  0  0  0  0  0
    5.7015    0.6980   22.1071 H   0  0  0  0  0  0  0  0  0  0  0  0
    4.4064    1.9744   17.4453 H   0  0  0  0  0  0  0  0  0  0  0  0
    8.6905   -2.3533   26.5810 H   0  0  0  0  0  0  0  0  0  0  0  0
    9.9266   -4.3896   22.9917 H   0  0  0  0  0  0  0  0  0  0  0  0
    8.9233   -0.1992   25.4231 H   0  0  0  0  0  0  0  0  0  0  0  0
   10.0650   -2.2330   21.8256 H   0  0  0  0  0  0  0  0  0  0  0  0
   11.7624    1.3510   25.9426 H   0  0  0  0  0  0  0  0  0  0  0  0
   12.2462    1.4390   21.6566 H   0  0  0  0  0  0  0  0  0  0  0  0
    7.8482   -7.0901   27.4469 H   0  0  0  0  0  0  0  0  0  0  0  0
    6.3760   -6.1438   27.6724 H   0  0  0  0  0  0  0  0  0  0  0  0
    7.6307   -4.0424   27.6403 H   0  0  0  0  0  0  0  0  0  0  0  0
    8.3915   -5.1310   28.7968 H   0  0  0  0  0  0  0  0  0  0  0  0
    6.6888   -6.9376   25.3010 H   0  0  0  0  0  0  0  0  0  0  0  0
    6.5515   -5.1859   25.4257 H   0  0  0  0  0  0  0  0  0  0  0  0
   10.0492   -3.9640   27.3414 H   0  0  0  0  0  0  0  0  0  0  0  0
   10.1431   -5.7254   27.1778 H   0  0  0  0  0  0  0  0  0  0  0  0
    9.1338   -6.7931   25.0868 H   0  0  0  0  0  0  0  0  0  0  0  0
    8.3656   -5.7264   23.8998 H   0  0  0  0  0  0  0  0  0  0  0  0
   15.0990    2.5601   22.6124 H   0  0  0  0  0  0  0  0  0  0  0  0
   15.5636    1.0018   23.3756 H   0  0  0  0  0  0  0  0  0  0  0  0
   14.7841    1.0025   21.7733 H   0  0  0  0  0  0  0  0  0  0  0  0
    9.3974    1.2912   24.5523 H   0  0  0  0  0  0  0  0  0  0  0  0
    9.5159    2.2168   23.0553 H   0  0  0  0  0  0  0  0  0  0  0  0
    6.8044    0.4388   16.8592 H   0  0  0  0  0  0  0  0  0  0  0  0
    8.2565   -1.5523   21.1108 H   0  0  0  0  0  0  0  0  0  0  0  0
  1  2  1  0  0  0  0
  1  3  2  0  0  0  0
  2  4  2  0  0  0  0
  3 11  1  0  0  0  0
  4 13  1  0  0  0  0
  5  7  2  0  0  0  0
  5 14  1  0  0  0  0
  6  8  1  0  0  0  0
  6 14  2  0  0  0  0
  7 15  1  0  0  0  0
  8 15  2  0  0  0  0
  9 12  1  0  0  0  0
  9 25  2  0  0  0  0
 10 12  2  0  0  0  0
 10 28  1  0  0  0  0
 11 13  2  0  0  0  0
 11 16  1  0  0  0  0
 12 24  1  0  0  0  0
 13 27  1  0  0  0  0
 14 29  1  0  0  0  0
 15 31  1  0  0  0  0
 16 26  2  0  0  0  0
 16 30  1  0  0  0  0
 17 30  1  0  0  0  0
 17 31  1  0  0  0  0
 17 32  2  0  0  0  0
 18 19  1  0  0  0  0
 18 20  1  0  0  0  0
 19 21  1  0  0  0  0
 20 22  1  0  0  0  0
 21 29  1  0  0  0  0
 22 29  1  0  0  0  0
 23 28  1  0  0  0  0
 24 31  1  0  0  0  0
 25 28  1  0  0  0  0
 26 27  1  0  0  0  0
  1 33  1  0  0  0  0
  2 34  1  0  0  0  0
  3 35  1  0  0  0  0
  4 36  1  0  0  0  0
  5 37  1  0  0  0  0
  6 38  1  0  0  0  0
  7 39  1  0  0  0  0
  8 40  1  0  0  0  0
  9 41  1  0  0  0  0
 10 42  1  0  0  0  0
 18 43  1  0  0  0  0
 18 44  1  0  0  0  0
 19 45  1  0  0  0  0
 19 46  1  0  0  0  0
 20 47  1  0  0  0  0
 20 48  1  0  0  0  0
 21 49  1  0  0  0  0
 21 50  1  0  0  0  0
 22 51  1  0  0  0  0
 22 52  1  0  0  0  0
 23 53  1  0  0  0  0
 23 54  1  0  0  0  0
 23 55  1  0  0  0  0
 24 56  1  0  0  0  0
 24 57  1  0  0  0  0
 27 58  1  0  0  0  0
 30 59  1  0  0  0  0
M  END
> <clash_score>
0

> <docking_score>
-7.478886127471924

> <overlap_score>
0.9881091713905334

$$$$
BENZO_71_1
  -OEChem-08222022163D

 47 50  0     0  0  0  0  0  0999 V2000
    4.2750    1.7050   20.8490 C   0  0  0  0  0  0  0  0  0  0  0  0
    3.9160    2.0630   19.5520 C   0  0  0  0  0  0  0  0  0  0  0  0
    5.4210    0.9600   21.0930 C   0  0  0  0  0  0  0  0  0  0  0  0
    8.9960   -2.3380   25.5320 C   0  0  0  0  0  0  0  0  0  0  0  0
    9.6730   -3.4710   23.5300 C   0  0  0  0  0  0  0  0  0  0  0  0
    4.6890    1.6810   18.4640 C   0  0  0  0  0  0  0  0  0  0  0  0
    9.0720   -1.1280   24.8640 C   0  0  0  0  0  0  0  0  0  0  0  0
    9.7200   -2.2600   22.8630 C   0  0  0  0  0  0  0  0  0  0  0  0
   12.2914    2.2071   23.0512 C   0  0  0  0  0  0  0  0  0  0  0  0
   12.1614    0.6214   24.5689 C   0  0  0  0  0  0  0  0  0  0  0  0
    6.1790    0.5730   19.9990 C   0  0  0  0  0  0  0  0  0  0  0  0
    9.3070   -3.5340   24.8780 C   0  0  0  0  0  0  0  0  0  0  0  0
   11.3794    1.3761   23.7290 C   0  0  0  0  0  0  0  0  0  0  0  0
    5.8300    0.9190   18.6970 C   0  0  0  0  0  0  0  0  0  0  0  0
    9.3350   -1.0880   23.5010 C   0  0  0  0  0  0  0  0  0  0  0  0
    7.3170   -0.1610   19.8550 C   0  0  0  0  0  0  0  0  0  0  0  0
    9.0420    0.3700   21.5280 C   0  0  0  0  0  0  0  0  0  0  0  0
    9.2505   -4.8264   25.5904 C   0  0  0  0  0  0  0  0  0  0  0  0
   14.6267    0.5248   25.0067 C   0  0  0  0  0  0  0  0  0  0  0  0
    9.8870    1.3260   23.5730 C   0  0  0  0  0  0  0  0  0  0  0  0
   13.5560    2.0002   23.4280 N   0  0  0  0  0  0  0  0  0  0  0  0
    7.6390   -0.2680   18.5410 N   0  0  0  0  0  0  0  0  0  0  0  0
    6.7580    0.3810   17.8350 N   0  0  0  0  0  0  0  0  0  0  0  0
   13.4442    1.0306   24.3518 N   0  0  0  0  0  0  0  0  0  0  0  0
    8.1890   -0.7180   20.8700 N   0  0  0  0  0  0  0  0  0  0  0  0
    9.4560    0.1560   22.8130 N   0  0  0  0  0  0  0  0  0  0  0  0
    9.2690    1.4140   20.9380 O   0  0  0  0  0  0  0  0  0  0  0  0
    3.6468    2.0173   21.6825 H   0  0  0  0  0  0  0  0  0  0  0  0
    3.0153    2.6527   19.3907 H   0  0  0  0  0  0  0  0  0  0  0  0
    5.7015    0.6980   22.1071 H   0  0  0  0  0  0  0  0  0  0  0  0
    8.6919   -2.3557   26.5813 H   0  0  0  0  0  0  0  0  0  0  0  0
    9.9267   -4.3907   22.9939 H   0  0  0  0  0  0  0  0  0  0  0  0
    4.4064    1.9744   17.4453 H   0  0  0  0  0  0  0  0  0  0  0  0
    8.9217   -0.1995   25.4231 H   0  0  0  0  0  0  0  0  0  0  0  0
   10.0653   -2.2339   21.8256 H   0  0  0  0  0  0  0  0  0  0  0  0
   12.0895    2.9562   22.2987 H   0  0  0  0  0  0  0  0  0  0  0  0
   11.9202   -0.1518   25.2857 H   0  0  0  0  0  0  0  0  0  0  0  0
    8.2503   -5.2678   25.5020 H   0  0  0  0  0  0  0  0  0  0  0  0
    9.9817   -5.5374   25.1845 H   0  0  0  0  0  0  0  0  0  0  0  0
    9.4841   -4.7043   26.6562 H   0  0  0  0  0  0  0  0  0  0  0  0
   15.0068   -0.3132   24.4165 H   0  0  0  0  0  0  0  0  0  0  0  0
   15.3758    1.3189   25.0698 H   0  0  0  0  0  0  0  0  0  0  0  0
   14.3676    0.1958   26.0170 H   0  0  0  0  0  0  0  0  0  0  0  0
    9.3974    1.2912   24.5523 H   0  0  0  0  0  0  0  0  0  0  0  0
    9.5159    2.2168   23.0553 H   0  0  0  0  0  0  0  0  0  0  0  0
    6.8044    0.4388   16.8592 H   0  0  0  0  0  0  0  0  0  0  0  0
    8.2409   -1.5618   21.0967 H   0  0  0  0  0  0  0  0  0  0  0  0
  1  2  1  0  0  0  0
  1  3  2  0  0  0  0
  2  6  2  0  0  0  0
  3 11  1  0  0  0  0
  4  7  2  0  0  0  0
  4 12  1  0  0  0  0
  5  8  1  0  0  0  0
  5 12  2  0  0  0  0
  6 14  1  0  0  0  0
  7 15  1  0  0  0  0
  8 15  2  0  0  0  0
  9 13  1  0  0  0  0
  9 21  2  0  0  0  0
 10 13  2  0  0  0  0
 10 24  1  0  0  0  0
 11 14  2  0  0  0  0
 11 16  1  0  0  0  0
 12 18  1  0  0  0  0
 13 20  1  0  0  0  0
 14 23  1  0  0  0  0
 15 26  1  0  0  0  0
 16 22  2  0  0  0  0
 16 25  1  0  0  0  0
 17 25  1  0  0  0  0
 17 26  1  0  0  0  0
 17 27  2  0  0  0  0
 19 24  1  0  0  0  0
 20 26  1  0  0  0  0
 21 24  1  0  0  0  0
 22 23  1  0  0  0  0
  1 28  1  0  0  0  0
  2 29  1  0  0  0  0
  3 30  1  0  0  0  0
  4 31  1  0  0  0  0
  5 32  1  0  0  0  0
  6 33  1  0  0  0  0
  7 34  1  0  0  0  0
  8 35  1  0  0  0  0
  9 36  1  0  0  0  0
 10 37  1  0  0  0  0
 18 38  1  0  0  0  0
 18 39  1  0  0  0  0
 18 40  1  0  0  0  0
 19 41  1  0  0  0  0
 19 42  1  0  0  0  0
 19 43  1  0  0  0  0
 20 44  1  0  0  0  0
 20 45  1  0  0  0  0
 23 46  1  0  0  0  0
 25 47  1  0  0  0  0
M  END
> <clash_score>
0.619941928330921

> <docking_score>
-7.71580171585083

> <overlap_score>
0.9382389187812805

$$$$
BENZO_70_1
  -OEChem-08222022163D

 47 50  0     0  0  0  0  0  0999 V2000
    4.2750    1.7050   20.8490 C   0  0  0  0  0  0  0  0  0  0  0  0
    3.9160    2.0630   19.5520 C   0  0  0  0  0  0  0  0  0  0  0  0
   13.4007    0.5725   24.7805 C   0  0  0  0  0  0  0  0  0  0  0  0
    5.4210    0.9600   21.0930 C   0  0  0  0  0  0  0  0  0  0  0  0
   12.0141    0.5273   24.6359 C   0  0  0  0  0  0  0  0  0  0  0  0
    8.9960   -2.3380   25.5320 C   0  0  0  0  0  0  0  0  0  0  0  0
    9.6730   -3.4710   23.5300 C   0  0  0  0  0  0  0  0  0  0  0  0
    4.6890    1.6810   18.4640 C   0  0  0  0  0  0  0  0  0  0  0  0
    9.0720   -1.1280   24.8640 C   0  0  0  0  0  0  0  0  0  0  0  0
    9.7200   -2.2600   22.8630 C   0  0  0  0  0  0  0  0  0  0  0  0
   14.1526    1.4666   24.0184 C   0  0  0  0  0  0  0  0  0  0  0  0
   12.1314    2.2702   22.9668 C   0  0  0  0  0  0  0  0  0  0  0  0
    6.1790    0.5730   19.9990 C   0  0  0  0  0  0  0  0  0  0  0  0
    9.3070   -3.5340   24.8780 C   0  0  0  0  0  0  0  0  0  0  0  0
   11.3794    1.3761   23.7290 C   0  0  0  0  0  0  0  0  0  0  0  0
    5.8300    0.9190   18.6970 C   0  0  0  0  0  0  0  0  0  0  0  0
    9.3350   -1.0880   23.5010 C   0  0  0  0  0  0  0  0  0  0  0  0
   13.5180    2.3154   23.1115 C   0  0  0  0  0  0  0  0  0  0  0  0
    7.3170   -0.1610   19.8550 C   0  0  0  0  0  0  0  0  0  0  0  0
    9.0420    0.3700   21.5280 C   0  0  0  0  0  0  0  0  0  0  0  0
    9.2505   -4.8264   25.5904 C   0  0  0  0  0  0  0  0  0  0  0  0
    9.8870    1.3260   23.5730 C   0  0  0  0  0  0  0  0  0  0  0  0
    7.6390   -0.2680   18.5410 N   0  0  0  0  0  0  0  0  0  0  0  0
    6.7580    0.3810   17.8350 N   0  0  0  0  0  0  0  0  0  0  0  0
    8.1890   -0.7180   20.8700 N   0  0  0  0  0  0  0  0  0  0  0  0
    9.4560    0.1560   22.8130 N   0  0  0  0  0  0  0  0  0  0  0  0
    9.2690    1.4140   20.9380 O   0  0  0  0  0  0  0  0  0  0  0  0
   14.4463    3.4175   22.1707 Cl  0  0  0  0  0  0  0  0  0  0  0  0
    3.6468    2.0173   21.6825 H   0  0  0  0  0  0  0  0  0  0  0  0
    3.0153    2.6527   19.3907 H   0  0  0  0  0  0  0  0  0  0  0  0
   13.8945   -0.0888   25.4867 H   0  0  0  0  0  0  0  0  0  0  0  0
    5.7015    0.6980   22.1071 H   0  0  0  0  0  0  0  0  0  0  0  0
   11.4361   -0.1726   25.2338 H   0  0  0  0  0  0  0  0  0  0  0  0
    8.6919   -2.3557   26.5813 H   0  0  0  0  0  0  0  0  0  0  0  0
    9.9267   -4.3907   22.9939 H   0  0  0  0  0  0  0  0  0  0  0  0
    4.4064    1.9744   17.4453 H   0  0  0  0  0  0  0  0  0  0  0  0
    8.9217   -0.1995   25.4231 H   0  0  0  0  0  0  0  0  0  0  0  0
   10.0653   -2.2339   21.8256 H   0  0  0  0  0  0  0  0  0  0  0  0
   15.2326    1.4907   24.1414 H   0  0  0  0  0  0  0  0  0  0  0  0
   11.6318    2.9303   22.2615 H   0  0  0  0  0  0  0  0  0  0  0  0
    8.2503   -5.2678   25.5020 H   0  0  0  0  0  0  0  0  0  0  0  0
    9.9817   -5.5374   25.1845 H   0  0  0  0  0  0  0  0  0  0  0  0
    9.4841   -4.7043   26.6562 H   0  0  0  0  0  0  0  0  0  0  0  0
    9.3974    1.2912   24.5523 H   0  0  0  0  0  0  0  0  0  0  0  0
    9.5159    2.2168   23.0553 H   0  0  0  0  0  0  0  0  0  0  0  0
    6.8044    0.4388   16.8592 H   0  0  0  0  0  0  0  0  0  0  0  0
    8.2409   -1.5618   21.0967 H   0  0  0  0  0  0  0  0  0  0  0  0
  1  2  1  0  0  0  0
  1  4  2  0  0  0  0
  2  8  2  0  0  0  0
  3  5  2  0  0  0  0
  3 11  1  0  0  0  0
  4 13  1  0  0  0  0
  5 15  1  0  0  0  0
  6  9  2  0  0  0  0
  6 14  1  0  0  0  0
  7 10  1  0  0  0  0
  7 14  2  0  0  0  0
  8 16  1  0  0  0  0
  9 17  1  0  0  0  0
 10 17  2  0  0  0  0
 11 18  2  0  0  0  0
 12 15  2  0  0  0  0
 12 18  1  0  0  0  0
 13 16  2  0  0  0  0
 13 19  1  0  0  0  0
 14 21  1  0  0  0  0
 15 22  1  0  0  0  0
 16 24  1  0  0  0  0
 17 26  1  0  0  0  0
 18 28  1  0  0  0  0
 19 23  2  0  0  0  0
 19 25  1  0  0  0  0
 20 25  1  0  0  0  0
 20 26  1  0  0  0  0
 20 27  2  0  0  0  0
 22 26  1  0  0  0  0
 23 24  1  0  0  0  0
  1 29  1  0  0  0  0
  2 30  1  0  0  0  0
  3 31  1  0  0  0  0
  4 32  1  0  0  0  0
  5 33  1  0  0  0  0
  6 34  1  0  0  0  0
  7 35  1  0  0  0  0
  8 36  1  0  0  0  0
  9 37  1  0  0  0  0
 10 38  1  0  0  0  0
 11 39  1  0  0  0  0
 12 40  1  0  0  0  0
 21 41  1  0  0  0  0
 21 42  1  0  0  0  0
 21 43  1  0  0  0  0
 22 44  1  0  0  0  0
 22 45  1  0  0  0  0
 24 46  1  0  0  0  0
 25 47  1  0  0  0  0
M  END
> <clash_score>
0

> <docking_score>
-7.144772529602051

> <overlap_score>
0.9507185220718384

$$$$
BENZO_73_1
  -OEChem-08222022163D

 48 51  0     0  0  0  0  0  0999 V2000
   14.1526    1.4694   24.0176 C   0  0  0  0  0  0  0  0  0  0  0  0
    4.2750    1.7050   20.8490 C   0  0  0  0  0  0  0  0  0  0  0  0
   13.3741    0.8121   24.9701 C   0  0  0  0  0  0  0  0  0  0  0  0
   13.5446    2.0802   22.9208 C   0  0  0  0  0  0  0  0  0  0  0  0
    3.9160    2.0630   19.5520 C   0  0  0  0  0  0  0  0  0  0  0  0
    5.4210    0.9600   21.0930 C   0  0  0  0  0  0  0  0  0  0  0  0
   11.9875    0.7654   24.8258 C   0  0  0  0  0  0  0  0  0  0  0  0
   12.1580    2.0335   22.7765 C   0  0  0  0  0  0  0  0  0  0  0  0
    4.6890    1.6810   18.4640 C   0  0  0  0  0  0  0  0  0  0  0  0
    9.0720   -1.1280   24.8640 C   0  0  0  0  0  0  0  0  0  0  0  0
    9.7200   -2.2600   22.8630 C   0  0  0  0  0  0  0  0  0  0  0  0
    8.9960   -2.3380   25.5320 C   0  0  0  0  0  0  0  0  0  0  0  0
    9.6730   -3.4710   23.5300 C   0  0  0  0  0  0  0  0  0  0  0  0
    6.1790    0.5730   19.9990 C   0  0  0  0  0  0  0  0  0  0  0  0
   11.3794    1.3761   23.7290 C   0  0  0  0  0  0  0  0  0  0  0  0
    5.8300    0.9190   18.6970 C   0  0  0  0  0  0  0  0  0  0  0  0
    9.3350   -1.0880   23.5010 C   0  0  0  0  0  0  0  0  0  0  0  0
    9.3070   -3.5340   24.8780 C   0  0  0  0  0  0  0  0  0  0  0  0
    7.3170   -0.1610   19.8550 C   0  0  0  0  0  0  0  0  0  0  0  0
    9.0420    0.3700   21.5280 C   0  0  0  0  0  0  0  0  0  0  0  0
    9.5894   -5.8809   24.7798 C   0  0  0  0  0  0  0  0  0  0  0  0
    9.8870    1.3260   23.5730 C   0  0  0  0  0  0  0  0  0  0  0  0
    7.6390   -0.2680   18.5410 N   0  0  0  0  0  0  0  0  0  0  0  0
    6.7580    0.3810   17.8350 N   0  0  0  0  0  0  0  0  0  0  0  0
    8.1890   -0.7180   20.8700 N   0  0  0  0  0  0  0  0  0  0  0  0
    9.4560    0.1560   22.8130 N   0  0  0  0  0  0  0  0  0  0  0  0
    9.2690    1.4140   20.9380 O   0  0  0  0  0  0  0  0  0  0  0  0
    9.2555   -4.7124   25.5274 O   0  0  0  0  0  0  0  0  0  0  0  0
   15.2322    1.5068   24.1308 H   0  0  0  0  0  0  0  0  0  0  0  0
    3.6468    2.0173   21.6825 H   0  0  0  0  0  0  0  0  0  0  0  0
   13.8473    0.3374   25.8248 H   0  0  0  0  0  0  0  0  0  0  0  0
   14.1503    2.5930   22.1795 H   0  0  0  0  0  0  0  0  0  0  0  0
    3.0153    2.6527   19.3907 H   0  0  0  0  0  0  0  0  0  0  0  0
    5.7015    0.6980   22.1071 H   0  0  0  0  0  0  0  0  0  0  0  0
   11.3889    0.2508   25.5729 H   0  0  0  0  0  0  0  0  0  0  0  0
   11.6930    2.5120   21.9187 H   0  0  0  0  0  0  0  0  0  0  0  0
    4.4064    1.9744   17.4453 H   0  0  0  0  0  0  0  0  0  0  0  0
    8.9221   -0.1995   25.4231 H   0  0  0  0  0  0  0  0  0  0  0  0
   10.0642   -2.2347   21.8253 H   0  0  0  0  0  0  0  0  0  0  0  0
    8.6902   -2.3588   26.5805 H   0  0  0  0  0  0  0  0  0  0  0  0
    9.9254   -4.3921   22.9961 H   0  0  0  0  0  0  0  0  0  0  0  0
    9.5074   -6.7611   25.4222 H   0  0  0  0  0  0  0  0  0  0  0  0
   10.6088   -5.7902   24.3963 H   0  0  0  0  0  0  0  0  0  0  0  0
    8.8944   -5.9778   23.9424 H   0  0  0  0  0  0  0  0  0  0  0  0
    9.3974    1.2912   24.5523 H   0  0  0  0  0  0  0  0  0  0  0  0
    9.5159    2.2168   23.0553 H   0  0  0  0  0  0  0  0  0  0  0  0
    6.8044    0.4388   16.8592 H   0  0  0  0  0  0  0  0  0  0  0  0
    8.2409   -1.5618   21.0967 H   0  0  0  0  0  0  0  0  0  0  0  0
  1  3  1  0  0  0  0
  1  4  2  0  0  0  0
  2  5  1  0  0  0  0
  2  6  2  0  0  0  0
  3  7  2  0  0  0  0
  4  8  1  0  0  0  0
  5  9  2  0  0  0  0
  6 14  1  0  0  0  0
  7 15  1  0  0  0  0
  8 15  2  0  0  0  0
  9 16  1  0  0  0  0
 10 12  2  0  0  0  0
 10 17  1  0  0  0  0
 11 13  1  0  0  0  0
 11 17  2  0  0  0  0
 12 18  1  0  0  0  0
 13 18  2  0  0  0  0
 14 16  2  0  0  0  0
 14 19  1  0  0  0  0
 15 22  1  0  0  0  0
 16 24  1  0  0  0  0
 17 26  1  0  0  0  0
 18 28  1  0  0  0  0
 19 23  2  0  0  0  0
 19 25  1  0  0  0  0
 20 25  1  0  0  0  0
 20 26  1  0  0  0  0
 20 27  2  0  0  0  0
 21 28  1  0  0  0  0
 22 26  1  0  0  0  0
 23 24  1  0  0  0  0
  1 29  1  0  0  0  0
  2 30  1  0  0  0  0
  3 31  1  0  0  0  0
  4 32  1  0  0  0  0
  5 33  1  0  0  0  0
  6 34  1  0  0  0  0
  7 35  1  0  0  0  0
  8 36  1  0  0  0  0
  9 37  1  0  0  0  0
 10 38  1  0  0  0  0
 11 39  1  0  0  0  0
 12 40  1  0  0  0  0
 13 41  1  0  0  0  0
 21 42  1  0  0  0  0
 21 43  1  0  0  0  0
 21 44  1  0  0  0  0
 22 45  1  0  0  0  0
 22 46  1  0  0  0  0
 24 47  1  0  0  0  0
 25 48  1  0  0  0  0
M  END
> <clash_score>
0

> <docking_score>
-7.713905334472656

> <overlap_score>
0.96425461769104

$$$$
BENZO_72_1
  -OEChem-08222022163D

 45 48  0     0  0  0  0  0  0999 V2000
    4.2750    1.7050   20.8490 C   0  0  0  0  0  0  0  0  0  0  0  0
    3.9160    2.0630   19.5520 C   0  0  0  0  0  0  0  0  0  0  0  0
    5.4210    0.9600   21.0930 C   0  0  0  0  0  0  0  0  0  0  0  0
    4.6890    1.6810   18.4640 C   0  0  0  0  0  0  0  0  0  0  0  0
    9.0720   -1.1280   24.8640 C   0  0  0  0  0  0  0  0  0  0  0  0
    9.7200   -2.2600   22.8630 C   0  0  0  0  0  0  0  0  0  0  0  0
    8.9960   -2.3380   25.5320 C   0  0  0  0  0  0  0  0  0  0  0  0
    9.6730   -3.4710   23.5300 C   0  0  0  0  0  0  0  0  0  0  0  0
   12.2111    0.2208   23.7905 C   0  0  0  0  0  0  0  0  0  0  0  0
   13.5412    0.5479   23.9363 C   0  0  0  0  0  0  0  0  0  0  0  0
   12.1057    2.5424   23.8305 C   0  0  0  0  0  0  0  0  0  0  0  0
    6.1790    0.5730   19.9990 C   0  0  0  0  0  0  0  0  0  0  0  0
   11.3794    1.3761   23.7290 C   0  0  0  0  0  0  0  0  0  0  0  0
    5.8300    0.9190   18.6970 C   0  0  0  0  0  0  0  0  0  0  0  0
    9.3350   -1.0880   23.5010 C   0  0  0  0  0  0  0  0  0  0  0  0
    9.3070   -3.5340   24.8780 C   0  0  0  0  0  0  0  0  0  0  0  0
    7.3170   -0.1610   19.8550 C   0  0  0  0  0  0  0  0  0  0  0  0
    9.0420    0.3700   21.5280 C   0  0  0  0  0  0  0  0  0  0  0  0
    9.5894   -5.8809   24.7798 C   0  0  0  0  0  0  0  0  0  0  0  0
    9.8870    1.3260   23.5730 C   0  0  0  0  0  0  0  0  0  0  0  0
    7.6390   -0.2680   18.5410 N   0  0  0  0  0  0  0  0  0  0  0  0
    6.7580    0.3810   17.8350 N   0  0  0  0  0  0  0  0  0  0  0  0
    8.1890   -0.7180   20.8700 N   0  0  0  0  0  0  0  0  0  0  0  0
    9.4560    0.1560   22.8130 N   0  0  0  0  0  0  0  0  0  0  0  0
    9.2690    1.4140   20.9380 O   0  0  0  0  0  0  0  0  0  0  0  0
    9.2555   -4.7124   25.5274 O   0  0  0  0  0  0  0  0  0  0  0  0
   13.7831    2.2420   23.9988 S   0  0  0  0  0  0  0  0  0  0  0  0
    3.6468    2.0173   21.6825 H   0  0  0  0  0  0  0  0  0  0  0  0
    3.0153    2.6527   19.3907 H   0  0  0  0  0  0  0  0  0  0  0  0
    5.7015    0.6980   22.1071 H   0  0  0  0  0  0  0  0  0  0  0  0
    4.4064    1.9744   17.4453 H   0  0  0  0  0  0  0  0  0  0  0  0
    8.9221   -0.1995   25.4231 H   0  0  0  0  0  0  0  0  0  0  0  0
   10.0642   -2.2347   21.8253 H   0  0  0  0  0  0  0  0  0  0  0  0
    8.6902   -2.3588   26.5805 H   0  0  0  0  0  0  0  0  0  0  0  0
    9.9254   -4.3921   22.9961 H   0  0  0  0  0  0  0  0  0  0  0  0
   11.8558   -0.8003   23.7315 H   0  0  0  0  0  0  0  0  0  0  0  0
   14.3824   -0.1267   24.0100 H   0  0  0  0  0  0  0  0  0  0  0  0
   11.7354    3.5581   23.8155 H   0  0  0  0  0  0  0  0  0  0  0  0
    9.5074   -6.7611   25.4222 H   0  0  0  0  0  0  0  0  0  0  0  0
   10.6088   -5.7902   24.3963 H   0  0  0  0  0  0  0  0  0  0  0  0
    8.8944   -5.9778   23.9424 H   0  0  0  0  0  0  0  0  0  0  0  0
    9.3974    1.2912   24.5523 H   0  0  0  0  0  0  0  0  0  0  0  0
    9.5159    2.2168   23.0553 H   0  0  0  0  0  0  0  0  0  0  0  0
    6.8044    0.4388   16.8592 H   0  0  0  0  0  0  0  0  0  0  0  0
    8.2409   -1.5618   21.0967 H   0  0  0  0  0  0  0  0  0  0  0  0
  1  2  1  0  0  0  0
  1  3  2  0  0  0  0
  2  4  2  0  0  0  0
  3 12  1  0  0  0  0
  4 14  1  0  0  0  0
  5  7  2  0  0  0  0
  5 15  1  0  0  0  0
  6  8  1  0  0  0  0
  6 15  2  0  0  0  0
  7 16  1  0  0  0  0
  8 16  2  0  0  0  0
  9 10  2  0  0  0  0
  9 13  1  0  0  0  0
 10 27  1  0  0  0  0
 11 13  2  0  0  0  0
 11 27  1  0  0  0  0
 12 14  2  0  0  0  0
 12 17  1  0  0  0  0
 13 20  1  0  0  0  0
 14 22  1  0  0  0  0
 15 24  1  0  0  0  0
 16 26  1  0  0  0  0
 17 21  2  0  0  0  0
 17 23  1  0  0  0  0
 18 23  1  0  0  0  0
 18 24  1  0  0  0  0
 18 25  2  0  0  0  0
 19 26  1  0  0  0  0
 20 24  1  0  0  0  0
 21 22  1  0  0  0  0
  1 28  1  0  0  0  0
  2 29  1  0  0  0  0
  3 30  1  0  0  0  0
  4 31  1  0  0  0  0
  5 32  1  0  0  0  0
  6 33  1  0  0  0  0
  7 34  1  0  0  0  0
  8 35  1  0  0  0  0
  9 36  1  0  0  0  0
 10 37  1  0  0  0  0
 11 38  1  0  0  0  0
 19 39  1  0  0  0  0
 19 40  1  0  0  0  0
 19 41  1  0  0  0  0
 20 42  1  0  0  0  0
 20 43  1  0  0  0  0
 22 44  1  0  0  0  0
 23 45  1  0  0  0  0
M  END
> <clash_score>
0

> <docking_score>
-6.987077713012695

> <overlap_score>
0.9491583704948425

$$$$
BENZO_75_1
  -OEChem-08222022163D

 48 51  0     0  0  0  0  0  0999 V2000
    4.2750    1.7050   20.8490 C   0  0  0  0  0  0  0  0  0  0  0  0
    3.9160    2.0630   19.5520 C   0  0  0  0  0  0  0  0  0  0  0  0
    5.4210    0.9600   21.0930 C   0  0  0  0  0  0  0  0  0  0  0  0
    4.6890    1.6810   18.4640 C   0  0  0  0  0  0  0  0  0  0  0  0
    9.0720   -1.1280   24.8640 C   0  0  0  0  0  0  0  0  0  0  0  0
    9.7200   -2.2600   22.8630 C   0  0  0  0  0  0  0  0  0  0  0  0
    8.9960   -2.3380   25.5320 C   0  0  0  0  0  0  0  0  0  0  0  0
    9.6730   -3.4710   23.5300 C   0  0  0  0  0  0  0  0  0  0  0  0
   12.2914    2.2071   23.0512 C   0  0  0  0  0  0  0  0  0  0  0  0
   12.1614    0.6214   24.5689 C   0  0  0  0  0  0  0  0  0  0  0  0
    6.1790    0.5730   19.9990 C   0  0  0  0  0  0  0  0  0  0  0  0
   11.3794    1.3761   23.7290 C   0  0  0  0  0  0  0  0  0  0  0  0
    5.8300    0.9190   18.6970 C   0  0  0  0  0  0  0  0  0  0  0  0
    9.3350   -1.0880   23.5010 C   0  0  0  0  0  0  0  0  0  0  0  0
    9.3070   -3.5340   24.8780 C   0  0  0  0  0  0  0  0  0  0  0  0
    7.3170   -0.1610   19.8550 C   0  0  0  0  0  0  0  0  0  0  0  0
    9.0420    0.3700   21.5280 C   0  0  0  0  0  0  0  0  0  0  0  0
   14.6267    0.5248   25.0067 C   0  0  0  0  0  0  0  0  0  0  0  0
    8.8720   -4.6805   26.9013 C   0  0  0  0  0  0  0  0  0  0  0  0
    9.8870    1.3260   23.5730 C   0  0  0  0  0  0  0  0  0  0  0  0
   13.5560    2.0002   23.4280 N   0  0  0  0  0  0  0  0  0  0  0  0
    7.6390   -0.2680   18.5410 N   0  0  0  0  0  0  0  0  0  0  0  0
    6.7580    0.3810   17.8350 N   0  0  0  0  0  0  0  0  0  0  0  0
   13.4442    1.0306   24.3518 N   0  0  0  0  0  0  0  0  0  0  0  0
    8.1890   -0.7180   20.8700 N   0  0  0  0  0  0  0  0  0  0  0  0
    9.4560    0.1560   22.8130 N   0  0  0  0  0  0  0  0  0  0  0  0
    9.2690    1.4140   20.9380 O   0  0  0  0  0  0  0  0  0  0  0  0
    9.2555   -4.7124   25.5274 O   0  0  0  0  0  0  0  0  0  0  0  0
    3.6468    2.0173   21.6825 H   0  0  0  0  0  0  0  0  0  0  0  0
    3.0153    2.6527   19.3907 H   0  0  0  0  0  0  0  0  0  0  0  0
    5.7015    0.6980   22.1071 H   0  0  0  0  0  0  0  0  0  0  0  0
    4.4064    1.9744   17.4453 H   0  0  0  0  0  0  0  0  0  0  0  0
    8.9221   -0.1995   25.4231 H   0  0  0  0  0  0  0  0  0  0  0  0
   10.0642   -2.2347   21.8253 H   0  0  0  0  0  0  0  0  0  0  0  0
    8.6902   -2.3588   26.5805 H   0  0  0  0  0  0  0  0  0  0  0  0
    9.9254   -4.3921   22.9961 H   0  0  0  0  0  0  0  0  0  0  0  0
   12.0895    2.9562   22.2987 H   0  0  0  0  0  0  0  0  0  0  0  0
   11.9202   -0.1518   25.2857 H   0  0  0  0  0  0  0  0  0  0  0  0
   15.0068   -0.3132   24.4165 H   0  0  0  0  0  0  0  0  0  0  0  0
   15.3758    1.3189   25.0698 H   0  0  0  0  0  0  0  0  0  0  0  0
   14.3676    0.1958   26.0170 H   0  0  0  0  0  0  0  0  0  0  0  0
    8.8711   -5.6964   27.3038 H   0  0  0  0  0  0  0  0  0  0  0  0
    7.8758   -4.2402   26.9923 H   0  0  0  0  0  0  0  0  0  0  0  0
    9.5894   -4.0716   27.4566 H   0  0  0  0  0  0  0  0  0  0  0  0
    9.3974    1.2912   24.5523 H   0  0  0  0  0  0  0  0  0  0  0  0
    9.5159    2.2168   23.0553 H   0  0  0  0  0  0  0  0  0  0  0  0
    6.8044    0.4388   16.8592 H   0  0  0  0  0  0  0  0  0  0  0  0
    8.2409   -1.5618   21.0967 H   0  0  0  0  0  0  0  0  0  0  0  0
  1  2  1  0  0  0  0
  1  3  2  0  0  0  0
  2  4  2  0  0  0  0
  3 11  1  0  0  0  0
  4 13  1  0  0  0  0
  5  7  2  0  0  0  0
  5 14  1  0  0  0  0
  6  8  1  0  0  0  0
  6 14  2  0  0  0  0
  7 15  1  0  0  0  0
  8 15  2  0  0  0  0
  9 12  1  0  0  0  0
  9 21  2  0  0  0  0
 10 12  2  0  0  0  0
 10 24  1  0  0  0  0
 11 13  2  0  0  0  0
 11 16  1  0  0  0  0
 12 20  1  0  0  0  0
 13 23  1  0  0  0  0
 14 26  1  0  0  0  0
 15 28  1  0  0  0  0
 16 22  2  0  0  0  0
 16 25  1  0  0  0  0
 17 25  1  0  0  0  0
 17 26  1  0  0  0  0
 17 27  2  0  0  0  0
 18 24  1  0  0  0  0
 19 28  1  0  0  0  0
 20 26  1  0  0  0  0
 21 24  1  0  0  0  0
 22 23  1  0  0  0  0
  1 29  1  0  0  0  0
  2 30  1  0  0  0  0
  3 31  1  0  0  0  0
  4 32  1  0  0  0  0
  5 33  1  0  0  0  0
  6 34  1  0  0  0  0
  7 35  1  0  0  0  0
  8 36  1  0  0  0  0
  9 37  1  0  0  0  0
 10 38  1  0  0  0  0
 18 39  1  0  0  0  0
 18 40  1  0  0  0  0
 18 41  1  0  0  0  0
 19 42  1  0  0  0  0
 19 43  1  0  0  0  0
 19 44  1  0  0  0  0
 20 45  1  0  0  0  0
 20 46  1  0  0  0  0
 23 47  1  0  0  0  0
 25 48  1  0  0  0  0
M  END
> <clash_score>
0.619941928330921

> <docking_score>
-7.452101707458496

> <overlap_score>
0.9605907201766968

$$$$
BENZO_74_1
  -OEChem-08222022163D

 48 51  0     0  0  0  0  0  0999 V2000
    4.2750    1.7050   20.8490 C   0  0  0  0  0  0  0  0  0  0  0  0
    3.9160    2.0630   19.5520 C   0  0  0  0  0  0  0  0  0  0  0  0
   13.4007    0.5725   24.7805 C   0  0  0  0  0  0  0  0  0  0  0  0
    5.4210    0.9600   21.0930 C   0  0  0  0  0  0  0  0  0  0  0  0
   12.0141    0.5273   24.6359 C   0  0  0  0  0  0  0  0  0  0  0  0
    4.6890    1.6810   18.4640 C   0  0  0  0  0  0  0  0  0  0  0  0
    9.0720   -1.1280   24.8640 C   0  0  0  0  0  0  0  0  0  0  0  0
    9.7200   -2.2600   22.8630 C   0  0  0  0  0  0  0  0  0  0  0  0
    8.9960   -2.3380   25.5320 C   0  0  0  0  0  0  0  0  0  0  0  0
    9.6730   -3.4710   23.5300 C   0  0  0  0  0  0  0  0  0  0  0  0
   14.1526    1.4666   24.0184 C   0  0  0  0  0  0  0  0  0  0  0  0
   12.1314    2.2702   22.9668 C   0  0  0  0  0  0  0  0  0  0  0  0
    6.1790    0.5730   19.9990 C   0  0  0  0  0  0  0  0  0  0  0  0
   11.3794    1.3761   23.7290 C   0  0  0  0  0  0  0  0  0  0  0  0
    5.8300    0.9190   18.6970 C   0  0  0  0  0  0  0  0  0  0  0  0
    9.3350   -1.0880   23.5010 C   0  0  0  0  0  0  0  0  0  0  0  0
    9.3070   -3.5340   24.8780 C   0  0  0  0  0  0  0  0  0  0  0  0
   13.5180    2.3154   23.1115 C   0  0  0  0  0  0  0  0  0  0  0  0
    7.3170   -0.1610   19.8550 C   0  0  0  0  0  0  0  0  0  0  0  0
    9.0420    0.3700   21.5280 C   0  0  0  0  0  0  0  0  0  0  0  0
    8.8720   -4.6805   26.9013 C   0  0  0  0  0  0  0  0  0  0  0  0
    9.8870    1.3260   23.5730 C   0  0  0  0  0  0  0  0  0  0  0  0
    7.6390   -0.2680   18.5410 N   0  0  0  0  0  0  0  0  0  0  0  0
    6.7580    0.3810   17.8350 N   0  0  0  0  0  0  0  0  0  0  0  0
    8.1890   -0.7180   20.8700 N   0  0  0  0  0  0  0  0  0  0  0  0
    9.4560    0.1560   22.8130 N   0  0  0  0  0  0  0  0  0  0  0  0
    9.2690    1.4140   20.9380 O   0  0  0  0  0  0  0  0  0  0  0  0
    9.2555   -4.7124   25.5274 O   0  0  0  0  0  0  0  0  0  0  0  0
   14.4463    3.4175   22.1707 Cl  0  0  0  0  0  0  0  0  0  0  0  0
    3.6468    2.0173   21.6825 H   0  0  0  0  0  0  0  0  0  0  0  0
    3.0153    2.6527   19.3907 H   0  0  0  0  0  0  0  0  0  0  0  0
   13.8945   -0.0888   25.4867 H   0  0  0  0  0  0  0  0  0  0  0  0
    5.7015    0.6980   22.1071 H   0  0  0  0  0  0  0  0  0  0  0  0
   11.4361   -0.1726   25.2338 H   0  0  0  0  0  0  0  0  0  0  0  0
    4.4064    1.9744   17.4453 H   0  0  0  0  0  0  0  0  0  0  0  0
    8.9221   -0.1995   25.4231 H   0  0  0  0  0  0  0  0  0  0  0  0
   10.0642   -2.2347   21.8253 H   0  0  0  0  0  0  0  0  0  0  0  0
    8.6902   -2.3588   26.5805 H   0  0  0  0  0  0  0  0  0  0  0  0
    9.9254   -4.3921   22.9961 H   0  0  0  0  0  0  0  0  0  0  0  0
   15.2326    1.4907   24.1414 H   0  0  0  0  0  0  0  0  0  0  0  0
   11.6318    2.9303   22.2615 H   0  0  0  0  0  0  0  0  0  0  0  0
    8.8711   -5.6964   27.3038 H   0  0  0  0  0  0  0  0  0  0  0  0
    7.8758   -4.2402   26.9923 H   0  0  0  0  0  0  0  0  0  0  0  0
    9.5894   -4.0716   27.4566 H   0  0  0  0  0  0  0  0  0  0  0  0
    9.3974    1.2912   24.5523 H   0  0  0  0  0  0  0  0  0  0  0  0
    9.5159    2.2168   23.0553 H   0  0  0  0  0  0  0  0  0  0  0  0
    6.8044    0.4388   16.8592 H   0  0  0  0  0  0  0  0  0  0  0  0
    8.2409   -1.5618   21.0967 H   0  0  0  0  0  0  0  0  0  0  0  0
  1  2  1  0  0  0  0
  1  4  2  0  0  0  0
  2  6  2  0  0  0  0
  3  5  2  0  0  0  0
  3 11  1  0  0  0  0
  4 13  1  0  0  0  0
  5 14  1  0  0  0  0
  6 15  1  0  0  0  0
  7  9  2  0  0  0  0
  7 16  1  0  0  0  0
  8 10  1  0  0  0  0
  8 16  2  0  0  0  0
  9 17  1  0  0  0  0
 10 17  2  0  0  0  0
 11 18  2  0  0  0  0
 12 14  2  0  0  0  0
 12 18  1  0  0  0  0
 13 15  2  0  0  0  0
 13 19  1  0  0  0  0
 14 22  1  0  0  0  0
 15 24  1  0  0  0  0
 16 26  1  0  0  0  0
 17 28  1  0  0  0  0
 18 29  1  0  0  0  0
 19 23  2  0  0  0  0
 19 25  1  0  0  0  0
 20 25  1  0  0  0  0
 20 26  1  0  0  0  0
 20 27  2  0  0  0  0
 21 28  1  0  0  0  0
 22 26  1  0  0  0  0
 23 24  1  0  0  0  0
  1 30  1  0  0  0  0
  2 31  1  0  0  0  0
  3 32  1  0  0  0  0
  4 33  1  0  0  0  0
  5 34  1  0  0  0  0
  6 35  1  0  0  0  0
  7 36  1  0  0  0  0
  8 37  1  0  0  0  0
  9 38  1  0  0  0  0
 10 39  1  0  0  0  0
 11 40  1  0  0  0  0
 12 41  1  0  0  0  0
 21 42  1  0  0  0  0
 21 43  1  0  0  0  0
 21 44  1  0  0  0  0
 22 45  1  0  0  0  0
 22 46  1  0  0  0  0
 24 47  1  0  0  0  0
 25 48  1  0  0  0  0
M  END
> <clash_score>
0

> <docking_score>
-6.881072521209717

> <overlap_score>
0.9730234742164612

$$$$
BENZO_77_1
  -OEChem-08222022163D

 58 62  0     0  0  0  0  0  0999 V2000
   14.1526    1.4694   24.0176 C   0  0  0  0  0  0  0  0  0  0  0  0
    4.2750    1.7050   20.8490 C   0  0  0  0  0  0  0  0  0  0  0  0
   13.3741    0.8121   24.9701 C   0  0  0  0  0  0  0  0  0  0  0  0
   13.5446    2.0802   22.9208 C   0  0  0  0  0  0  0  0  0  0  0  0
    3.9160    2.0630   19.5520 C   0  0  0  0  0  0  0  0  0  0  0  0
    5.4210    0.9600   21.0930 C   0  0  0  0  0  0  0  0  0  0  0  0
   11.9875    0.7654   24.8259 C   0  0  0  0  0  0  0  0  0  0  0  0
   12.1580    2.0335   22.7765 C   0  0  0  0  0  0  0  0  0  0  0  0
    4.6890    1.6810   18.4640 C   0  0  0  0  0  0  0  0  0  0  0  0
    8.9960   -2.3380   25.5320 C   0  0  0  0  0  0  0  0  0  0  0  0
    9.6730   -3.4710   23.5300 C   0  0  0  0  0  0  0  0  0  0  0  0
    9.0720   -1.1280   24.8640 C   0  0  0  0  0  0  0  0  0  0  0  0
    9.7200   -2.2600   22.8630 C   0  0  0  0  0  0  0  0  0  0  0  0
    6.1790    0.5730   19.9990 C   0  0  0  0  0  0  0  0  0  0  0  0
   11.3794    1.3761   23.7290 C   0  0  0  0  0  0  0  0  0  0  0  0
    5.8300    0.9190   18.6970 C   0  0  0  0  0  0  0  0  0  0  0  0
    9.3070   -3.5340   24.8780 C   0  0  0  0  0  0  0  0  0  0  0  0
    9.3350   -1.0880   23.5010 C   0  0  0  0  0  0  0  0  0  0  0  0
    7.3170   -0.1610   19.8550 C   0  0  0  0  0  0  0  0  0  0  0  0
    8.3597   -5.0073   26.6307 C   0  0  0  0  0  0  0  0  0  0  0  0
    9.0420    0.3700   21.5280 C   0  0  0  0  0  0  0  0  0  0  0  0
    8.4720   -6.3981   27.2296 C   0  0  0  0  0  0  0  0  0  0  0  0
    9.9252   -6.7605   27.4803 C   0  0  0  0  0  0  0  0  0  0  0  0
   10.7833   -6.6094   26.2282 C   0  0  0  0  0  0  0  0  0  0  0  0
   10.0539   -5.9099   25.0823 C   0  0  0  0  0  0  0  0  0  0  0  0
    9.8870    1.3260   23.5730 C   0  0  0  0  0  0  0  0  0  0  0  0
    7.6390   -0.2680   18.5410 N   0  0  0  0  0  0  0  0  0  0  0  0
    6.7580    0.3810   17.8350 N   0  0  0  0  0  0  0  0  0  0  0  0
    9.2529   -4.7797   25.5644 N   0  0  0  0  0  0  0  0  0  0  0  0
    8.1890   -0.7180   20.8700 N   0  0  0  0  0  0  0  0  0  0  0  0
    9.4560    0.1560   22.8130 N   0  0  0  0  0  0  0  0  0  0  0  0
    7.4954   -4.2356   27.0449 O   0  0  0  0  0  0  0  0  0  0  0  0
    9.2690    1.4140   20.9380 O   0  0  0  0  0  0  0  0  0  0  0  0
   15.2322    1.5068   24.1308 H   0  0  0  0  0  0  0  0  0  0  0  0
    3.6468    2.0173   21.6825 H   0  0  0  0  0  0  0  0  0  0  0  0
   13.8473    0.3374   25.8248 H   0  0  0  0  0  0  0  0  0  0  0  0
   14.1503    2.5930   22.1795 H   0  0  0  0  0  0  0  0  0  0  0  0
    3.0153    2.6527   19.3907 H   0  0  0  0  0  0  0  0  0  0  0  0
    5.7015    0.6980   22.1071 H   0  0  0  0  0  0  0  0  0  0  0  0
   11.3889    0.2508   25.5729 H   0  0  0  0  0  0  0  0  0  0  0  0
   11.6930    2.5120   21.9187 H   0  0  0  0  0  0  0  0  0  0  0  0
    4.4064    1.9744   17.4453 H   0  0  0  0  0  0  0  0  0  0  0  0
    8.6895   -2.3529   26.5807 H   0  0  0  0  0  0  0  0  0  0  0  0
    9.9262   -4.3897   22.9916 H   0  0  0  0  0  0  0  0  0  0  0  0
    8.9224   -0.1998   25.4238 H   0  0  0  0  0  0  0  0  0  0  0  0
   10.0649   -2.2343   21.8258 H   0  0  0  0  0  0  0  0  0  0  0  0
    7.9325   -6.4148   28.1641 H   0  0  0  0  0  0  0  0  0  0  0  0
    8.0254   -7.0920   26.5333 H   0  0  0  0  0  0  0  0  0  0  0  0
   10.3387   -6.1267   28.2923 H   0  0  0  0  0  0  0  0  0  0  0  0
    9.9904   -7.8023   27.8537 H   0  0  0  0  0  0  0  0  0  0  0  0
   11.7037   -6.0404   26.4771 H   0  0  0  0  0  0  0  0  0  0  0  0
   11.1411   -7.6068   25.8918 H   0  0  0  0  0  0  0  0  0  0  0  0
   10.7782   -5.5162   24.3756 H   0  0  0  0  0  0  0  0  0  0  0  0
    9.4042   -6.6189   24.5807 H   0  0  0  0  0  0  0  0  0  0  0  0
    9.3974    1.2912   24.5523 H   0  0  0  0  0  0  0  0  0  0  0  0
    9.5159    2.2168   23.0553 H   0  0  0  0  0  0  0  0  0  0  0  0
    6.8044    0.4388   16.8592 H   0  0  0  0  0  0  0  0  0  0  0  0
    8.2565   -1.5523   21.1108 H   0  0  0  0  0  0  0  0  0  0  0  0
  1  3  1  0  0  0  0
  1  4  2  0  0  0  0
  2  5  1  0  0  0  0
  2  6  2  0  0  0  0
  3  7  2  0  0  0  0
  4  8  1  0  0  0  0
  5  9  2  0  0  0  0
  6 14  1  0  0  0  0
  7 15  1  0  0  0  0
  8 15  2  0  0  0  0
  9 16  1  0  0  0  0
 10 12  2  0  0  0  0
 10 17  1  0  0  0  0
 11 13  1  0  0  0  0
 11 17  2  0  0  0  0
 12 18  1  0  0  0  0
 13 18  2  0  0  0  0
 14 16  2  0  0  0  0
 14 19  1  0  0  0  0
 15 26  1  0  0  0  0
 16 28  1  0  0  0  0
 17 29  1  0  0  0  0
 18 31  1  0  0  0  0
 19 27  2  0  0  0  0
 19 30  1  0  0  0  0
 20 22  1  0  0  0  0
 20 29  1  0  0  0  0
 20 32  2  0  0  0  0
 21 30  1  0  0  0  0
 21 31  1  0  0  0  0
 21 33  2  0  0  0  0
 22 23  1  0  0  0  0
 23 24  1  0  0  0  0
 24 25  1  0  0  0  0
 25 29  1  0  0  0  0
 26 31  1  0  0  0  0
 27 28  1  0  0  0  0
  1 34  1  0  0  0  0
  2 35  1  0  0  0  0
  3 36  1  0  0  0  0
  4 37  1  0  0  0  0
  5 38  1  0  0  0  0
  6 39  1  0  0  0  0
  7 40  1  0  0  0  0
  8 41  1  0  0  0  0
  9 42  1  0  0  0  0
 10 43  1  0  0  0  0
 11 44  1  0  0  0  0
 12 45  1  0  0  0  0
 13 46  1  0  0  0  0
 22 47  1  0  0  0  0
 22 48  1  0  0  0  0
 23 49  1  0  0  0  0
 23 50  1  0  0  0  0
 24 51  1  0  0  0  0
 24 52  1  0  0  0  0
 25 53  1  0  0  0  0
 25 54  1  0  0  0  0
 26 55  1  0  0  0  0
 26 56  1  0  0  0  0
 28 57  1  0  0  0  0
 30 58  1  0  0  0  0
M  END
> <clash_score>
0.7790751876189459

> <docking_score>
-7.103707790374756

> <overlap_score>
1.004102349281311

$$$$
BENZO_76_1
  -OEChem-08222022163D

 55 59  0     0  0  0  0  0  0999 V2000
    4.2750    1.7050   20.8490 C   0  0  0  0  0  0  0  0  0  0  0  0
    3.9160    2.0630   19.5520 C   0  0  0  0  0  0  0  0  0  0  0  0
    5.4210    0.9600   21.0930 C   0  0  0  0  0  0  0  0  0  0  0  0
    4.6890    1.6810   18.4640 C   0  0  0  0  0  0  0  0  0  0  0  0
    8.9960   -2.3380   25.5320 C   0  0  0  0  0  0  0  0  0  0  0  0
    9.6730   -3.4710   23.5300 C   0  0  0  0  0  0  0  0  0  0  0  0
    9.0720   -1.1280   24.8640 C   0  0  0  0  0  0  0  0  0  0  0  0
    9.7200   -2.2600   22.8630 C   0  0  0  0  0  0  0  0  0  0  0  0
   12.2913    1.4279   22.6355 C   0  0  0  0  0  0  0  0  0  0  0  0
   13.6024    1.4662   23.0564 C   0  0  0  0  0  0  0  0  0  0  0  0
   12.0284    1.3764   24.9443 C   0  0  0  0  0  0  0  0  0  0  0  0
    6.1790    0.5730   19.9990 C   0  0  0  0  0  0  0  0  0  0  0  0
   11.3794    1.3761   23.7290 C   0  0  0  0  0  0  0  0  0  0  0  0
    5.8300    0.9190   18.6970 C   0  0  0  0  0  0  0  0  0  0  0  0
    9.3070   -3.5340   24.8780 C   0  0  0  0  0  0  0  0  0  0  0  0
    9.3350   -1.0880   23.5010 C   0  0  0  0  0  0  0  0  0  0  0  0
    7.3170   -0.1610   19.8550 C   0  0  0  0  0  0  0  0  0  0  0  0
    8.3596   -5.0074   26.6308 C   0  0  0  0  0  0  0  0  0  0  0  0
    9.0420    0.3700   21.5280 C   0  0  0  0  0  0  0  0  0  0  0  0
    8.4579   -6.4047   27.2169 C   0  0  0  0  0  0  0  0  0  0  0  0
    8.4717   -7.4504   26.1159 C   0  0  0  0  0  0  0  0  0  0  0  0
    9.5645   -7.1893   25.0842 C   0  0  0  0  0  0  0  0  0  0  0  0
   10.2327   -5.8252   25.2501 C   0  0  0  0  0  0  0  0  0  0  0  0
    9.8870    1.3260   23.5730 C   0  0  0  0  0  0  0  0  0  0  0  0
    7.6390   -0.2680   18.5410 N   0  0  0  0  0  0  0  0  0  0  0  0
    6.7580    0.3810   17.8350 N   0  0  0  0  0  0  0  0  0  0  0  0
    9.2529   -4.7798   25.5645 N   0  0  0  0  0  0  0  0  0  0  0  0
    8.1890   -0.7180   20.8700 N   0  0  0  0  0  0  0  0  0  0  0  0
    9.4560    0.1560   22.8130 N   0  0  0  0  0  0  0  0  0  0  0  0
    7.5990   -4.1865   27.1424 O   0  0  0  0  0  0  0  0  0  0  0  0
    9.2690    1.4140   20.9380 O   0  0  0  0  0  0  0  0  0  0  0  0
   13.7301    1.4394   24.7638 S   0  0  0  0  0  0  0  0  0  0  0  0
    3.6468    2.0173   21.6825 H   0  0  0  0  0  0  0  0  0  0  0  0
    3.0153    2.6527   19.3907 H   0  0  0  0  0  0  0  0  0  0  0  0
    5.7015    0.6980   22.1071 H   0  0  0  0  0  0  0  0  0  0  0  0
    4.4064    1.9744   17.4453 H   0  0  0  0  0  0  0  0  0  0  0  0
    8.6895   -2.3529   26.5807 H   0  0  0  0  0  0  0  0  0  0  0  0
    9.9262   -4.3897   22.9916 H   0  0  0  0  0  0  0  0  0  0  0  0
    8.9224   -0.1998   25.4238 H   0  0  0  0  0  0  0  0  0  0  0  0
   10.0649   -2.2343   21.8258 H   0  0  0  0  0  0  0  0  0  0  0  0
   12.0045    1.4365   21.5915 H   0  0  0  0  0  0  0  0  0  0  0  0
   14.4914    1.5078   22.4431 H   0  0  0  0  0  0  0  0  0  0  0  0
   11.5886    1.3416   25.9314 H   0  0  0  0  0  0  0  0  0  0  0  0
    9.3706   -6.4745   27.7885 H   0  0  0  0  0  0  0  0  0  0  0  0
    7.6055   -6.5497   27.8636 H   0  0  0  0  0  0  0  0  0  0  0  0
    8.6095   -8.4604   26.5550 H   0  0  0  0  0  0  0  0  0  0  0  0
    7.4835   -7.4763   25.6142 H   0  0  0  0  0  0  0  0  0  0  0  0
   10.3359   -7.9850   25.1531 H   0  0  0  0  0  0  0  0  0  0  0  0
    9.1458   -7.2796   24.0582 H   0  0  0  0  0  0  0  0  0  0  0  0
   10.9408   -5.8640   26.0725 H   0  0  0  0  0  0  0  0  0  0  0  0
   10.7521   -5.5631   24.3347 H   0  0  0  0  0  0  0  0  0  0  0  0
    9.3974    1.2912   24.5523 H   0  0  0  0  0  0  0  0  0  0  0  0
    9.5159    2.2168   23.0553 H   0  0  0  0  0  0  0  0  0  0  0  0
    6.8044    0.4388   16.8592 H   0  0  0  0  0  0  0  0  0  0  0  0
    8.2565   -1.5523   21.1108 H   0  0  0  0  0  0  0  0  0  0  0  0
  1  2  1  0  0  0  0
  1  3  2  0  0  0  0
  2  4  2  0  0  0  0
  3 12  1  0  0  0  0
  4 14  1  0  0  0  0
  5  7  2  0  0  0  0
  5 15  1  0  0  0  0
  6  8  1  0  0  0  0
  6 15  2  0  0  0  0
  7 16  1  0  0  0  0
  8 16  2  0  0  0  0
  9 10  2  0  0  0  0
  9 13  1  0  0  0  0
 10 32  1  0  0  0  0
 11 13  2  0  0  0  0
 11 32  1  0  0  0  0
 12 14  2  0  0  0  0
 12 17  1  0  0  0  0
 13 24  1  0  0  0  0
 14 26  1  0  0  0  0
 15 27  1  0  0  0  0
 16 29  1  0  0  0  0
 17 25  2  0  0  0  0
 17 28  1  0  0  0  0
 18 20  1  0  0  0  0
 18 27  1  0  0  0  0
 18 30  2  0  0  0  0
 19 28  1  0  0  0  0
 19 29  1  0  0  0  0
 19 31  2  0  0  0  0
 20 21  1  0  0  0  0
 21 22  1  0  0  0  0
 22 23  1  0  0  0  0
 23 27  1  0  0  0  0
 24 29  1  0  0  0  0
 25 26  1  0  0  0  0
  1 33  1  0  0  0  0
  2 34  1  0  0  0  0
  3 35  1  0  0  0  0
  4 36  1  0  0  0  0
  5 37  1  0  0  0  0
  6 38  1  0  0  0  0
  7 39  1  0  0  0  0
  8 40  1  0  0  0  0
  9 41  1  0  0  0  0
 10 42  1  0  0  0  0
 11 43  1  0  0  0  0
 20 44  1  0  0  0  0
 20 45  1  0  0  0  0
 21 46  1  0  0  0  0
 21 47  1  0  0  0  0
 22 48  1  0  0  0  0
 22 49  1  0  0  0  0
 23 50  1  0  0  0  0
 23 51  1  0  0  0  0
 24 52  1  0  0  0  0
 24 53  1  0  0  0  0
 26 54  1  0  0  0  0
 28 55  1  0  0  0  0
M  END
> <clash_score>
0.6354466317061015

> <docking_score>
-7.019020080566406

> <overlap_score>
0.9878003001213074

$$$$
BENZO_81_1
  -OEChem-08222022163D

 57 61  0     0  0  0  0  0  0999 V2000
   14.1526    1.4694   24.0176 C   0  0  0  0  0  0  0  0  0  0  0  0
    4.2750    1.7050   20.8490 C   0  0  0  0  0  0  0  0  0  0  0  0
   13.3741    0.8121   24.9701 C   0  0  0  0  0  0  0  0  0  0  0  0
   13.5446    2.0802   22.9208 C   0  0  0  0  0  0  0  0  0  0  0  0
    3.9160    2.0630   19.5520 C   0  0  0  0  0  0  0  0  0  0  0  0
    5.4210    0.9600   21.0930 C   0  0  0  0  0  0  0  0  0  0  0  0
   11.9875    0.7654   24.8258 C   0  0  0  0  0  0  0  0  0  0  0  0
   12.1580    2.0335   22.7765 C   0  0  0  0  0  0  0  0  0  0  0  0
    4.6890    1.6810   18.4640 C   0  0  0  0  0  0  0  0  0  0  0  0
    8.9960   -2.3380   25.5320 C   0  0  0  0  0  0  0  0  0  0  0  0
    9.6730   -3.4710   23.5300 C   0  0  0  0  0  0  0  0  0  0  0  0
    9.0720   -1.1280   24.8640 C   0  0  0  0  0  0  0  0  0  0  0  0
    9.7200   -2.2600   22.8630 C   0  0  0  0  0  0  0  0  0  0  0  0
    6.1790    0.5730   19.9990 C   0  0  0  0  0  0  0  0  0  0  0  0
   11.3794    1.3761   23.7290 C   0  0  0  0  0  0  0  0  0  0  0  0
    5.8300    0.9190   18.6970 C   0  0  0  0  0  0  0  0  0  0  0  0
    9.3070   -3.5340   24.8780 C   0  0  0  0  0  0  0  0  0  0  0  0
    9.3350   -1.0880   23.5010 C   0  0  0  0  0  0  0  0  0  0  0  0
    7.3170   -0.1610   19.8550 C   0  0  0  0  0  0  0  0  0  0  0  0
    9.0420    0.3700   21.5280 C   0  0  0  0  0  0  0  0  0  0  0  0
   10.0771   -5.0255   26.7193 C   0  0  0  0  0  0  0  0  0  0  0  0
    8.0927   -5.6195   25.4071 C   0  0  0  0  0  0  0  0  0  0  0  0
    9.1933   -4.9427   27.9592 C   0  0  0  0  0  0  0  0  0  0  0  0
    7.2756   -5.5290   26.6967 C   0  0  0  0  0  0  0  0  0  0  0  0
    9.8870    1.3260   23.5730 C   0  0  0  0  0  0  0  0  0  0  0  0
    7.6390   -0.2680   18.5410 N   0  0  0  0  0  0  0  0  0  0  0  0
    6.7580    0.3810   17.8350 N   0  0  0  0  0  0  0  0  0  0  0  0
    9.2563   -4.7368   25.5413 N   0  0  0  0  0  0  0  0  0  0  0  0
    8.1890   -0.7180   20.8700 N   0  0  0  0  0  0  0  0  0  0  0  0
    9.4560    0.1560   22.8130 N   0  0  0  0  0  0  0  0  0  0  0  0
    9.2690    1.4140   20.9380 O   0  0  0  0  0  0  0  0  0  0  0  0
    8.0883   -5.8459   27.8325 O   0  0  0  0  0  0  0  0  0  0  0  0
   15.2322    1.5068   24.1308 H   0  0  0  0  0  0  0  0  0  0  0  0
    3.6468    2.0173   21.6825 H   0  0  0  0  0  0  0  0  0  0  0  0
   13.8473    0.3374   25.8248 H   0  0  0  0  0  0  0  0  0  0  0  0
   14.1503    2.5930   22.1795 H   0  0  0  0  0  0  0  0  0  0  0  0
    3.0153    2.6527   19.3907 H   0  0  0  0  0  0  0  0  0  0  0  0
    5.7015    0.6980   22.1071 H   0  0  0  0  0  0  0  0  0  0  0  0
   11.3889    0.2508   25.5729 H   0  0  0  0  0  0  0  0  0  0  0  0
   11.6930    2.5120   21.9187 H   0  0  0  0  0  0  0  0  0  0  0  0
    4.4064    1.9744   17.4453 H   0  0  0  0  0  0  0  0  0  0  0  0
    8.6905   -2.3533   26.5810 H   0  0  0  0  0  0  0  0  0  0  0  0
    9.9266   -4.3896   22.9917 H   0  0  0  0  0  0  0  0  0  0  0  0
    8.9233   -0.1992   25.4232 H   0  0  0  0  0  0  0  0  0  0  0  0
   10.0650   -2.2330   21.8256 H   0  0  0  0  0  0  0  0  0  0  0  0
   10.8985   -4.3115   26.8085 H   0  0  0  0  0  0  0  0  0  0  0  0
   10.4915   -6.0334   26.6323 H   0  0  0  0  0  0  0  0  0  0  0  0
    8.4327   -6.6456   25.2620 H   0  0  0  0  0  0  0  0  0  0  0  0
    7.4725   -5.3241   24.5619 H   0  0  0  0  0  0  0  0  0  0  0  0
    9.7636   -5.2398   28.8419 H   0  0  0  0  0  0  0  0  0  0  0  0
    8.8236   -3.9268   28.1248 H   0  0  0  0  0  0  0  0  0  0  0  0
    6.8339   -4.5337   26.8232 H   0  0  0  0  0  0  0  0  0  0  0  0
    6.4550   -6.2521   26.6643 H   0  0  0  0  0  0  0  0  0  0  0  0
    9.3974    1.2912   24.5523 H   0  0  0  0  0  0  0  0  0  0  0  0
    9.5159    2.2168   23.0553 H   0  0  0  0  0  0  0  0  0  0  0  0
    6.8044    0.4388   16.8592 H   0  0  0  0  0  0  0  0  0  0  0  0
    8.2565   -1.5523   21.1108 H   0  0  0  0  0  0  0  0  0  0  0  0
  1  3  1  0  0  0  0
  1  4  2  0  0  0  0
  2  5  1  0  0  0  0
  2  6  2  0  0  0  0
  3  7  2  0  0  0  0
  4  8  1  0  0  0  0
  5  9  2  0  0  0  0
  6 14  1  0  0  0  0
  7 15  1  0  0  0  0
  8 15  2  0  0  0  0
  9 16  1  0  0  0  0
 10 12  2  0  0  0  0
 10 17  1  0  0  0  0
 11 13  1  0  0  0  0
 11 17  2  0  0  0  0
 12 18  1  0  0  0  0
 13 18  2  0  0  0  0
 14 16  2  0  0  0  0
 14 19  1  0  0  0  0
 15 25  1  0  0  0  0
 16 27  1  0  0  0  0
 17 28  1  0  0  0  0
 18 30  1  0  0  0  0
 19 26  2  0  0  0  0
 19 29  1  0  0  0  0
 20 29  1  0  0  0  0
 20 30  1  0  0  0  0
 20 31  2  0  0  0  0
 21 23  1  0  0  0  0
 21 28  1  0  0  0  0
 22 24  1  0  0  0  0
 22 28  1  0  0  0  0
 23 32  1  0  0  0  0
 24 32  1  0  0  0  0
 25 30  1  0  0  0  0
 26 27  1  0  0  0  0
  1 33  1  0  0  0  0
  2 34  1  0  0  0  0
  3 35  1  0  0  0  0
  4 36  1  0  0  0  0
  5 37  1  0  0  0  0
  6 38  1  0  0  0  0
  7 39  1  0  0  0  0
  8 40  1  0  0  0  0
  9 41  1  0  0  0  0
 10 42  1  0  0  0  0
 11 43  1  0  0  0  0
 12 44  1  0  0  0  0
 13 45  1  0  0  0  0
 21 46  1  0  0  0  0
 21 47  1  0  0  0  0
 22 48  1  0  0  0  0
 22 49  1  0  0  0  0
 23 50  1  0  0  0  0
 23 51  1  0  0  0  0
 24 52  1  0  0  0  0
 24 53  1  0  0  0  0
 25 54  1  0  0  0  0
 25 55  1  0  0  0  0
 27 56  1  0  0  0  0
 29 57  1  0  0  0  0
M  END
> <clash_score>
0

> <docking_score>
-8.084836959838867

> <overlap_score>
0.990332305431366

$$$$
BENZO_78_1
  -OEChem-08222022163D

 58 62  0     0  0  0  0  0  0999 V2000
    4.2750    1.7050   20.8490 C   0  0  0  0  0  0  0  0  0  0  0  0
    3.9160    2.0630   19.5520 C   0  0  0  0  0  0  0  0  0  0  0  0
   13.4006    0.5725   24.7805 C   0  0  0  0  0  0  0  0  0  0  0  0
    5.4210    0.9600   21.0930 C   0  0  0  0  0  0  0  0  0  0  0  0
   12.0141    0.5273   24.6359 C   0  0  0  0  0  0  0  0  0  0  0  0
    4.6890    1.6810   18.4640 C   0  0  0  0  0  0  0  0  0  0  0  0
    8.9960   -2.3380   25.5320 C   0  0  0  0  0  0  0  0  0  0  0  0
    9.6730   -3.4710   23.5300 C   0  0  0  0  0  0  0  0  0  0  0  0
    9.0720   -1.1280   24.8640 C   0  0  0  0  0  0  0  0  0  0  0  0
    9.7200   -2.2600   22.8630 C   0  0  0  0  0  0  0  0  0  0  0  0
   14.1526    1.4666   24.0184 C   0  0  0  0  0  0  0  0  0  0  0  0
   12.1314    2.2702   22.9668 C   0  0  0  0  0  0  0  0  0  0  0  0
    6.1790    0.5730   19.9990 C   0  0  0  0  0  0  0  0  0  0  0  0
   11.3794    1.3761   23.7290 C   0  0  0  0  0  0  0  0  0  0  0  0
    5.8300    0.9190   18.6970 C   0  0  0  0  0  0  0  0  0  0  0  0
    9.3070   -3.5340   24.8780 C   0  0  0  0  0  0  0  0  0  0  0  0
    9.3350   -1.0880   23.5010 C   0  0  0  0  0  0  0  0  0  0  0  0
   13.5180    2.3154   23.1115 C   0  0  0  0  0  0  0  0  0  0  0  0
    7.3170   -0.1610   19.8550 C   0  0  0  0  0  0  0  0  0  0  0  0
    8.3597   -5.0073   26.6307 C   0  0  0  0  0  0  0  0  0  0  0  0
    9.0420    0.3700   21.5280 C   0  0  0  0  0  0  0  0  0  0  0  0
    8.4720   -6.3981   27.2296 C   0  0  0  0  0  0  0  0  0  0  0  0
    9.9252   -6.7605   27.4803 C   0  0  0  0  0  0  0  0  0  0  0  0
   10.7833   -6.6094   26.2282 C   0  0  0  0  0  0  0  0  0  0  0  0
   10.0539   -5.9099   25.0823 C   0  0  0  0  0  0  0  0  0  0  0  0
    9.8870    1.3260   23.5730 C   0  0  0  0  0  0  0  0  0  0  0  0
    7.6390   -0.2680   18.5410 N   0  0  0  0  0  0  0  0  0  0  0  0
    6.7580    0.3810   17.8350 N   0  0  0  0  0  0  0  0  0  0  0  0
    9.2529   -4.7797   25.5644 N   0  0  0  0  0  0  0  0  0  0  0  0
    8.1890   -0.7180   20.8700 N   0  0  0  0  0  0  0  0  0  0  0  0
    9.4560    0.1560   22.8130 N   0  0  0  0  0  0  0  0  0  0  0  0
    7.4954   -4.2356   27.0449 O   0  0  0  0  0  0  0  0  0  0  0  0
    9.2690    1.4140   20.9380 O   0  0  0  0  0  0  0  0  0  0  0  0
   14.4463    3.4175   22.1707 Cl  0  0  0  0  0  0  0  0  0  0  0  0
    3.6468    2.0173   21.6825 H   0  0  0  0  0  0  0  0  0  0  0  0
    3.0153    2.6527   19.3907 H   0  0  0  0  0  0  0  0  0  0  0  0
   13.8945   -0.0888   25.4867 H   0  0  0  0  0  0  0  0  0  0  0  0
    5.7015    0.6980   22.1071 H   0  0  0  0  0  0  0  0  0  0  0  0
   11.4361   -0.1726   25.2338 H   0  0  0  0  0  0  0  0  0  0  0  0
    4.4064    1.9744   17.4453 H   0  0  0  0  0  0  0  0  0  0  0  0
    8.6895   -2.3529   26.5807 H   0  0  0  0  0  0  0  0  0  0  0  0
    9.9262   -4.3897   22.9916 H   0  0  0  0  0  0  0  0  0  0  0  0
    8.9224   -0.1998   25.4238 H   0  0  0  0  0  0  0  0  0  0  0  0
   10.0649   -2.2343   21.8258 H   0  0  0  0  0  0  0  0  0  0  0  0
   15.2326    1.4907   24.1414 H   0  0  0  0  0  0  0  0  0  0  0  0
   11.6318    2.9303   22.2615 H   0  0  0  0  0  0  0  0  0  0  0  0
    7.9325   -6.4148   28.1641 H   0  0  0  0  0  0  0  0  0  0  0  0
    8.0254   -7.0920   26.5333 H   0  0  0  0  0  0  0  0  0  0  0  0
   10.3387   -6.1267   28.2923 H   0  0  0  0  0  0  0  0  0  0  0  0
    9.9904   -7.8023   27.8537 H   0  0  0  0  0  0  0  0  0  0  0  0
   11.7037   -6.0404   26.4771 H   0  0  0  0  0  0  0  0  0  0  0  0
   11.1411   -7.6068   25.8918 H   0  0  0  0  0  0  0  0  0  0  0  0
   10.7782   -5.5162   24.3756 H   0  0  0  0  0  0  0  0  0  0  0  0
    9.4042   -6.6189   24.5807 H   0  0  0  0  0  0  0  0  0  0  0  0
    9.3974    1.2912   24.5523 H   0  0  0  0  0  0  0  0  0  0  0  0
    9.5159    2.2168   23.0553 H   0  0  0  0  0  0  0  0  0  0  0  0
    6.8044    0.4388   16.8592 H   0  0  0  0  0  0  0  0  0  0  0  0
    8.2565   -1.5523   21.1108 H   0  0  0  0  0  0  0  0  0  0  0  0
  1  2  1  0  0  0  0
  1  4  2  0  0  0  0
  2  6  2  0  0  0  0
  3  5  2  0  0  0  0
  3 11  1  0  0  0  0
  4 13  1  0  0  0  0
  5 14  1  0  0  0  0
  6 15  1  0  0  0  0
  7  9  2  0  0  0  0
  7 16  1  0  0  0  0
  8 10  1  0  0  0  0
  8 16  2  0  0  0  0
  9 17  1  0  0  0  0
 10 17  2  0  0  0  0
 11 18  2  0  0  0  0
 12 14  2  0  0  0  0
 12 18  1  0  0  0  0
 13 15  2  0  0  0  0
 13 19  1  0  0  0  0
 14 26  1  0  0  0  0
 15 28  1  0  0  0  0
 16 29  1  0  0  0  0
 17 31  1  0  0  0  0
 18 34  1  0  0  0  0
 19 27  2  0  0  0  0
 19 30  1  0  0  0  0
 20 22  1  0  0  0  0
 20 29  1  0  0  0  0
 20 32  2  0  0  0  0
 21 30  1  0  0  0  0
 21 31  1  0  0  0  0
 21 33  2  0  0  0  0
 22 23  1  0  0  0  0
 23 24  1  0  0  0  0
 24 25  1  0  0  0  0
 25 29  1  0  0  0  0
 26 31  1  0  0  0  0
 27 28  1  0  0  0  0
  1 35  1  0  0  0  0
  2 36  1  0  0  0  0
  3 37  1  0  0  0  0
  4 38  1  0  0  0  0
  5 39  1  0  0  0  0
  6 40  1  0  0  0  0
  7 41  1  0  0  0  0
  8 42  1  0  0  0  0
  9 43  1  0  0  0  0
 10 44  1  0  0  0  0
 11 45  1  0  0  0  0
 12 46  1  0  0  0  0
 22 47  1  0  0  0  0
 22 48  1  0  0  0  0
 23 49  1  0  0  0  0
 23 50  1  0  0  0  0
 24 51  1  0  0  0  0
 24 52  1  0  0  0  0
 25 53  1  0  0  0  0
 25 54  1  0  0  0  0
 26 55  1  0  0  0  0
 26 56  1  0  0  0  0
 28 57  1  0  0  0  0
 30 58  1  0  0  0  0
M  END
> <clash_score>
0.7790751876189459

> <docking_score>
-6.240699768066406

> <overlap_score>
1.0151578187942505

$$$$
BENZO_79_1
  -OEChem-08222022163D

 58 62  0     0  0  0  0  0  0999 V2000
    4.2750    1.7050   20.8490 C   0  0  0  0  0  0  0  0  0  0  0  0
    3.9160    2.0630   19.5520 C   0  0  0  0  0  0  0  0  0  0  0  0
    5.4210    0.9600   21.0930 C   0  0  0  0  0  0  0  0  0  0  0  0
    4.6890    1.6810   18.4640 C   0  0  0  0  0  0  0  0  0  0  0  0
    8.9960   -2.3380   25.5320 C   0  0  0  0  0  0  0  0  0  0  0  0
    9.6730   -3.4710   23.5300 C   0  0  0  0  0  0  0  0  0  0  0  0
    9.0720   -1.1280   24.8640 C   0  0  0  0  0  0  0  0  0  0  0  0
    9.7200   -2.2600   22.8630 C   0  0  0  0  0  0  0  0  0  0  0  0
   12.1233    1.3811   24.9242 C   0  0  0  0  0  0  0  0  0  0  0  0
   12.3262    1.4247   22.7351 C   0  0  0  0  0  0  0  0  0  0  0  0
    6.1790    0.5730   19.9990 C   0  0  0  0  0  0  0  0  0  0  0  0
   11.3794    1.3761   23.7290 C   0  0  0  0  0  0  0  0  0  0  0  0
    5.8300    0.9190   18.6970 C   0  0  0  0  0  0  0  0  0  0  0  0
    9.3070   -3.5340   24.8780 C   0  0  0  0  0  0  0  0  0  0  0  0
    9.3350   -1.0880   23.5010 C   0  0  0  0  0  0  0  0  0  0  0  0
    7.3170   -0.1610   19.8550 C   0  0  0  0  0  0  0  0  0  0  0  0
    8.3597   -5.0073   26.6307 C   0  0  0  0  0  0  0  0  0  0  0  0
    9.0420    0.3700   21.5280 C   0  0  0  0  0  0  0  0  0  0  0  0
    8.4720   -6.3981   27.2296 C   0  0  0  0  0  0  0  0  0  0  0  0
    9.9252   -6.7605   27.4803 C   0  0  0  0  0  0  0  0  0  0  0  0
   10.7833   -6.6094   26.2282 C   0  0  0  0  0  0  0  0  0  0  0  0
   10.0539   -5.9099   25.0823 C   0  0  0  0  0  0  0  0  0  0  0  0
   14.8305    1.5084   22.7418 C   0  0  0  0  0  0  0  0  0  0  0  0
    9.8870    1.3260   23.5730 C   0  0  0  0  0  0  0  0  0  0  0  0
   13.4410    1.4289   24.7112 N   0  0  0  0  0  0  0  0  0  0  0  0
    7.6390   -0.2680   18.5410 N   0  0  0  0  0  0  0  0  0  0  0  0
    6.7580    0.3810   17.8350 N   0  0  0  0  0  0  0  0  0  0  0  0
   13.5326    1.4543   23.3706 N   0  0  0  0  0  0  0  0  0  0  0  0
    9.2529   -4.7797   25.5644 N   0  0  0  0  0  0  0  0  0  0  0  0
    8.1890   -0.7180   20.8700 N   0  0  0  0  0  0  0  0  0  0  0  0
    9.4560    0.1560   22.8130 N   0  0  0  0  0  0  0  0  0  0  0  0
    7.4954   -4.2356   27.0449 O   0  0  0  0  0  0  0  0  0  0  0  0
    9.2690    1.4140   20.9380 O   0  0  0  0  0  0  0  0  0  0  0  0
    3.6468    2.0173   21.6825 H   0  0  0  0  0  0  0  0  0  0  0  0
    3.0153    2.6527   19.3907 H   0  0  0  0  0  0  0  0  0  0  0  0
    5.7015    0.6980   22.1071 H   0  0  0  0  0  0  0  0  0  0  0  0
    4.4064    1.9744   17.4453 H   0  0  0  0  0  0  0  0  0  0  0  0
    8.6895   -2.3529   26.5807 H   0  0  0  0  0  0  0  0  0  0  0  0
    9.9262   -4.3897   22.9916 H   0  0  0  0  0  0  0  0  0  0  0  0
    8.9224   -0.1998   25.4238 H   0  0  0  0  0  0  0  0  0  0  0  0
   10.0649   -2.2343   21.8258 H   0  0  0  0  0  0  0  0  0  0  0  0
   11.7624    1.3510   25.9426 H   0  0  0  0  0  0  0  0  0  0  0  0
   12.2462    1.4390   21.6566 H   0  0  0  0  0  0  0  0  0  0  0  0
    7.9325   -6.4148   28.1641 H   0  0  0  0  0  0  0  0  0  0  0  0
    8.0254   -7.0920   26.5333 H   0  0  0  0  0  0  0  0  0  0  0  0
   10.3387   -6.1267   28.2923 H   0  0  0  0  0  0  0  0  0  0  0  0
    9.9904   -7.8023   27.8537 H   0  0  0  0  0  0  0  0  0  0  0  0
   11.7037   -6.0404   26.4771 H   0  0  0  0  0  0  0  0  0  0  0  0
   11.1411   -7.6068   25.8918 H   0  0  0  0  0  0  0  0  0  0  0  0
   10.7782   -5.5162   24.3756 H   0  0  0  0  0  0  0  0  0  0  0  0
    9.4042   -6.6189   24.5807 H   0  0  0  0  0  0  0  0  0  0  0  0
   15.0990    2.5601   22.6124 H   0  0  0  0  0  0  0  0  0  0  0  0
   15.5636    1.0018   23.3756 H   0  0  0  0  0  0  0  0  0  0  0  0
   14.7842    1.0025   21.7733 H   0  0  0  0  0  0  0  0  0  0  0  0
    9.3974    1.2912   24.5523 H   0  0  0  0  0  0  0  0  0  0  0  0
    9.5159    2.2168   23.0553 H   0  0  0  0  0  0  0  0  0  0  0  0
    6.8044    0.4388   16.8592 H   0  0  0  0  0  0  0  0  0  0  0  0
    8.2565   -1.5523   21.1108 H   0  0  0  0  0  0  0  0  0  0  0  0
  1  2  1  0  0  0  0
  1  3  2  0  0  0  0
  2  4  2  0  0  0  0
  3 11  1  0  0  0  0
  4 13  1  0  0  0  0
  5  7  2  0  0  0  0
  5 14  1  0  0  0  0
  6  8  1  0  0  0  0
  6 14  2  0  0  0  0
  7 15  1  0  0  0  0
  8 15  2  0  0  0  0
  9 12  1  0  0  0  0
  9 25  2  0  0  0  0
 10 12  2  0  0  0  0
 10 28  1  0  0  0  0
 11 13  2  0  0  0  0
 11 16  1  0  0  0  0
 12 24  1  0  0  0  0
 13 27  1  0  0  0  0
 14 29  1  0  0  0  0
 15 31  1  0  0  0  0
 16 26  2  0  0  0  0
 16 30  1  0  0  0  0
 17 19  1  0  0  0  0
 17 29  1  0  0  0  0
 17 32  2  0  0  0  0
 18 30  1  0  0  0  0
 18 31  1  0  0  0  0
 18 33  2  0  0  0  0
 19 20  1  0  0  0  0
 20 21  1  0  0  0  0
 21 22  1  0  0  0  0
 22 29  1  0  0  0  0
 23 28  1  0  0  0  0
 24 31  1  0  0  0  0
 25 28  1  0  0  0  0
 26 27  1  0  0  0  0
  1 34  1  0  0  0  0
  2 35  1  0  0  0  0
  3 36  1  0  0  0  0
  4 37  1  0  0  0  0
  5 38  1  0  0  0  0
  6 39  1  0  0  0  0
  7 40  1  0  0  0  0
  8 41  1  0  0  0  0
  9 42  1  0  0  0  0
 10 43  1  0  0  0  0
 19 44  1  0  0  0  0
 19 45  1  0  0  0  0
 20 46  1  0  0  0  0
 20 47  1  0  0  0  0
 21 48  1  0  0  0  0
 21 49  1  0  0  0  0
 22 50  1  0  0  0  0
 22 51  1  0  0  0  0
 23 52  1  0  0  0  0
 23 53  1  0  0  0  0
 23 54  1  0  0  0  0
 24 55  1  0  0  0  0
 24 56  1  0  0  0  0
 27 57  1  0  0  0  0
 30 58  1  0  0  0  0
M  END
> <clash_score>
0.7790751876189459

> <docking_score>
-6.819869041442871

> <overlap_score>
0.9990366101264954

$$$$
BENZO_80_1
  -OEChem-08222022163D

 54 58  0     0  0  0  0  0  0999 V2000
    4.2750    1.7050   20.8490 C   0  0  0  0  0  0  0  0  0  0  0  0
    3.9160    2.0630   19.5520 C   0  0  0  0  0  0  0  0  0  0  0  0
    5.4210    0.9600   21.0930 C   0  0  0  0  0  0  0  0  0  0  0  0
    4.6890    1.6810   18.4640 C   0  0  0  0  0  0  0  0  0  0  0  0
    8.9960   -2.3380   25.5320 C   0  0  0  0  0  0  0  0  0  0  0  0
    9.6730   -3.4710   23.5300 C   0  0  0  0  0  0  0  0  0  0  0  0
    9.0720   -1.1280   24.8640 C   0  0  0  0  0  0  0  0  0  0  0  0
    9.7200   -2.2600   22.8630 C   0  0  0  0  0  0  0  0  0  0  0  0
   12.2111    0.2208   23.7905 C   0  0  0  0  0  0  0  0  0  0  0  0
   13.5412    0.5479   23.9364 C   0  0  0  0  0  0  0  0  0  0  0  0
   12.1057    2.5424   23.8305 C   0  0  0  0  0  0  0  0  0  0  0  0
    6.1790    0.5730   19.9990 C   0  0  0  0  0  0  0  0  0  0  0  0
   11.3794    1.3761   23.7290 C   0  0  0  0  0  0  0  0  0  0  0  0
    5.8300    0.9190   18.6970 C   0  0  0  0  0  0  0  0  0  0  0  0
    9.3070   -3.5340   24.8780 C   0  0  0  0  0  0  0  0  0  0  0  0
    9.3350   -1.0880   23.5010 C   0  0  0  0  0  0  0  0  0  0  0  0
    7.3170   -0.1610   19.8550 C   0  0  0  0  0  0  0  0  0  0  0  0
    9.0420    0.3700   21.5280 C   0  0  0  0  0  0  0  0  0  0  0  0
    9.5175   -4.8597   26.9771 C   0  0  0  0  0  0  0  0  0  0  0  0
    8.5165   -5.8725   24.9808 C   0  0  0  0  0  0  0  0  0  0  0  0
    8.1868   -5.0439   27.6987 C   0  0  0  0  0  0  0  0  0  0  0  0
    7.2200   -6.0347   25.7755 C   0  0  0  0  0  0  0  0  0  0  0  0
    9.8870    1.3260   23.5730 C   0  0  0  0  0  0  0  0  0  0  0  0
    7.6390   -0.2680   18.5410 N   0  0  0  0  0  0  0  0  0  0  0  0
    6.7580    0.3810   17.8350 N   0  0  0  0  0  0  0  0  0  0  0  0
    9.2563   -4.7368   25.5413 N   0  0  0  0  0  0  0  0  0  0  0  0
    8.1890   -0.7180   20.8700 N   0  0  0  0  0  0  0  0  0  0  0  0
    9.4560    0.1560   22.8130 N   0  0  0  0  0  0  0  0  0  0  0  0
    9.2690    1.4140   20.9380 O   0  0  0  0  0  0  0  0  0  0  0  0
    7.4994   -6.1853   27.1719 O   0  0  0  0  0  0  0  0  0  0  0  0
   13.7831    2.2420   23.9988 S   0  0  0  0  0  0  0  0  0  0  0  0
    3.6468    2.0173   21.6825 H   0  0  0  0  0  0  0  0  0  0  0  0
    3.0153    2.6527   19.3907 H   0  0  0  0  0  0  0  0  0  0  0  0
    5.7015    0.6980   22.1071 H   0  0  0  0  0  0  0  0  0  0  0  0
    4.4064    1.9744   17.4453 H   0  0  0  0  0  0  0  0  0  0  0  0
    8.6905   -2.3533   26.5810 H   0  0  0  0  0  0  0  0  0  0  0  0
    9.9266   -4.3896   22.9917 H   0  0  0  0  0  0  0  0  0  0  0  0
    8.9233   -0.1992   25.4232 H   0  0  0  0  0  0  0  0  0  0  0  0
   10.0650   -2.2330   21.8256 H   0  0  0  0  0  0  0  0  0  0  0  0
   11.8559   -0.8003   23.7315 H   0  0  0  0  0  0  0  0  0  0  0  0
   14.3824   -0.1267   24.0100 H   0  0  0  0  0  0  0  0  0  0  0  0
   11.7354    3.5581   23.8155 H   0  0  0  0  0  0  0  0  0  0  0  0
   10.0205   -3.9698   27.3609 H   0  0  0  0  0  0  0  0  0  0  0  0
   10.1535   -5.7310   27.1549 H   0  0  0  0  0  0  0  0  0  0  0  0
    9.1181   -6.7773   25.0755 H   0  0  0  0  0  0  0  0  0  0  0  0
    8.2812   -5.7064   23.9305 H   0  0  0  0  0  0  0  0  0  0  0  0
    8.3629   -5.2252   28.7611 H   0  0  0  0  0  0  0  0  0  0  0  0
    7.5530   -4.1570   27.6103 H   0  0  0  0  0  0  0  0  0  0  0  0
    6.5459   -5.1839   25.6221 H   0  0  0  0  0  0  0  0  0  0  0  0
    6.6948   -6.9354   25.4436 H   0  0  0  0  0  0  0  0  0  0  0  0
    9.3974    1.2912   24.5523 H   0  0  0  0  0  0  0  0  0  0  0  0
    9.5159    2.2168   23.0553 H   0  0  0  0  0  0  0  0  0  0  0  0
    6.8044    0.4388   16.8592 H   0  0  0  0  0  0  0  0  0  0  0  0
    8.2565   -1.5523   21.1108 H   0  0  0  0  0  0  0  0  0  0  0  0
  1  2  1  0  0  0  0
  1  3  2  0  0  0  0
  2  4  2  0  0  0  0
  3 12  1  0  0  0  0
  4 14  1  0  0  0  0
  5  7  2  0  0  0  0
  5 15  1  0  0  0  0
  6  8  1  0  0  0  0
  6 15  2  0  0  0  0
  7 16  1  0  0  0  0
  8 16  2  0  0  0  0
  9 10  2  0  0  0  0
  9 13  1  0  0  0  0
 10 31  1  0  0  0  0
 11 13  2  0  0  0  0
 11 31  1  0  0  0  0
 12 14  2  0  0  0  0
 12 17  1  0  0  0  0
 13 23  1  0  0  0  0
 14 25  1  0  0  0  0
 15 26  1  0  0  0  0
 16 28  1  0  0  0  0
 17 24  2  0  0  0  0
 17 27  1  0  0  0  0
 18 27  1  0  0  0  0
 18 28  1  0  0  0  0
 18 29  2  0  0  0  0
 19 21  1  0  0  0  0
 19 26  1  0  0  0  0
 20 22  1  0  0  0  0
 20 26  1  0  0  0  0
 21 30  1  0  0  0  0
 22 30  1  0  0  0  0
 23 28  1  0  0  0  0
 24 25  1  0  0  0  0
  1 32  1  0  0  0  0
  2 33  1  0  0  0  0
  3 34  1  0  0  0  0
  4 35  1  0  0  0  0
  5 36  1  0  0  0  0
  6 37  1  0  0  0  0
  7 38  1  0  0  0  0
  8 39  1  0  0  0  0
  9 40  1  0  0  0  0
 10 41  1  0  0  0  0
 11 42  1  0  0  0  0
 19 43  1  0  0  0  0
 19 44  1  0  0  0  0
 20 45  1  0  0  0  0
 20 46  1  0  0  0  0
 21 47  1  0  0  0  0
 21 48  1  0  0  0  0
 22 49  1  0  0  0  0
 22 50  1  0  0  0  0
 23 51  1  0  0  0  0
 23 52  1  0  0  0  0
 25 53  1  0  0  0  0
 27 54  1  0  0  0  0
M  END
> <clash_score>
0

> <docking_score>
-7.3201212882995605

> <overlap_score>
0.9791508913040161

$$$$
BENZO_82_1
  -OEChem-08222022163D

 57 61  0     0  0  0  0  0  0999 V2000
    4.2750    1.7050   20.8490 C   0  0  0  0  0  0  0  0  0  0  0  0
    3.9160    2.0630   19.5520 C   0  0  0  0  0  0  0  0  0  0  0  0
   13.4007    0.5725   24.7805 C   0  0  0  0  0  0  0  0  0  0  0  0
    5.4210    0.9600   21.0930 C   0  0  0  0  0  0  0  0  0  0  0  0
   12.0141    0.5273   24.6359 C   0  0  0  0  0  0  0  0  0  0  0  0
    4.6890    1.6810   18.4640 C   0  0  0  0  0  0  0  0  0  0  0  0
    8.9960   -2.3380   25.5320 C   0  0  0  0  0  0  0  0  0  0  0  0
    9.6730   -3.4710   23.5300 C   0  0  0  0  0  0  0  0  0  0  0  0
    9.0720   -1.1280   24.8640 C   0  0  0  0  0  0  0  0  0  0  0  0
    9.7200   -2.2600   22.8630 C   0  0  0  0  0  0  0  0  0  0  0  0
   14.1526    1.4666   24.0184 C   0  0  0  0  0  0  0  0  0  0  0  0
   12.1314    2.2702   22.9668 C   0  0  0  0  0  0  0  0  0  0  0  0
    6.1790    0.5730   19.9990 C   0  0  0  0  0  0  0  0  0  0  0  0
   11.3794    1.3761   23.7290 C   0  0  0  0  0  0  0  0  0  0  0  0
    5.8300    0.9190   18.6970 C   0  0  0  0  0  0  0  0  0  0  0  0
    9.3070   -3.5340   24.8780 C   0  0  0  0  0  0  0  0  0  0  0  0
    9.3350   -1.0880   23.5010 C   0  0  0  0  0  0  0  0  0  0  0  0
   13.5180    2.3154   23.1115 C   0  0  0  0  0  0  0  0  0  0  0  0
    7.3170   -0.1610   19.8550 C   0  0  0  0  0  0  0  0  0  0  0  0
    9.0420    0.3700   21.5280 C   0  0  0  0  0  0  0  0  0  0  0  0
   10.0771   -5.0255   26.7193 C   0  0  0  0  0  0  0  0  0  0  0  0
    8.0927   -5.6195   25.4071 C   0  0  0  0  0  0  0  0  0  0  0  0
    9.1933   -4.9427   27.9592 C   0  0  0  0  0  0  0  0  0  0  0  0
    7.2756   -5.5290   26.6967 C   0  0  0  0  0  0  0  0  0  0  0  0
    9.8870    1.3260   23.5730 C   0  0  0  0  0  0  0  0  0  0  0  0
    7.6390   -0.2680   18.5410 N   0  0  0  0  0  0  0  0  0  0  0  0
    6.7580    0.3810   17.8350 N   0  0  0  0  0  0  0  0  0  0  0  0
    9.2563   -4.7368   25.5413 N   0  0  0  0  0  0  0  0  0  0  0  0
    8.1890   -0.7180   20.8700 N   0  0  0  0  0  0  0  0  0  0  0  0
    9.4560    0.1560   22.8130 N   0  0  0  0  0  0  0  0  0  0  0  0
    9.2690    1.4140   20.9380 O   0  0  0  0  0  0  0  0  0  0  0  0
    8.0883   -5.8459   27.8325 O   0  0  0  0  0  0  0  0  0  0  0  0
   14.4463    3.4175   22.1707 Cl  0  0  0  0  0  0  0  0  0  0  0  0
    3.6468    2.0173   21.6825 H   0  0  0  0  0  0  0  0  0  0  0  0
    3.0153    2.6527   19.3907 H   0  0  0  0  0  0  0  0  0  0  0  0
   13.8945   -0.0888   25.4867 H   0  0  0  0  0  0  0  0  0  0  0  0
    5.7015    0.6980   22.1071 H   0  0  0  0  0  0  0  0  0  0  0  0
   11.4361   -0.1726   25.2338 H   0  0  0  0  0  0  0  0  0  0  0  0
    4.4064    1.9744   17.4453 H   0  0  0  0  0  0  0  0  0  0  0  0
    8.6905   -2.3533   26.5810 H   0  0  0  0  0  0  0  0  0  0  0  0
    9.9266   -4.3896   22.9917 H   0  0  0  0  0  0  0  0  0  0  0  0
    8.9233   -0.1992   25.4232 H   0  0  0  0  0  0  0  0  0  0  0  0
   10.0650   -2.2330   21.8256 H   0  0  0  0  0  0  0  0  0  0  0  0
   15.2326    1.4907   24.1414 H   0  0  0  0  0  0  0  0  0  0  0  0
   11.6318    2.9303   22.2615 H   0  0  0  0  0  0  0  0  0  0  0  0
   10.8985   -4.3115   26.8085 H   0  0  0  0  0  0  0  0  0  0  0  0
   10.4915   -6.0334   26.6323 H   0  0  0  0  0  0  0  0  0  0  0  0
    8.4327   -6.6456   25.2620 H   0  0  0  0  0  0  0  0  0  0  0  0
    7.4725   -5.3241   24.5619 H   0  0  0  0  0  0  0  0  0  0  0  0
    9.7636   -5.2398   28.8419 H   0  0  0  0  0  0  0  0  0  0  0  0
    8.8236   -3.9268   28.1248 H   0  0  0  0  0  0  0  0  0  0  0  0
    6.8339   -4.5337   26.8232 H   0  0  0  0  0  0  0  0  0  0  0  0
    6.4550   -6.2521   26.6643 H   0  0  0  0  0  0  0  0  0  0  0  0
    9.3974    1.2912   24.5523 H   0  0  0  0  0  0  0  0  0  0  0  0
    9.5159    2.2168   23.0553 H   0  0  0  0  0  0  0  0  0  0  0  0
    6.8044    0.4388   16.8592 H   0  0  0  0  0  0  0  0  0  0  0  0
    8.2565   -1.5523   21.1108 H   0  0  0  0  0  0  0  0  0  0  0  0
  1  2  1  0  0  0  0
  1  4  2  0  0  0  0
  2  6  2  0  0  0  0
  3  5  2  0  0  0  0
  3 11  1  0  0  0  0
  4 13  1  0  0  0  0
  5 14  1  0  0  0  0
  6 15  1  0  0  0  0
  7  9  2  0  0  0  0
  7 16  1  0  0  0  0
  8 10  1  0  0  0  0
  8 16  2  0  0  0  0
  9 17  1  0  0  0  0
 10 17  2  0  0  0  0
 11 18  2  0  0  0  0
 12 14  2  0  0  0  0
 12 18  1  0  0  0  0
 13 15  2  0  0  0  0
 13 19  1  0  0  0  0
 14 25  1  0  0  0  0
 15 27  1  0  0  0  0
 16 28  1  0  0  0  0
 17 30  1  0  0  0  0
 18 33  1  0  0  0  0
 19 26  2  0  0  0  0
 19 29  1  0  0  0  0
 20 29  1  0  0  0  0
 20 30  1  0  0  0  0
 20 31  2  0  0  0  0
 21 23  1  0  0  0  0
 21 28  1  0  0  0  0
 22 24  1  0  0  0  0
 22 28  1  0  0  0  0
 23 32  1  0  0  0  0
 24 32  1  0  0  0  0
 25 30  1  0  0  0  0
 26 27  1  0  0  0  0
  1 34  1  0  0  0  0
  2 35  1  0  0  0  0
  3 36  1  0  0  0  0
  4 37  1  0  0  0  0
  5 38  1  0  0  0  0
  6 39  1  0  0  0  0
  7 40  1  0  0  0  0
  8 41  1  0  0  0  0
  9 42  1  0  0  0  0
 10 43  1  0  0  0  0
 11 44  1  0  0  0  0
 12 45  1  0  0  0  0
 21 46  1  0  0  0  0
 21 47  1  0  0  0  0
 22 48  1  0  0  0  0
 22 49  1  0  0  0  0
 23 50  1  0  0  0  0
 23 51  1  0  0  0  0
 24 52  1  0  0  0  0
 24 53  1  0  0  0  0
 25 54  1  0  0  0  0
 25 55  1  0  0  0  0
 27 56  1  0  0  0  0
 29 57  1  0  0  0  0
M  END
> <clash_score>
0

> <docking_score>
-7.221818923950195

> <overlap_score>
1.001425862312317

$$$$
BENZO_85_1
  -OEChem-08222022163D

 51 54  0     0  0  0  0  0  0999 V2000
   14.1526    1.4694   24.0176 C   0  0  0  0  0  0  0  0  0  0  0  0
   13.3741    0.8121   24.9701 C   0  0  0  0  0  0  0  0  0  0  0  0
   13.5446    2.0802   22.9208 C   0  0  0  0  0  0  0  0  0  0  0  0
   11.9875    0.7654   24.8258 C   0  0  0  0  0  0  0  0  0  0  0  0
   12.1580    2.0335   22.7765 C   0  0  0  0  0  0  0  0  0  0  0  0
    9.0720   -1.1280   24.8640 C   0  0  0  0  0  0  0  0  0  0  0  0
    9.7200   -2.2600   22.8630 C   0  0  0  0  0  0  0  0  0  0  0  0
    8.9960   -2.3380   25.5320 C   0  0  0  0  0  0  0  0  0  0  0  0
    9.6730   -3.4710   23.5300 C   0  0  0  0  0  0  0  0  0  0  0  0
   11.3794    1.3761   23.7290 C   0  0  0  0  0  0  0  0  0  0  0  0
    9.3350   -1.0880   23.5010 C   0  0  0  0  0  0  0  0  0  0  0  0
    9.3070   -3.5340   24.8780 C   0  0  0  0  0  0  0  0  0  0  0  0
    6.1790    0.5730   19.9990 C   0  0  0  0  0  0  0  0  0  0  0  0
    7.3170   -0.1610   19.8550 C   0  0  0  0  0  0  0  0  0  0  0  0
    5.4210    0.9600   21.0930 C   0  0  0  0  0  0  0  0  0  0  0  0
    4.2750    1.7050   20.8490 C   0  0  0  0  0  0  0  0  0  0  0  0
    3.9160    2.0630   19.5520 C   0  0  0  0  0  0  0  0  0  0  0  0
    4.6890    1.6810   18.4640 C   0  0  0  0  0  0  0  0  0  0  0  0
    9.0420    0.3700   21.5280 C   0  0  0  0  0  0  0  0  0  0  0  0
    8.0128   -5.2151   26.1416 C   0  0  0  0  0  0  0  0  0  0  0  0
   10.4372   -5.5860   25.6589 C   0  0  0  0  0  0  0  0  0  0  0  0
    9.8870    1.3260   23.5730 C   0  0  0  0  0  0  0  0  0  0  0  0
    7.6390   -0.2680   18.5410 N   0  0  0  0  0  0  0  0  0  0  0  0
    6.7580    0.3810   17.8350 N   0  0  0  0  0  0  0  0  0  0  0  0
    5.8300    0.9190   18.6970 N   0  0  0  0  0  0  0  0  0  0  0  0
    8.1890   -0.7180   20.8700 N   0  0  0  0  0  0  0  0  0  0  0  0
    9.4560    0.1560   22.8130 N   0  0  0  0  0  0  0  0  0  0  0  0
    9.2543   -4.7552   25.5519 N   0  0  0  0  0  0  0  0  0  0  0  0
    9.2690    1.4140   20.9380 O   0  0  0  0  0  0  0  0  0  0  0  0
   15.2322    1.5068   24.1308 H   0  0  0  0  0  0  0  0  0  0  0  0
   13.8473    0.3374   25.8248 H   0  0  0  0  0  0  0  0  0  0  0  0
   14.1503    2.5930   22.1795 H   0  0  0  0  0  0  0  0  0  0  0  0
   11.3889    0.2508   25.5729 H   0  0  0  0  0  0  0  0  0  0  0  0
   11.6929    2.5120   21.9187 H   0  0  0  0  0  0  0  0  0  0  0  0
    8.9217   -0.1995   25.4232 H   0  0  0  0  0  0  0  0  0  0  0  0
   10.0643   -2.2341   21.8254 H   0  0  0  0  0  0  0  0  0  0  0  0
    8.6893   -2.3540   26.5808 H   0  0  0  0  0  0  0  0  0  0  0  0
    9.9257   -4.3898   22.9921 H   0  0  0  0  0  0  0  0  0  0  0  0
    5.6855    0.7074   22.1002 H   0  0  0  0  0  0  0  0  0  0  0  0
    3.6634    2.0034   21.6926 H   0  0  0  0  0  0  0  0  0  0  0  0
    3.0111    2.6563   19.3629 H   0  0  0  0  0  0  0  0  0  0  0  0
    4.4370    1.9522   17.4626 H   0  0  0  0  0  0  0  0  0  0  0  0
    8.1744   -6.1904   26.6238 H   0  0  0  0  0  0  0  0  0  0  0  0
    7.6718   -4.4870   26.8924 H   0  0  0  0  0  0  0  0  0  0  0  0
    7.2494   -5.3166   25.3561 H   0  0  0  0  0  0  0  0  0  0  0  0
   10.1946   -6.4995   26.2216 H   0  0  0  0  0  0  0  0  0  0  0  0
   10.7865   -5.8577   24.6518 H   0  0  0  0  0  0  0  0  0  0  0  0
   11.2285   -5.0312   26.1842 H   0  0  0  0  0  0  0  0  0  0  0  0
    9.3974    1.2912   24.5523 H   0  0  0  0  0  0  0  0  0  0  0  0
    9.5159    2.2168   23.0553 H   0  0  0  0  0  0  0  0  0  0  0  0
    8.2368   -1.5645   21.0930 H   0  0  0  0  0  0  0  0  0  0  0  0
  1  2  1  0  0  0  0
  1  3  2  0  0  0  0
  2  4  2  0  0  0  0
  3  5  1  0  0  0  0
  4 10  1  0  0  0  0
  5 10  2  0  0  0  0
  6  8  2  0  0  0  0
  6 11  1  0  0  0  0
  7  9  1  0  0  0  0
  7 11  2  0  0  0  0
  8 12  1  0  0  0  0
  9 12  2  0  0  0  0
 10 22  1  0  0  0  0
 11 27  1  0  0  0  0
 12 28  1  0  0  0  0
 13 14  2  0  0  0  0
 13 15  1  0  0  0  0
 13 25  1  0  0  0  0
 14 23  1  0  0  0  0
 14 26  1  0  0  0  0
 15 16  2  0  0  0  0
 16 17  1  0  0  0  0
 17 18  2  0  0  0  0
 18 25  1  0  0  0  0
 19 26  1  0  0  0  0
 19 27  1  0  0  0  0
 19 29  2  0  0  0  0
 20 28  1  0  0  0  0
 21 28  1  0  0  0  0
 22 27  1  0  0  0  0
 23 24  2  0  0  0  0
 24 25  1  0  0  0  0
  1 30  1  0  0  0  0
  2 31  1  0  0  0  0
  3 32  1  0  0  0  0
  4 33  1  0  0  0  0
  5 34  1  0  0  0  0
  6 35  1  0  0  0  0
  7 36  1  0  0  0  0
  8 37  1  0  0  0  0
  9 38  1  0  0  0  0
 15 39  1  0  0  0  0
 16 40  1  0  0  0  0
 17 41  1  0  0  0  0
 18 42  1  0  0  0  0
 20 43  1  0  0  0  0
 20 44  1  0  0  0  0
 20 45  1  0  0  0  0
 21 46  1  0  0  0  0
 21 47  1  0  0  0  0
 21 48  1  0  0  0  0
 22 49  1  0  0  0  0
 22 50  1  0  0  0  0
 26 51  1  0  0  0  0
M  END
> <clash_score>
0

> <docking_score>
-9.488998413085938

> <overlap_score>
0.9780116677284241

$$$$
BENZO_83_1
  -OEChem-08222022163D

 57 61  0     0  0  0  0  0  0999 V2000
    4.2750    1.7050   20.8490 C   0  0  0  0  0  0  0  0  0  0  0  0
    3.9160    2.0630   19.5520 C   0  0  0  0  0  0  0  0  0  0  0  0
    5.4210    0.9600   21.0930 C   0  0  0  0  0  0  0  0  0  0  0  0
    4.6890    1.6810   18.4640 C   0  0  0  0  0  0  0  0  0  0  0  0
    8.9960   -2.3380   25.5320 C   0  0  0  0  0  0  0  0  0  0  0  0
    9.6730   -3.4710   23.5300 C   0  0  0  0  0  0  0  0  0  0  0  0
    9.0720   -1.1280   24.8640 C   0  0  0  0  0  0  0  0  0  0  0  0
    9.7200   -2.2600   22.8630 C   0  0  0  0  0  0  0  0  0  0  0  0
   12.2914    2.2071   23.0512 C   0  0  0  0  0  0  0  0  0  0  0  0
   12.1614    0.6214   24.5689 C   0  0  0  0  0  0  0  0  0  0  0  0
    6.1790    0.5730   19.9990 C   0  0  0  0  0  0  0  0  0  0  0  0
   11.3794    1.3761   23.7290 C   0  0  0  0  0  0  0  0  0  0  0  0
    5.8300    0.9190   18.6970 C   0  0  0  0  0  0  0  0  0  0  0  0
    9.3070   -3.5340   24.8780 C   0  0  0  0  0  0  0  0  0  0  0  0
    9.3350   -1.0880   23.5010 C   0  0  0  0  0  0  0  0  0  0  0  0
    7.3170   -0.1610   19.8550 C   0  0  0  0  0  0  0  0  0  0  0  0
    9.0420    0.3700   21.5280 C   0  0  0  0  0  0  0  0  0  0  0  0
   10.0771   -5.0255   26.7193 C   0  0  0  0  0  0  0  0  0  0  0  0
    8.0927   -5.6195   25.4071 C   0  0  0  0  0  0  0  0  0  0  0  0
    9.1933   -4.9427   27.9592 C   0  0  0  0  0  0  0  0  0  0  0  0
    7.2756   -5.5290   26.6967 C   0  0  0  0  0  0  0  0  0  0  0  0
   14.6267    0.5248   25.0067 C   0  0  0  0  0  0  0  0  0  0  0  0
    9.8870    1.3260   23.5730 C   0  0  0  0  0  0  0  0  0  0  0  0
   13.5560    2.0002   23.4280 N   0  0  0  0  0  0  0  0  0  0  0  0
    7.6390   -0.2680   18.5410 N   0  0  0  0  0  0  0  0  0  0  0  0
    6.7580    0.3810   17.8350 N   0  0  0  0  0  0  0  0  0  0  0  0
   13.4442    1.0306   24.3518 N   0  0  0  0  0  0  0  0  0  0  0  0
    9.2563   -4.7368   25.5413 N   0  0  0  0  0  0  0  0  0  0  0  0
    8.1890   -0.7180   20.8700 N   0  0  0  0  0  0  0  0  0  0  0  0
    9.4560    0.1560   22.8130 N   0  0  0  0  0  0  0  0  0  0  0  0
    9.2690    1.4140   20.9380 O   0  0  0  0  0  0  0  0  0  0  0  0
    8.0883   -5.8459   27.8325 O   0  0  0  0  0  0  0  0  0  0  0  0
    3.6468    2.0173   21.6825 H   0  0  0  0  0  0  0  0  0  0  0  0
    3.0153    2.6527   19.3907 H   0  0  0  0  0  0  0  0  0  0  0  0
    5.7015    0.6980   22.1071 H   0  0  0  0  0  0  0  0  0  0  0  0
    4.4064    1.9744   17.4453 H   0  0  0  0  0  0  0  0  0  0  0  0
    8.6905   -2.3533   26.5810 H   0  0  0  0  0  0  0  0  0  0  0  0
    9.9266   -4.3896   22.9917 H   0  0  0  0  0  0  0  0  0  0  0  0
    8.9233   -0.1992   25.4232 H   0  0  0  0  0  0  0  0  0  0  0  0
   10.0650   -2.2330   21.8256 H   0  0  0  0  0  0  0  0  0  0  0  0
   12.0895    2.9562   22.2987 H   0  0  0  0  0  0  0  0  0  0  0  0
   11.9201   -0.1518   25.2857 H   0  0  0  0  0  0  0  0  0  0  0  0
   10.8985   -4.3115   26.8085 H   0  0  0  0  0  0  0  0  0  0  0  0
   10.4915   -6.0334   26.6323 H   0  0  0  0  0  0  0  0  0  0  0  0
    8.4327   -6.6456   25.2620 H   0  0  0  0  0  0  0  0  0  0  0  0
    7.4725   -5.3241   24.5619 H   0  0  0  0  0  0  0  0  0  0  0  0
    9.7636   -5.2398   28.8419 H   0  0  0  0  0  0  0  0  0  0  0  0
    8.8236   -3.9268   28.1248 H   0  0  0  0  0  0  0  0  0  0  0  0
    6.8339   -4.5337   26.8232 H   0  0  0  0  0  0  0  0  0  0  0  0
    6.4550   -6.2521   26.6643 H   0  0  0  0  0  0  0  0  0  0  0  0
   15.0068   -0.3132   24.4165 H   0  0  0  0  0  0  0  0  0  0  0  0
   15.3758    1.3189   25.0698 H   0  0  0  0  0  0  0  0  0  0  0  0
   14.3675    0.1958   26.0170 H   0  0  0  0  0  0  0  0  0  0  0  0
    9.3974    1.2912   24.5523 H   0  0  0  0  0  0  0  0  0  0  0  0
    9.5159    2.2168   23.0553 H   0  0  0  0  0  0  0  0  0  0  0  0
    6.8044    0.4388   16.8592 H   0  0  0  0  0  0  0  0  0  0  0  0
    8.2565   -1.5523   21.1108 H   0  0  0  0  0  0  0  0  0  0  0  0
  1  2  1  0  0  0  0
  1  3  2  0  0  0  0
  2  4  2  0  0  0  0
  3 11  1  0  0  0  0
  4 13  1  0  0  0  0
  5  7  2  0  0  0  0
  5 14  1  0  0  0  0
  6  8  1  0  0  0  0
  6 14  2  0  0  0  0
  7 15  1  0  0  0  0
  8 15  2  0  0  0  0
  9 12  1  0  0  0  0
  9 24  2  0  0  0  0
 10 12  2  0  0  0  0
 10 27  1  0  0  0  0
 11 13  2  0  0  0  0
 11 16  1  0  0  0  0
 12 23  1  0  0  0  0
 13 26  1  0  0  0  0
 14 28  1  0  0  0  0
 15 30  1  0  0  0  0
 16 25  2  0  0  0  0
 16 29  1  0  0  0  0
 17 29  1  0  0  0  0
 17 30  1  0  0  0  0
 17 31  2  0  0  0  0
 18 20  1  0  0  0  0
 18 28  1  0  0  0  0
 19 21  1  0  0  0  0
 19 28  1  0  0  0  0
 20 32  1  0  0  0  0
 21 32  1  0  0  0  0
 22 27  1  0  0  0  0
 23 30  1  0  0  0  0
 24 27  1  0  0  0  0
 25 26  1  0  0  0  0
  1 33  1  0  0  0  0
  2 34  1  0  0  0  0
  3 35  1  0  0  0  0
  4 36  1  0  0  0  0
  5 37  1  0  0  0  0
  6 38  1  0  0  0  0
  7 39  1  0  0  0  0
  8 40  1  0  0  0  0
  9 41  1  0  0  0  0
 10 42  1  0  0  0  0
 18 43  1  0  0  0  0
 18 44  1  0  0  0  0
 19 45  1  0  0  0  0
 19 46  1  0  0  0  0
 20 47  1  0  0  0  0
 20 48  1  0  0  0  0
 21 49  1  0  0  0  0
 21 50  1  0  0  0  0
 22 51  1  0  0  0  0
 22 52  1  0  0  0  0
 22 53  1  0  0  0  0
 23 54  1  0  0  0  0
 23 55  1  0  0  0  0
 26 56  1  0  0  0  0
 29 57  1  0  0  0  0
M  END
> <clash_score>
0.6199424094734003

> <docking_score>
-7.792844772338867

> <overlap_score>
0.9891132712364197

$$$$
BENZO_84_1
  -OEChem-08222022163D

 48 51  0     0  0  0  0  0  0999 V2000
    9.0720   -1.1280   24.8640 C   0  0  0  0  0  0  0  0  0  0  0  0
    9.7200   -2.2600   22.8630 C   0  0  0  0  0  0  0  0  0  0  0  0
    8.9960   -2.3380   25.5320 C   0  0  0  0  0  0  0  0  0  0  0  0
    9.6730   -3.4710   23.5300 C   0  0  0  0  0  0  0  0  0  0  0  0
   12.2913    1.4279   22.6355 C   0  0  0  0  0  0  0  0  0  0  0  0
   13.6024    1.4661   23.0564 C   0  0  0  0  0  0  0  0  0  0  0  0
   12.0284    1.3764   24.9443 C   0  0  0  0  0  0  0  0  0  0  0  0
   11.3794    1.3761   23.7290 C   0  0  0  0  0  0  0  0  0  0  0  0
    9.3350   -1.0880   23.5010 C   0  0  0  0  0  0  0  0  0  0  0  0
    9.3070   -3.5340   24.8780 C   0  0  0  0  0  0  0  0  0  0  0  0
    6.1790    0.5730   19.9990 C   0  0  0  0  0  0  0  0  0  0  0  0
    7.3170   -0.1610   19.8550 C   0  0  0  0  0  0  0  0  0  0  0  0
    5.4210    0.9600   21.0930 C   0  0  0  0  0  0  0  0  0  0  0  0
    4.2750    1.7050   20.8490 C   0  0  0  0  0  0  0  0  0  0  0  0
    3.9160    2.0630   19.5520 C   0  0  0  0  0  0  0  0  0  0  0  0
    4.6890    1.6810   18.4640 C   0  0  0  0  0  0  0  0  0  0  0  0
    9.0420    0.3700   21.5280 C   0  0  0  0  0  0  0  0  0  0  0  0
    8.8742   -4.8064   26.9496 C   0  0  0  0  0  0  0  0  0  0  0  0
    9.5655   -5.9897   24.8591 C   0  0  0  0  0  0  0  0  0  0  0  0
    9.8870    1.3260   23.5730 C   0  0  0  0  0  0  0  0  0  0  0  0
    7.6390   -0.2680   18.5410 N   0  0  0  0  0  0  0  0  0  0  0  0
    6.7580    0.3810   17.8350 N   0  0  0  0  0  0  0  0  0  0  0  0
    5.8300    0.9190   18.6970 N   0  0  0  0  0  0  0  0  0  0  0  0
    8.1890   -0.7180   20.8700 N   0  0  0  0  0  0  0  0  0  0  0  0
    9.4560    0.1560   22.8130 N   0  0  0  0  0  0  0  0  0  0  0  0
    9.2543   -4.7552   25.5519 N   0  0  0  0  0  0  0  0  0  0  0  0
    9.2690    1.4140   20.9380 O   0  0  0  0  0  0  0  0  0  0  0  0
   13.7301    1.4394   24.7638 S   0  0  0  0  0  0  0  0  0  0  0  0
    8.9217   -0.1995   25.4232 H   0  0  0  0  0  0  0  0  0  0  0  0
   10.0643   -2.2341   21.8254 H   0  0  0  0  0  0  0  0  0  0  0  0
    8.6893   -2.3540   26.5808 H   0  0  0  0  0  0  0  0  0  0  0  0
    9.9257   -4.3898   22.9921 H   0  0  0  0  0  0  0  0  0  0  0  0
   12.0045    1.4365   21.5915 H   0  0  0  0  0  0  0  0  0  0  0  0
   14.4914    1.5078   22.4431 H   0  0  0  0  0  0  0  0  0  0  0  0
   11.5886    1.3416   25.9314 H   0  0  0  0  0  0  0  0  0  0  0  0
    5.6855    0.7074   22.1002 H   0  0  0  0  0  0  0  0  0  0  0  0
    3.6634    2.0034   21.6926 H   0  0  0  0  0  0  0  0  0  0  0  0
    3.0111    2.6563   19.3629 H   0  0  0  0  0  0  0  0  0  0  0  0
    4.4370    1.9522   17.4626 H   0  0  0  0  0  0  0  0  0  0  0  0
    8.8922   -5.8499   27.2971 H   0  0  0  0  0  0  0  0  0  0  0  0
    9.5819   -4.2099   27.5440 H   0  0  0  0  0  0  0  0  0  0  0  0
    7.8598   -4.3978   27.0688 H   0  0  0  0  0  0  0  0  0  0  0  0
    9.4683   -6.8360   25.5551 H   0  0  0  0  0  0  0  0  0  0  0  0
    8.8685   -6.1243   24.0189 H   0  0  0  0  0  0  0  0  0  0  0  0
   10.5962   -5.9459   24.4772 H   0  0  0  0  0  0  0  0  0  0  0  0
    9.3974    1.2912   24.5523 H   0  0  0  0  0  0  0  0  0  0  0  0
    9.5159    2.2168   23.0553 H   0  0  0  0  0  0  0  0  0  0  0  0
    8.2368   -1.5645   21.0930 H   0  0  0  0  0  0  0  0  0  0  0  0
  1  3  2  0  0  0  0
  1  9  1  0  0  0  0
  2  4  1  0  0  0  0
  2  9  2  0  0  0  0
  3 10  1  0  0  0  0
  4 10  2  0  0  0  0
  5  6  2  0  0  0  0
  5  8  1  0  0  0  0
  6 28  1  0  0  0  0
  7  8  2  0  0  0  0
  7 28  1  0  0  0  0
  8 20  1  0  0  0  0
  9 25  1  0  0  0  0
 10 26  1  0  0  0  0
 11 12  2  0  0  0  0
 11 13  1  0  0  0  0
 11 23  1  0  0  0  0
 12 21  1  0  0  0  0
 12 24  1  0  0  0  0
 13 14  2  0  0  0  0
 14 15  1  0  0  0  0
 15 16  2  0  0  0  0
 16 23  1  0  0  0  0
 17 24  1  0  0  0  0
 17 25  1  0  0  0  0
 17 27  2  0  0  0  0
 18 26  1  0  0  0  0
 19 26  1  0  0  0  0
 20 25  1  0  0  0  0
 21 22  2  0  0  0  0
 22 23  1  0  0  0  0
  1 29  1  0  0  0  0
  2 30  1  0  0  0  0
  3 31  1  0  0  0  0
  4 32  1  0  0  0  0
  5 33  1  0  0  0  0
  6 34  1  0  0  0  0
  7 35  1  0  0  0  0
 13 36  1  0  0  0  0
 14 37  1  0  0  0  0
 15 38  1  0  0  0  0
 16 39  1  0  0  0  0
 18 40  1  0  0  0  0
 18 41  1  0  0  0  0
 18 42  1  0  0  0  0
 19 43  1  0  0  0  0
 19 44  1  0  0  0  0
 19 45  1  0  0  0  0
 20 46  1  0  0  0  0
 20 47  1  0  0  0  0
 24 48  1  0  0  0  0
M  END
> <clash_score>
0

> <docking_score>
-9.245975494384766

> <overlap_score>
0.963939368724823

$$$$
BENZO_87_1
  -OEChem-08222022163D

 51 54  0     0  0  0  0  0  0999 V2000
    9.0720   -1.1280   24.8640 C   0  0  0  0  0  0  0  0  0  0  0  0
    9.7200   -2.2600   22.8630 C   0  0  0  0  0  0  0  0  0  0  0  0
    8.9960   -2.3380   25.5320 C   0  0  0  0  0  0  0  0  0  0  0  0
    9.6730   -3.4710   23.5300 C   0  0  0  0  0  0  0  0  0  0  0  0
   12.2914    2.2071   23.0512 C   0  0  0  0  0  0  0  0  0  0  0  0
   12.1614    0.6214   24.5689 C   0  0  0  0  0  0  0  0  0  0  0  0
   11.3794    1.3761   23.7290 C   0  0  0  0  0  0  0  0  0  0  0  0
    9.3350   -1.0880   23.5010 C   0  0  0  0  0  0  0  0  0  0  0  0
    9.3070   -3.5340   24.8780 C   0  0  0  0  0  0  0  0  0  0  0  0
    6.1790    0.5730   19.9990 C   0  0  0  0  0  0  0  0  0  0  0  0
    7.3170   -0.1610   19.8550 C   0  0  0  0  0  0  0  0  0  0  0  0
    5.4210    0.9600   21.0930 C   0  0  0  0  0  0  0  0  0  0  0  0
    4.2750    1.7050   20.8490 C   0  0  0  0  0  0  0  0  0  0  0  0
    3.9160    2.0630   19.5520 C   0  0  0  0  0  0  0  0  0  0  0  0
    4.6890    1.6810   18.4640 C   0  0  0  0  0  0  0  0  0  0  0  0
    9.0420    0.3700   21.5280 C   0  0  0  0  0  0  0  0  0  0  0  0
   14.6267    0.5248   25.0067 C   0  0  0  0  0  0  0  0  0  0  0  0
    8.0128   -5.2151   26.1416 C   0  0  0  0  0  0  0  0  0  0  0  0
   10.4372   -5.5860   25.6589 C   0  0  0  0  0  0  0  0  0  0  0  0
    9.8870    1.3260   23.5730 C   0  0  0  0  0  0  0  0  0  0  0  0
   13.5560    2.0002   23.4280 N   0  0  0  0  0  0  0  0  0  0  0  0
    7.6390   -0.2680   18.5410 N   0  0  0  0  0  0  0  0  0  0  0  0
    6.7580    0.3810   17.8350 N   0  0  0  0  0  0  0  0  0  0  0  0
   13.4442    1.0306   24.3518 N   0  0  0  0  0  0  0  0  0  0  0  0
    5.8300    0.9190   18.6970 N   0  0  0  0  0  0  0  0  0  0  0  0
    8.1890   -0.7180   20.8700 N   0  0  0  0  0  0  0  0  0  0  0  0
    9.4560    0.1560   22.8130 N   0  0  0  0  0  0  0  0  0  0  0  0
    9.2543   -4.7552   25.5519 N   0  0  0  0  0  0  0  0  0  0  0  0
    9.2690    1.4140   20.9380 O   0  0  0  0  0  0  0  0  0  0  0  0
    8.9217   -0.1995   25.4232 H   0  0  0  0  0  0  0  0  0  0  0  0
   10.0643   -2.2341   21.8254 H   0  0  0  0  0  0  0  0  0  0  0  0
    8.6893   -2.3540   26.5808 H   0  0  0  0  0  0  0  0  0  0  0  0
    9.9257   -4.3898   22.9921 H   0  0  0  0  0  0  0  0  0  0  0  0
   12.0895    2.9562   22.2987 H   0  0  0  0  0  0  0  0  0  0  0  0
   11.9202   -0.1518   25.2857 H   0  0  0  0  0  0  0  0  0  0  0  0
    5.6855    0.7074   22.1002 H   0  0  0  0  0  0  0  0  0  0  0  0
    3.6634    2.0034   21.6926 H   0  0  0  0  0  0  0  0  0  0  0  0
    3.0111    2.6563   19.3629 H   0  0  0  0  0  0  0  0  0  0  0  0
    4.4370    1.9522   17.4626 H   0  0  0  0  0  0  0  0  0  0  0  0
   15.0068   -0.3132   24.4165 H   0  0  0  0  0  0  0  0  0  0  0  0
   15.3758    1.3189   25.0698 H   0  0  0  0  0  0  0  0  0  0  0  0
   14.3676    0.1958   26.0170 H   0  0  0  0  0  0  0  0  0  0  0  0
    8.1744   -6.1904   26.6238 H   0  0  0  0  0  0  0  0  0  0  0  0
    7.6718   -4.4870   26.8924 H   0  0  0  0  0  0  0  0  0  0  0  0
    7.2494   -5.3166   25.3561 H   0  0  0  0  0  0  0  0  0  0  0  0
   10.1946   -6.4995   26.2216 H   0  0  0  0  0  0  0  0  0  0  0  0
   10.7865   -5.8577   24.6518 H   0  0  0  0  0  0  0  0  0  0  0  0
   11.2285   -5.0312   26.1842 H   0  0  0  0  0  0  0  0  0  0  0  0
    9.3974    1.2912   24.5523 H   0  0  0  0  0  0  0  0  0  0  0  0
    9.5159    2.2168   23.0553 H   0  0  0  0  0  0  0  0  0  0  0  0
    8.2368   -1.5645   21.0930 H   0  0  0  0  0  0  0  0  0  0  0  0
  1  3  2  0  0  0  0
  1  8  1  0  0  0  0
  2  4  1  0  0  0  0
  2  8  2  0  0  0  0
  3  9  1  0  0  0  0
  4  9  2  0  0  0  0
  5  7  1  0  0  0  0
  5 21  2  0  0  0  0
  6  7  2  0  0  0  0
  6 24  1  0  0  0  0
  7 20  1  0  0  0  0
  8 27  1  0  0  0  0
  9 28  1  0  0  0  0
 10 11  2  0  0  0  0
 10 12  1  0  0  0  0
 10 25  1  0  0  0  0
 11 22  1  0  0  0  0
 11 26  1  0  0  0  0
 12 13  2  0  0  0  0
 13 14  1  0  0  0  0
 14 15  2  0  0  0  0
 15 25  1  0  0  0  0
 16 26  1  0  0  0  0
 16 27  1  0  0  0  0
 16 29  2  0  0  0  0
 17 24  1  0  0  0  0
 18 28  1  0  0  0  0
 19 28  1  0  0  0  0
 20 27  1  0  0  0  0
 21 24  1  0  0  0  0
 22 23  2  0  0  0  0
 23 25  1  0  0  0  0
  1 30  1  0  0  0  0
  2 31  1  0  0  0  0
  3 32  1  0  0  0  0
  4 33  1  0  0  0  0
  5 34  1  0  0  0  0
  6 35  1  0  0  0  0
 12 36  1  0  0  0  0
 13 37  1  0  0  0  0
 14 38  1  0  0  0  0
 15 39  1  0  0  0  0
 17 40  1  0  0  0  0
 17 41  1  0  0  0  0
 17 42  1  0  0  0  0
 18 43  1  0  0  0  0
 18 44  1  0  0  0  0
 18 45  1  0  0  0  0
 19 46  1  0  0  0  0
 19 47  1  0  0  0  0
 19 48  1  0  0  0  0
 20 49  1  0  0  0  0
 20 50  1  0  0  0  0
 26 51  1  0  0  0  0
M  END
> <clash_score>
0.619940823899837

> <docking_score>
-9.197002410888672

> <overlap_score>
0.976789653301239

$$$$
BENZO_86_1
  -OEChem-08222022163D

 51 54  0     0  0  0  0  0  0999 V2000
   13.4007    0.5725   24.7805 C   0  0  0  0  0  0  0  0  0  0  0  0
   12.0141    0.5273   24.6359 C   0  0  0  0  0  0  0  0  0  0  0  0
    9.0720   -1.1280   24.8640 C   0  0  0  0  0  0  0  0  0  0  0  0
    9.7200   -2.2600   22.8630 C   0  0  0  0  0  0  0  0  0  0  0  0
    8.9960   -2.3380   25.5320 C   0  0  0  0  0  0  0  0  0  0  0  0
    9.6730   -3.4710   23.5300 C   0  0  0  0  0  0  0  0  0  0  0  0
   14.1526    1.4666   24.0184 C   0  0  0  0  0  0  0  0  0  0  0  0
   12.1314    2.2702   22.9668 C   0  0  0  0  0  0  0  0  0  0  0  0
   11.3794    1.3761   23.7290 C   0  0  0  0  0  0  0  0  0  0  0  0
    9.3350   -1.0880   23.5010 C   0  0  0  0  0  0  0  0  0  0  0  0
    9.3070   -3.5340   24.8780 C   0  0  0  0  0  0  0  0  0  0  0  0
   13.5180    2.3154   23.1115 C   0  0  0  0  0  0  0  0  0  0  0  0
    6.1790    0.5730   19.9990 C   0  0  0  0  0  0  0  0  0  0  0  0
    7.3170   -0.1610   19.8550 C   0  0  0  0  0  0  0  0  0  0  0  0
    5.4210    0.9600   21.0930 C   0  0  0  0  0  0  0  0  0  0  0  0
    4.2750    1.7050   20.8490 C   0  0  0  0  0  0  0  0  0  0  0  0
    3.9160    2.0630   19.5520 C   0  0  0  0  0  0  0  0  0  0  0  0
    4.6890    1.6810   18.4640 C   0  0  0  0  0  0  0  0  0  0  0  0
    9.0420    0.3700   21.5280 C   0  0  0  0  0  0  0  0  0  0  0  0
    8.0128   -5.2151   26.1416 C   0  0  0  0  0  0  0  0  0  0  0  0
   10.4372   -5.5860   25.6589 C   0  0  0  0  0  0  0  0  0  0  0  0
    9.8870    1.3260   23.5730 C   0  0  0  0  0  0  0  0  0  0  0  0
    7.6390   -0.2680   18.5410 N   0  0  0  0  0  0  0  0  0  0  0  0
    6.7580    0.3810   17.8350 N   0  0  0  0  0  0  0  0  0  0  0  0
    5.8300    0.9190   18.6970 N   0  0  0  0  0  0  0  0  0  0  0  0
    8.1890   -0.7180   20.8700 N   0  0  0  0  0  0  0  0  0  0  0  0
    9.4560    0.1560   22.8130 N   0  0  0  0  0  0  0  0  0  0  0  0
    9.2543   -4.7552   25.5519 N   0  0  0  0  0  0  0  0  0  0  0  0
    9.2690    1.4140   20.9380 O   0  0  0  0  0  0  0  0  0  0  0  0
   14.4463    3.4175   22.1707 Cl  0  0  0  0  0  0  0  0  0  0  0  0
   13.8945   -0.0888   25.4867 H   0  0  0  0  0  0  0  0  0  0  0  0
   11.4361   -0.1726   25.2338 H   0  0  0  0  0  0  0  0  0  0  0  0
    8.9217   -0.1995   25.4232 H   0  0  0  0  0  0  0  0  0  0  0  0
   10.0643   -2.2341   21.8254 H   0  0  0  0  0  0  0  0  0  0  0  0
    8.6893   -2.3540   26.5808 H   0  0  0  0  0  0  0  0  0  0  0  0
    9.9257   -4.3898   22.9921 H   0  0  0  0  0  0  0  0  0  0  0  0
   15.2326    1.4907   24.1414 H   0  0  0  0  0  0  0  0  0  0  0  0
   11.6318    2.9303   22.2615 H   0  0  0  0  0  0  0  0  0  0  0  0
    5.6855    0.7074   22.1002 H   0  0  0  0  0  0  0  0  0  0  0  0
    3.6634    2.0034   21.6926 H   0  0  0  0  0  0  0  0  0  0  0  0
    3.0111    2.6563   19.3629 H   0  0  0  0  0  0  0  0  0  0  0  0
    4.4370    1.9522   17.4626 H   0  0  0  0  0  0  0  0  0  0  0  0
    8.1744   -6.1904   26.6238 H   0  0  0  0  0  0  0  0  0  0  0  0
    7.6718   -4.4870   26.8924 H   0  0  0  0  0  0  0  0  0  0  0  0
    7.2494   -5.3166   25.3561 H   0  0  0  0  0  0  0  0  0  0  0  0
   10.1946   -6.4995   26.2216 H   0  0  0  0  0  0  0  0  0  0  0  0
   10.7865   -5.8577   24.6518 H   0  0  0  0  0  0  0  0  0  0  0  0
   11.2285   -5.0312   26.1842 H   0  0  0  0  0  0  0  0  0  0  0  0
    9.3974    1.2912   24.5523 H   0  0  0  0  0  0  0  0  0  0  0  0
    9.5159    2.2168   23.0553 H   0  0  0  0  0  0  0  0  0  0  0  0
    8.2368   -1.5645   21.0930 H   0  0  0  0  0  0  0  0  0  0  0  0
  1  2  2  0  0  0  0
  1  7  1  0  0  0  0
  2  9  1  0  0  0  0
  3  5  2  0  0  0  0
  3 10  1  0  0  0  0
  4  6  1  0  0  0  0
  4 10  2  0  0  0  0
  5 11  1  0  0  0  0
  6 11  2  0  0  0  0
  7 12  2  0  0  0  0
  8  9  2  0  0  0  0
  8 12  1  0  0  0  0
  9 22  1  0  0  0  0
 10 27  1  0  0  0  0
 11 28  1  0  0  0  0
 12 30  1  0  0  0  0
 13 14  2  0  0  0  0
 13 15  1  0  0  0  0
 13 25  1  0  0  0  0
 14 23  1  0  0  0  0
 14 26  1  0  0  0  0
 15 16  2  0  0  0  0
 16 17  1  0  0  0  0
 17 18  2  0  0  0  0
 18 25  1  0  0  0  0
 19 26  1  0  0  0  0
 19 27  1  0  0  0  0
 19 29  2  0  0  0  0
 20 28  1  0  0  0  0
 21 28  1  0  0  0  0
 22 27  1  0  0  0  0
 23 24  2  0  0  0  0
 24 25  1  0  0  0  0
  1 31  1  0  0  0  0
  2 32  1  0  0  0  0
  3 33  1  0  0  0  0
  4 34  1  0  0  0  0
  5 35  1  0  0  0  0
  6 36  1  0  0  0  0
  7 37  1  0  0  0  0
  8 38  1  0  0  0  0
 15 39  1  0  0  0  0
 16 40  1  0  0  0  0
 17 41  1  0  0  0  0
 18 42  1  0  0  0  0
 20 43  1  0  0  0  0
 20 44  1  0  0  0  0
 20 45  1  0  0  0  0
 21 46  1  0  0  0  0
 21 47  1  0  0  0  0
 21 48  1  0  0  0  0
 22 49  1  0  0  0  0
 22 50  1  0  0  0  0
 26 51  1  0  0  0  0
M  END
> <clash_score>
0

> <docking_score>
-8.625970840454102

> <overlap_score>
0.9891858696937561

$$$$
BENZO_89_1
  -OEChem-08222022163D

 53 56  0     0  0  0  0  0  0999 V2000
   14.1526    1.4694   24.0176 C   0  0  0  0  0  0  0  0  0  0  0  0
   13.3741    0.8121   24.9701 C   0  0  0  0  0  0  0  0  0  0  0  0
   13.5446    2.0802   22.9208 C   0  0  0  0  0  0  0  0  0  0  0  0
   11.9875    0.7654   24.8258 C   0  0  0  0  0  0  0  0  0  0  0  0
   12.1580    2.0335   22.7765 C   0  0  0  0  0  0  0  0  0  0  0  0
    8.9960   -2.3380   25.5320 C   0  0  0  0  0  0  0  0  0  0  0  0
    9.6730   -3.4710   23.5300 C   0  0  0  0  0  0  0  0  0  0  0  0
    9.0720   -1.1280   24.8640 C   0  0  0  0  0  0  0  0  0  0  0  0
    9.7200   -2.2600   22.8630 C   0  0  0  0  0  0  0  0  0  0  0  0
   11.3794    1.3761   23.7290 C   0  0  0  0  0  0  0  0  0  0  0  0
    9.3070   -3.5340   24.8780 C   0  0  0  0  0  0  0  0  0  0  0  0
    9.3350   -1.0880   23.5010 C   0  0  0  0  0  0  0  0  0  0  0  0
    6.1790    0.5730   19.9990 C   0  0  0  0  0  0  0  0  0  0  0  0
    7.3170   -0.1610   19.8550 C   0  0  0  0  0  0  0  0  0  0  0  0
    5.4210    0.9600   21.0930 C   0  0  0  0  0  0  0  0  0  0  0  0
    4.2750    1.7050   20.8490 C   0  0  0  0  0  0  0  0  0  0  0  0
    3.9160    2.0630   19.5520 C   0  0  0  0  0  0  0  0  0  0  0  0
    4.6890    1.6810   18.4640 C   0  0  0  0  0  0  0  0  0  0  0  0
    9.5334   -6.0236   25.0413 C   0  0  0  0  0  0  0  0  0  0  0  0
    9.0420    0.3700   21.5280 C   0  0  0  0  0  0  0  0  0  0  0  0
   10.6330   -7.3747   26.8774 C   0  0  0  0  0  0  0  0  0  0  0  0
    9.8870    1.3260   23.5730 C   0  0  0  0  0  0  0  0  0  0  0  0
    9.3523   -7.0865   26.1148 C   0  0  0  0  0  0  0  0  0  0  0  0
    7.6390   -0.2680   18.5410 N   0  0  0  0  0  0  0  0  0  0  0  0
    6.7580    0.3810   17.8350 N   0  0  0  0  0  0  0  0  0  0  0  0
    5.8300    0.9190   18.6970 N   0  0  0  0  0  0  0  0  0  0  0  0
    9.2546   -4.7422   25.5438 N   0  0  0  0  0  0  0  0  0  0  0  0
    8.1890   -0.7180   20.8700 N   0  0  0  0  0  0  0  0  0  0  0  0
    9.4560    0.1560   22.8130 N   0  0  0  0  0  0  0  0  0  0  0  0
    9.8806   -6.3052   23.8991 O   0  0  0  0  0  0  0  0  0  0  0  0
    9.2690    1.4140   20.9380 O   0  0  0  0  0  0  0  0  0  0  0  0
   15.2322    1.5068   24.1308 H   0  0  0  0  0  0  0  0  0  0  0  0
   13.8473    0.3374   25.8248 H   0  0  0  0  0  0  0  0  0  0  0  0
   14.1503    2.5930   22.1795 H   0  0  0  0  0  0  0  0  0  0  0  0
   11.3889    0.2508   25.5729 H   0  0  0  0  0  0  0  0  0  0  0  0
   11.6929    2.5120   21.9187 H   0  0  0  0  0  0  0  0  0  0  0  0
    8.6895   -2.3529   26.5807 H   0  0  0  0  0  0  0  0  0  0  0  0
    9.9262   -4.3897   22.9916 H   0  0  0  0  0  0  0  0  0  0  0  0
    8.9224   -0.1998   25.4238 H   0  0  0  0  0  0  0  0  0  0  0  0
   10.0649   -2.2343   21.8258 H   0  0  0  0  0  0  0  0  0  0  0  0
    5.6855    0.7074   22.1002 H   0  0  0  0  0  0  0  0  0  0  0  0
    3.6634    2.0034   21.6926 H   0  0  0  0  0  0  0  0  0  0  0  0
    3.0111    2.6563   19.3629 H   0  0  0  0  0  0  0  0  0  0  0  0
    4.4370    1.9522   17.4626 H   0  0  0  0  0  0  0  0  0  0  0  0
   11.4241   -7.7171   26.2023 H   0  0  0  0  0  0  0  0  0  0  0  0
   10.4629   -8.1531   27.6275 H   0  0  0  0  0  0  0  0  0  0  0  0
   10.9949   -6.4779   27.3911 H   0  0  0  0  0  0  0  0  0  0  0  0
    9.3974    1.2912   24.5523 H   0  0  0  0  0  0  0  0  0  0  0  0
    9.5159    2.2168   23.0553 H   0  0  0  0  0  0  0  0  0  0  0  0
    8.5795   -6.7463   26.8137 H   0  0  0  0  0  0  0  0  0  0  0  0
    8.9966   -8.0064   25.6366 H   0  0  0  0  0  0  0  0  0  0  0  0
    8.9776   -4.7057   26.5317 H   0  0  0  0  0  0  0  0  0  0  0  0
    8.2368   -1.5645   21.0930 H   0  0  0  0  0  0  0  0  0  0  0  0
  1  2  1  0  0  0  0
  1  3  2  0  0  0  0
  2  4  2  0  0  0  0
  3  5  1  0  0  0  0
  4 10  1  0  0  0  0
  5 10  2  0  0  0  0
  6  8  2  0  0  0  0
  6 11  1  0  0  0  0
  7  9  1  0  0  0  0
  7 11  2  0  0  0  0
  8 12  1  0  0  0  0
  9 12  2  0  0  0  0
 10 22  1  0  0  0  0
 11 27  1  0  0  0  0
 12 29  1  0  0  0  0
 13 14  2  0  0  0  0
 13 15  1  0  0  0  0
 13 26  1  0  0  0  0
 14 24  1  0  0  0  0
 14 28  1  0  0  0  0
 15 16  2  0  0  0  0
 16 17  1  0  0  0  0
 17 18  2  0  0  0  0
 18 26  1  0  0  0  0
 19 23  1  0  0  0  0
 19 27  1  0  0  0  0
 19 30  2  0  0  0  0
 20 28  1  0  0  0  0
 20 29  1  0  0  0  0
 20 31  2  0  0  0  0
 21 23  1  0  0  0  0
 22 29  1  0  0  0  0
 24 25  2  0  0  0  0
 25 26  1  0  0  0  0
  1 32  1  0  0  0  0
  2 33  1  0  0  0  0
  3 34  1  0  0  0  0
  4 35  1  0  0  0  0
  5 36  1  0  0  0  0
  6 37  1  0  0  0  0
  7 38  1  0  0  0  0
  8 39  1  0  0  0  0
  9 40  1  0  0  0  0
 15 41  1  0  0  0  0
 16 42  1  0  0  0  0
 17 43  1  0  0  0  0
 18 44  1  0  0  0  0
 21 45  1  0  0  0  0
 21 46  1  0  0  0  0
 21 47  1  0  0  0  0
 22 48  1  0  0  0  0
 22 49  1  0  0  0  0
 23 50  1  0  0  0  0
 23 51  1  0  0  0  0
 27 52  1  0  0  0  0
 28 53  1  0  0  0  0
M  END
> <clash_score>
1.4986177744906917

> <docking_score>
-6.294689178466797

> <overlap_score>
0.9802295565605164

$$$$
BENZO_88_1
  -OEChem-08222022163D

 50 53  0     0  0  0  0  0  0999 V2000
    8.9960   -2.3380   25.5320 C   0  0  0  0  0  0  0  0  0  0  0  0
    9.6730   -3.4710   23.5300 C   0  0  0  0  0  0  0  0  0  0  0  0
    9.0720   -1.1280   24.8640 C   0  0  0  0  0  0  0  0  0  0  0  0
    9.7200   -2.2600   22.8630 C   0  0  0  0  0  0  0  0  0  0  0  0
   12.2111    0.2208   23.7905 C   0  0  0  0  0  0  0  0  0  0  0  0
   13.5412    0.5479   23.9363 C   0  0  0  0  0  0  0  0  0  0  0  0
   12.1057    2.5424   23.8305 C   0  0  0  0  0  0  0  0  0  0  0  0
   11.3794    1.3761   23.7290 C   0  0  0  0  0  0  0  0  0  0  0  0
    9.3070   -3.5340   24.8780 C   0  0  0  0  0  0  0  0  0  0  0  0
    9.3350   -1.0880   23.5010 C   0  0  0  0  0  0  0  0  0  0  0  0
    6.1790    0.5730   19.9990 C   0  0  0  0  0  0  0  0  0  0  0  0
    7.3170   -0.1610   19.8550 C   0  0  0  0  0  0  0  0  0  0  0  0
    5.4210    0.9600   21.0930 C   0  0  0  0  0  0  0  0  0  0  0  0
    4.2750    1.7050   20.8490 C   0  0  0  0  0  0  0  0  0  0  0  0
    3.9160    2.0630   19.5520 C   0  0  0  0  0  0  0  0  0  0  0  0
    4.6890    1.6810   18.4640 C   0  0  0  0  0  0  0  0  0  0  0  0
    9.5334   -6.0236   25.0413 C   0  0  0  0  0  0  0  0  0  0  0  0
    9.0420    0.3700   21.5280 C   0  0  0  0  0  0  0  0  0  0  0  0
   10.6330   -7.3747   26.8774 C   0  0  0  0  0  0  0  0  0  0  0  0
    9.8870    1.3260   23.5730 C   0  0  0  0  0  0  0  0  0  0  0  0
    9.3523   -7.0865   26.1148 C   0  0  0  0  0  0  0  0  0  0  0  0
    7.6390   -0.2680   18.5410 N   0  0  0  0  0  0  0  0  0  0  0  0
    6.7580    0.3810   17.8350 N   0  0  0  0  0  0  0  0  0  0  0  0
    5.8300    0.9190   18.6970 N   0  0  0  0  0  0  0  0  0  0  0  0
    9.2546   -4.7422   25.5438 N   0  0  0  0  0  0  0  0  0  0  0  0
    8.1890   -0.7180   20.8700 N   0  0  0  0  0  0  0  0  0  0  0  0
    9.4560    0.1560   22.8130 N   0  0  0  0  0  0  0  0  0  0  0  0
    9.8806   -6.3052   23.8991 O   0  0  0  0  0  0  0  0  0  0  0  0
    9.2690    1.4140   20.9380 O   0  0  0  0  0  0  0  0  0  0  0  0
   13.7831    2.2420   23.9988 S   0  0  0  0  0  0  0  0  0  0  0  0
    8.6895   -2.3529   26.5807 H   0  0  0  0  0  0  0  0  0  0  0  0
    9.9262   -4.3897   22.9916 H   0  0  0  0  0  0  0  0  0  0  0  0
    8.9224   -0.1998   25.4238 H   0  0  0  0  0  0  0  0  0  0  0  0
   10.0649   -2.2343   21.8258 H   0  0  0  0  0  0  0  0  0  0  0  0
   11.8558   -0.8003   23.7315 H   0  0  0  0  0  0  0  0  0  0  0  0
   14.3824   -0.1267   24.0100 H   0  0  0  0  0  0  0  0  0  0  0  0
   11.7354    3.5581   23.8155 H   0  0  0  0  0  0  0  0  0  0  0  0
    5.6855    0.7074   22.1002 H   0  0  0  0  0  0  0  0  0  0  0  0
    3.6634    2.0034   21.6926 H   0  0  0  0  0  0  0  0  0  0  0  0
    3.0111    2.6563   19.3629 H   0  0  0  0  0  0  0  0  0  0  0  0
    4.4370    1.9522   17.4626 H   0  0  0  0  0  0  0  0  0  0  0  0
   11.4241   -7.7171   26.2023 H   0  0  0  0  0  0  0  0  0  0  0  0
   10.4629   -8.1531   27.6275 H   0  0  0  0  0  0  0  0  0  0  0  0
   10.9949   -6.4779   27.3911 H   0  0  0  0  0  0  0  0  0  0  0  0
    9.3974    1.2912   24.5523 H   0  0  0  0  0  0  0  0  0  0  0  0
    9.5159    2.2168   23.0553 H   0  0  0  0  0  0  0  0  0  0  0  0
    8.5795   -6.7463   26.8137 H   0  0  0  0  0  0  0  0  0  0  0  0
    8.9966   -8.0064   25.6366 H   0  0  0  0  0  0  0  0  0  0  0  0
    8.9776   -4.7057   26.5317 H   0  0  0  0  0  0  0  0  0  0  0  0
    8.2368   -1.5645   21.0930 H   0  0  0  0  0  0  0  0  0  0  0  0
  1  3  2  0  0  0  0
  1  9  1  0  0  0  0
  2  4  1  0  0  0  0
  2  9  2  0  0  0  0
  3 10  1  0  0  0  0
  4 10  2  0  0  0  0
  5  6  2  0  0  0  0
  5  8  1  0  0  0  0
  6 30  1  0  0  0  0
  7  8  2  0  0  0  0
  7 30  1  0  0  0  0
  8 20  1  0  0  0  0
  9 25  1  0  0  0  0
 10 27  1  0  0  0  0
 11 12  2  0  0  0  0
 11 13  1  0  0  0  0
 11 24  1  0  0  0  0
 12 22  1  0  0  0  0
 12 26  1  0  0  0  0
 13 14  2  0  0  0  0
 14 15  1  0  0  0  0
 15 16  2  0  0  0  0
 16 24  1  0  0  0  0
 17 21  1  0  0  0  0
 17 25  1  0  0  0  0
 17 28  2  0  0  0  0
 18 26  1  0  0  0  0
 18 27  1  0  0  0  0
 18 29  2  0  0  0  0
 19 21  1  0  0  0  0
 20 27  1  0  0  0  0
 22 23  2  0  0  0  0
 23 24  1  0  0  0  0
  1 31  1  0  0  0  0
  2 32  1  0  0  0  0
  3 33  1  0  0  0  0
  4 34  1  0  0  0  0
  5 35  1  0  0  0  0
  6 36  1  0  0  0  0
  7 37  1  0  0  0  0
 13 38  1  0  0  0  0
 14 39  1  0  0  0  0
 15 40  1  0  0  0  0
 16 41  1  0  0  0  0
 19 42  1  0  0  0  0
 19 43  1  0  0  0  0
 19 44  1  0  0  0  0
 20 45  1  0  0  0  0
 20 46  1  0  0  0  0
 21 47  1  0  0  0  0
 21 48  1  0  0  0  0
 25 49  1  0  0  0  0
 26 50  1  0  0  0  0
M  END
> <clash_score>
1.4986177744906917

> <docking_score>
-5.567864894866943

> <overlap_score>
0.9652438163757324

$$$$
BENZO_93_1
  -OEChem-08222022163D

 58 62  0     0  0  0  0  0  0999 V2000
   14.1526    1.4694   24.0176 C   0  0  0  0  0  0  0  0  0  0  0  0
   13.3741    0.8121   24.9701 C   0  0  0  0  0  0  0  0  0  0  0  0
   13.5446    2.0802   22.9208 C   0  0  0  0  0  0  0  0  0  0  0  0
   11.9875    0.7654   24.8258 C   0  0  0  0  0  0  0  0  0  0  0  0
   12.1580    2.0335   22.7765 C   0  0  0  0  0  0  0  0  0  0  0  0
    8.9960   -2.3380   25.5320 C   0  0  0  0  0  0  0  0  0  0  0  0
    9.6730   -3.4710   23.5300 C   0  0  0  0  0  0  0  0  0  0  0  0
    9.0720   -1.1280   24.8640 C   0  0  0  0  0  0  0  0  0  0  0  0
    9.7200   -2.2600   22.8630 C   0  0  0  0  0  0  0  0  0  0  0  0
   11.3794    1.3761   23.7290 C   0  0  0  0  0  0  0  0  0  0  0  0
    9.3070   -3.5340   24.8780 C   0  0  0  0  0  0  0  0  0  0  0  0
    9.3350   -1.0880   23.5010 C   0  0  0  0  0  0  0  0  0  0  0  0
    6.1790    0.5730   19.9990 C   0  0  0  0  0  0  0  0  0  0  0  0
    7.3170   -0.1610   19.8550 C   0  0  0  0  0  0  0  0  0  0  0  0
    5.4210    0.9600   21.0930 C   0  0  0  0  0  0  0  0  0  0  0  0
    4.2750    1.7050   20.8490 C   0  0  0  0  0  0  0  0  0  0  0  0
    3.9160    2.0630   19.5520 C   0  0  0  0  0  0  0  0  0  0  0  0
    4.6890    1.6810   18.4640 C   0  0  0  0  0  0  0  0  0  0  0  0
    9.0420    0.3700   21.5280 C   0  0  0  0  0  0  0  0  0  0  0  0
    7.3635   -6.1361   27.1888 C   0  0  0  0  0  0  0  0  0  0  0  0
    8.1961   -4.9735   27.7341 C   0  0  0  0  0  0  0  0  0  0  0  0
    7.1942   -6.0394   25.6709 C   0  0  0  0  0  0  0  0  0  0  0  0
    9.5196   -4.8490   26.9797 C   0  0  0  0  0  0  0  0  0  0  0  0
    8.5442   -5.8838   24.9639 C   0  0  0  0  0  0  0  0  0  0  0  0
    9.8870    1.3260   23.5730 C   0  0  0  0  0  0  0  0  0  0  0  0
    7.6390   -0.2680   18.5410 N   0  0  0  0  0  0  0  0  0  0  0  0
    6.7580    0.3810   17.8350 N   0  0  0  0  0  0  0  0  0  0  0  0
    5.8300    0.9190   18.6970 N   0  0  0  0  0  0  0  0  0  0  0  0
    9.2562   -4.7384   25.5422 N   0  0  0  0  0  0  0  0  0  0  0  0
    8.1890   -0.7180   20.8700 N   0  0  0  0  0  0  0  0  0  0  0  0
    9.4560    0.1560   22.8130 N   0  0  0  0  0  0  0  0  0  0  0  0
    9.2690    1.4140   20.9380 O   0  0  0  0  0  0  0  0  0  0  0  0
   15.2322    1.5068   24.1308 H   0  0  0  0  0  0  0  0  0  0  0  0
   13.8473    0.3374   25.8248 H   0  0  0  0  0  0  0  0  0  0  0  0
   14.1503    2.5930   22.1795 H   0  0  0  0  0  0  0  0  0  0  0  0
   11.3889    0.2508   25.5729 H   0  0  0  0  0  0  0  0  0  0  0  0
   11.6930    2.5120   21.9187 H   0  0  0  0  0  0  0  0  0  0  0  0
    8.6905   -2.3533   26.5810 H   0  0  0  0  0  0  0  0  0  0  0  0
    9.9266   -4.3896   22.9917 H   0  0  0  0  0  0  0  0  0  0  0  0
    8.9233   -0.1992   25.4231 H   0  0  0  0  0  0  0  0  0  0  0  0
   10.0650   -2.2330   21.8256 H   0  0  0  0  0  0  0  0  0  0  0  0
    5.6855    0.7074   22.1002 H   0  0  0  0  0  0  0  0  0  0  0  0
    3.6634    2.0034   21.6926 H   0  0  0  0  0  0  0  0  0  0  0  0
    3.0111    2.6563   19.3629 H   0  0  0  0  0  0  0  0  0  0  0  0
    4.4370    1.9522   17.4626 H   0  0  0  0  0  0  0  0  0  0  0  0
    7.8482   -7.0901   27.4469 H   0  0  0  0  0  0  0  0  0  0  0  0
    6.3760   -6.1438   27.6724 H   0  0  0  0  0  0  0  0  0  0  0  0
    7.6307   -4.0424   27.6403 H   0  0  0  0  0  0  0  0  0  0  0  0
    8.3915   -5.1310   28.7968 H   0  0  0  0  0  0  0  0  0  0  0  0
    6.6888   -6.9376   25.3010 H   0  0  0  0  0  0  0  0  0  0  0  0
    6.5515   -5.1859   25.4257 H   0  0  0  0  0  0  0  0  0  0  0  0
   10.0492   -3.9640   27.3414 H   0  0  0  0  0  0  0  0  0  0  0  0
   10.1431   -5.7254   27.1778 H   0  0  0  0  0  0  0  0  0  0  0  0
    9.1338   -6.7931   25.0868 H   0  0  0  0  0  0  0  0  0  0  0  0
    8.3656   -5.7264   23.8998 H   0  0  0  0  0  0  0  0  0  0  0  0
    9.3974    1.2912   24.5523 H   0  0  0  0  0  0  0  0  0  0  0  0
    9.5159    2.2168   23.0553 H   0  0  0  0  0  0  0  0  0  0  0  0
    8.2565   -1.5523   21.1108 H   0  0  0  0  0  0  0  0  0  0  0  0
  1  2  1  0  0  0  0
  1  3  2  0  0  0  0
  2  4  2  0  0  0  0
  3  5  1  0  0  0  0
  4 10  1  0  0  0  0
  5 10  2  0  0  0  0
  6  8  2  0  0  0  0
  6 11  1  0  0  0  0
  7  9  1  0  0  0  0
  7 11  2  0  0  0  0
  8 12  1  0  0  0  0
  9 12  2  0  0  0  0
 10 25  1  0  0  0  0
 11 29  1  0  0  0  0
 12 31  1  0  0  0  0
 13 14  2  0  0  0  0
 13 15  1  0  0  0  0
 13 28  1  0  0  0  0
 14 26  1  0  0  0  0
 14 30  1  0  0  0  0
 15 16  2  0  0  0  0
 16 17  1  0  0  0  0
 17 18  2  0  0  0  0
 18 28  1  0  0  0  0
 19 30  1  0  0  0  0
 19 31  1  0  0  0  0
 19 32  2  0  0  0  0
 20 21  1  0  0  0  0
 20 22  1  0  0  0  0
 21 23  1  0  0  0  0
 22 24  1  0  0  0  0
 23 29  1  0  0  0  0
 24 29  1  0  0  0  0
 25 31  1  0  0  0  0
 26 27  2  0  0  0  0
 27 28  1  0  0  0  0
  1 33  1  0  0  0  0
  2 34  1  0  0  0  0
  3 35  1  0  0  0  0
  4 36  1  0  0  0  0
  5 37  1  0  0  0  0
  6 38  1  0  0  0  0
  7 39  1  0  0  0  0
  8 40  1  0  0  0  0
  9 41  1  0  0  0  0
 15 42  1  0  0  0  0
 16 43  1  0  0  0  0
 17 44  1  0  0  0  0
 18 45  1  0  0  0  0
 20 46  1  0  0  0  0
 20 47  1  0  0  0  0
 21 48  1  0  0  0  0
 21 49  1  0  0  0  0
 22 50  1  0  0  0  0
 22 51  1  0  0  0  0
 23 52  1  0  0  0  0
 23 53  1  0  0  0  0
 24 54  1  0  0  0  0
 24 55  1  0  0  0  0
 25 56  1  0  0  0  0
 25 57  1  0  0  0  0
 30 58  1  0  0  0  0
M  END
> <clash_score>
0

> <docking_score>
-8.584762573242188

> <overlap_score>
0.9931822419166565

$$$$
BENZO_91_1
  -OEChem-08222022163D

 53 56  0     0  0  0  0  0  0999 V2000
    8.9960   -2.3380   25.5320 C   0  0  0  0  0  0  0  0  0  0  0  0
    9.6730   -3.4710   23.5300 C   0  0  0  0  0  0  0  0  0  0  0  0
    9.0720   -1.1280   24.8640 C   0  0  0  0  0  0  0  0  0  0  0  0
    9.7200   -2.2600   22.8630 C   0  0  0  0  0  0  0  0  0  0  0  0
   12.2914    2.2071   23.0512 C   0  0  0  0  0  0  0  0  0  0  0  0
   12.1614    0.6214   24.5689 C   0  0  0  0  0  0  0  0  0  0  0  0
   11.3794    1.3761   23.7290 C   0  0  0  0  0  0  0  0  0  0  0  0
    9.3070   -3.5340   24.8780 C   0  0  0  0  0  0  0  0  0  0  0  0
    9.3350   -1.0880   23.5010 C   0  0  0  0  0  0  0  0  0  0  0  0
    6.1790    0.5730   19.9990 C   0  0  0  0  0  0  0  0  0  0  0  0
    7.3170   -0.1610   19.8550 C   0  0  0  0  0  0  0  0  0  0  0  0
    5.4210    0.9600   21.0930 C   0  0  0  0  0  0  0  0  0  0  0  0
    4.2750    1.7050   20.8490 C   0  0  0  0  0  0  0  0  0  0  0  0
    3.9160    2.0630   19.5520 C   0  0  0  0  0  0  0  0  0  0  0  0
    4.6890    1.6810   18.4640 C   0  0  0  0  0  0  0  0  0  0  0  0
    9.5334   -6.0236   25.0413 C   0  0  0  0  0  0  0  0  0  0  0  0
    9.0420    0.3700   21.5280 C   0  0  0  0  0  0  0  0  0  0  0  0
   10.6330   -7.3747   26.8774 C   0  0  0  0  0  0  0  0  0  0  0  0
   14.6267    0.5248   25.0067 C   0  0  0  0  0  0  0  0  0  0  0  0
    9.8870    1.3260   23.5730 C   0  0  0  0  0  0  0  0  0  0  0  0
    9.3523   -7.0865   26.1148 C   0  0  0  0  0  0  0  0  0  0  0  0
   13.5560    2.0002   23.4280 N   0  0  0  0  0  0  0  0  0  0  0  0
    7.6390   -0.2680   18.5410 N   0  0  0  0  0  0  0  0  0  0  0  0
    6.7580    0.3810   17.8350 N   0  0  0  0  0  0  0  0  0  0  0  0
   13.4442    1.0306   24.3518 N   0  0  0  0  0  0  0  0  0  0  0  0
    5.8300    0.9190   18.6970 N   0  0  0  0  0  0  0  0  0  0  0  0
    9.2546   -4.7422   25.5438 N   0  0  0  0  0  0  0  0  0  0  0  0
    8.1890   -0.7180   20.8700 N   0  0  0  0  0  0  0  0  0  0  0  0
    9.4560    0.1560   22.8130 N   0  0  0  0  0  0  0  0  0  0  0  0
    9.8806   -6.3052   23.8991 O   0  0  0  0  0  0  0  0  0  0  0  0
    9.2690    1.4140   20.9380 O   0  0  0  0  0  0  0  0  0  0  0  0
    8.6895   -2.3529   26.5807 H   0  0  0  0  0  0  0  0  0  0  0  0
    9.9262   -4.3897   22.9916 H   0  0  0  0  0  0  0  0  0  0  0  0
    8.9224   -0.1998   25.4238 H   0  0  0  0  0  0  0  0  0  0  0  0
   10.0649   -2.2343   21.8258 H   0  0  0  0  0  0  0  0  0  0  0  0
   12.0895    2.9562   22.2987 H   0  0  0  0  0  0  0  0  0  0  0  0
   11.9202   -0.1518   25.2857 H   0  0  0  0  0  0  0  0  0  0  0  0
    5.6855    0.7074   22.1002 H   0  0  0  0  0  0  0  0  0  0  0  0
    3.6634    2.0034   21.6926 H   0  0  0  0  0  0  0  0  0  0  0  0
    3.0111    2.6563   19.3629 H   0  0  0  0  0  0  0  0  0  0  0  0
    4.4370    1.9522   17.4626 H   0  0  0  0  0  0  0  0  0  0  0  0
   11.4241   -7.7171   26.2023 H   0  0  0  0  0  0  0  0  0  0  0  0
   10.4629   -8.1531   27.6275 H   0  0  0  0  0  0  0  0  0  0  0  0
   10.9949   -6.4779   27.3911 H   0  0  0  0  0  0  0  0  0  0  0  0
   15.0068   -0.3132   24.4165 H   0  0  0  0  0  0  0  0  0  0  0  0
   15.3758    1.3189   25.0698 H   0  0  0  0  0  0  0  0  0  0  0  0
   14.3676    0.1958   26.0170 H   0  0  0  0  0  0  0  0  0  0  0  0
    9.3974    1.2912   24.5523 H   0  0  0  0  0  0  0  0  0  0  0  0
    9.5159    2.2168   23.0553 H   0  0  0  0  0  0  0  0  0  0  0  0
    8.5795   -6.7463   26.8137 H   0  0  0  0  0  0  0  0  0  0  0  0
    8.9966   -8.0064   25.6366 H   0  0  0  0  0  0  0  0  0  0  0  0
    8.9776   -4.7057   26.5317 H   0  0  0  0  0  0  0  0  0  0  0  0
    8.2368   -1.5645   21.0930 H   0  0  0  0  0  0  0  0  0  0  0  0
  1  3  2  0  0  0  0
  1  8  1  0  0  0  0
  2  4  1  0  0  0  0
  2  8  2  0  0  0  0
  3  9  1  0  0  0  0
  4  9  2  0  0  0  0
  5  7  1  0  0  0  0
  5 22  2  0  0  0  0
  6  7  2  0  0  0  0
  6 25  1  0  0  0  0
  7 20  1  0  0  0  0
  8 27  1  0  0  0  0
  9 29  1  0  0  0  0
 10 11  2  0  0  0  0
 10 12  1  0  0  0  0
 10 26  1  0  0  0  0
 11 23  1  0  0  0  0
 11 28  1  0  0  0  0
 12 13  2  0  0  0  0
 13 14  1  0  0  0  0
 14 15  2  0  0  0  0
 15 26  1  0  0  0  0
 16 21  1  0  0  0  0
 16 27  1  0  0  0  0
 16 30  2  0  0  0  0
 17 28  1  0  0  0  0
 17 29  1  0  0  0  0
 17 31  2  0  0  0  0
 18 21  1  0  0  0  0
 19 25  1  0  0  0  0
 20 29  1  0  0  0  0
 22 25  1  0  0  0  0
 23 24  2  0  0  0  0
 24 26  1  0  0  0  0
  1 32  1  0  0  0  0
  2 33  1  0  0  0  0
  3 34  1  0  0  0  0
  4 35  1  0  0  0  0
  5 36  1  0  0  0  0
  6 37  1  0  0  0  0
 12 38  1  0  0  0  0
 13 39  1  0  0  0  0
 14 40  1  0  0  0  0
 15 41  1  0  0  0  0
 18 42  1  0  0  0  0
 18 43  1  0  0  0  0
 18 44  1  0  0  0  0
 19 45  1  0  0  0  0
 19 46  1  0  0  0  0
 19 47  1  0  0  0  0
 20 48  1  0  0  0  0
 20 49  1  0  0  0  0
 21 50  1  0  0  0  0
 21 51  1  0  0  0  0
 27 52  1  0  0  0  0
 28 53  1  0  0  0  0
M  END
> <clash_score>
2.1185585983905284

> <docking_score>
-6.002694129943848

> <overlap_score>
0.9790109992027283

$$$$
BENZO_90_1
  -OEChem-08222022163D

 53 56  0     0  0  0  0  0  0999 V2000
   13.4007    0.5725   24.7805 C   0  0  0  0  0  0  0  0  0  0  0  0
   12.0141    0.5273   24.6359 C   0  0  0  0  0  0  0  0  0  0  0  0
    8.9960   -2.3380   25.5320 C   0  0  0  0  0  0  0  0  0  0  0  0
    9.6730   -3.4710   23.5300 C   0  0  0  0  0  0  0  0  0  0  0  0
    9.0720   -1.1280   24.8640 C   0  0  0  0  0  0  0  0  0  0  0  0
    9.7200   -2.2600   22.8630 C   0  0  0  0  0  0  0  0  0  0  0  0
   14.1526    1.4666   24.0184 C   0  0  0  0  0  0  0  0  0  0  0  0
   12.1314    2.2702   22.9668 C   0  0  0  0  0  0  0  0  0  0  0  0
   11.3794    1.3761   23.7290 C   0  0  0  0  0  0  0  0  0  0  0  0
    9.3070   -3.5340   24.8780 C   0  0  0  0  0  0  0  0  0  0  0  0
    9.3350   -1.0880   23.5010 C   0  0  0  0  0  0  0  0  0  0  0  0
   13.5180    2.3154   23.1115 C   0  0  0  0  0  0  0  0  0  0  0  0
    6.1790    0.5730   19.9990 C   0  0  0  0  0  0  0  0  0  0  0  0
    7.3170   -0.1610   19.8550 C   0  0  0  0  0  0  0  0  0  0  0  0
    5.4210    0.9600   21.0930 C   0  0  0  0  0  0  0  0  0  0  0  0
    4.2750    1.7050   20.8490 C   0  0  0  0  0  0  0  0  0  0  0  0
    3.9160    2.0630   19.5520 C   0  0  0  0  0  0  0  0  0  0  0  0
    4.6890    1.6810   18.4640 C   0  0  0  0  0  0  0  0  0  0  0  0
    9.5334   -6.0236   25.0413 C   0  0  0  0  0  0  0  0  0  0  0  0
    9.0420    0.3700   21.5280 C   0  0  0  0  0  0  0  0  0  0  0  0
   10.6330   -7.3747   26.8774 C   0  0  0  0  0  0  0  0  0  0  0  0
    9.8870    1.3260   23.5730 C   0  0  0  0  0  0  0  0  0  0  0  0
    9.3523   -7.0865   26.1148 C   0  0  0  0  0  0  0  0  0  0  0  0
    7.6390   -0.2680   18.5410 N   0  0  0  0  0  0  0  0  0  0  0  0
    6.7580    0.3810   17.8350 N   0  0  0  0  0  0  0  0  0  0  0  0
    5.8300    0.9190   18.6970 N   0  0  0  0  0  0  0  0  0  0  0  0
    9.2546   -4.7422   25.5438 N   0  0  0  0  0  0  0  0  0  0  0  0
    8.1890   -0.7180   20.8700 N   0  0  0  0  0  0  0  0  0  0  0  0
    9.4560    0.1560   22.8130 N   0  0  0  0  0  0  0  0  0  0  0  0
    9.8806   -6.3052   23.8991 O   0  0  0  0  0  0  0  0  0  0  0  0
    9.2690    1.4140   20.9380 O   0  0  0  0  0  0  0  0  0  0  0  0
   14.4463    3.4175   22.1707 Cl  0  0  0  0  0  0  0  0  0  0  0  0
   13.8945   -0.0888   25.4867 H   0  0  0  0  0  0  0  0  0  0  0  0
   11.4361   -0.1726   25.2338 H   0  0  0  0  0  0  0  0  0  0  0  0
    8.6895   -2.3529   26.5807 H   0  0  0  0  0  0  0  0  0  0  0  0
    9.9262   -4.3897   22.9916 H   0  0  0  0  0  0  0  0  0  0  0  0
    8.9224   -0.1998   25.4238 H   0  0  0  0  0  0  0  0  0  0  0  0
   10.0649   -2.2343   21.8258 H   0  0  0  0  0  0  0  0  0  0  0  0
   15.2326    1.4907   24.1414 H   0  0  0  0  0  0  0  0  0  0  0  0
   11.6318    2.9303   22.2615 H   0  0  0  0  0  0  0  0  0  0  0  0
    5.6855    0.7074   22.1002 H   0  0  0  0  0  0  0  0  0  0  0  0
    3.6634    2.0034   21.6926 H   0  0  0  0  0  0  0  0  0  0  0  0
    3.0111    2.6563   19.3629 H   0  0  0  0  0  0  0  0  0  0  0  0
    4.4370    1.9522   17.4626 H   0  0  0  0  0  0  0  0  0  0  0  0
   11.4241   -7.7171   26.2023 H   0  0  0  0  0  0  0  0  0  0  0  0
   10.4629   -8.1531   27.6275 H   0  0  0  0  0  0  0  0  0  0  0  0
   10.9949   -6.4779   27.3911 H   0  0  0  0  0  0  0  0  0  0  0  0
    9.3974    1.2912   24.5523 H   0  0  0  0  0  0  0  0  0  0  0  0
    9.5159    2.2168   23.0553 H   0  0  0  0  0  0  0  0  0  0  0  0
    8.5795   -6.7463   26.8137 H   0  0  0  0  0  0  0  0  0  0  0  0
    8.9966   -8.0064   25.6366 H   0  0  0  0  0  0  0  0  0  0  0  0
    8.9776   -4.7057   26.5317 H   0  0  0  0  0  0  0  0  0  0  0  0
    8.2368   -1.5645   21.0930 H   0  0  0  0  0  0  0  0  0  0  0  0
  1  2  2  0  0  0  0
  1  7  1  0  0  0  0
  2  9  1  0  0  0  0
  3  5  2  0  0  0  0
  3 10  1  0  0  0  0
  4  6  1  0  0  0  0
  4 10  2  0  0  0  0
  5 11  1  0  0  0  0
  6 11  2  0  0  0  0
  7 12  2  0  0  0  0
  8  9  2  0  0  0  0
  8 12  1  0  0  0  0
  9 22  1  0  0  0  0
 10 27  1  0  0  0  0
 11 29  1  0  0  0  0
 12 32  1  0  0  0  0
 13 14  2  0  0  0  0
 13 15  1  0  0  0  0
 13 26  1  0  0  0  0
 14 24  1  0  0  0  0
 14 28  1  0  0  0  0
 15 16  2  0  0  0  0
 16 17  1  0  0  0  0
 17 18  2  0  0  0  0
 18 26  1  0  0  0  0
 19 23  1  0  0  0  0
 19 27  1  0  0  0  0
 19 30  2  0  0  0  0
 20 28  1  0  0  0  0
 20 29  1  0  0  0  0
 20 31  2  0  0  0  0
 21 23  1  0  0  0  0
 22 29  1  0  0  0  0
 24 25  2  0  0  0  0
 25 26  1  0  0  0  0
  1 33  1  0  0  0  0
  2 34  1  0  0  0  0
  3 35  1  0  0  0  0
  4 36  1  0  0  0  0
  5 37  1  0  0  0  0
  6 38  1  0  0  0  0
  7 39  1  0  0  0  0
  8 40  1  0  0  0  0
 15 41  1  0  0  0  0
 16 42  1  0  0  0  0
 17 43  1  0  0  0  0
 18 44  1  0  0  0  0
 21 45  1  0  0  0  0
 21 46  1  0  0  0  0
 21 47  1  0  0  0  0
 22 48  1  0  0  0  0
 22 49  1  0  0  0  0
 23 50  1  0  0  0  0
 23 51  1  0  0  0  0
 27 52  1  0  0  0  0
 28 53  1  0  0  0  0
M  END
> <clash_score>
1.4986177744906917

> <docking_score>
-5.431662559509277

> <overlap_score>
0.9913631677627563

$$$$
BENZO_92_1
  -OEChem-08222022163D

 55 59  0     0  0  0  0  0  0999 V2000
    8.9960   -2.3380   25.5320 C   0  0  0  0  0  0  0  0  0  0  0  0
    9.6730   -3.4710   23.5300 C   0  0  0  0  0  0  0  0  0  0  0  0
    9.0720   -1.1280   24.8640 C   0  0  0  0  0  0  0  0  0  0  0  0
    9.7200   -2.2600   22.8630 C   0  0  0  0  0  0  0  0  0  0  0  0
   12.2913    1.4279   22.6355 C   0  0  0  0  0  0  0  0  0  0  0  0
   13.6024    1.4662   23.0564 C   0  0  0  0  0  0  0  0  0  0  0  0
   12.0284    1.3764   24.9443 C   0  0  0  0  0  0  0  0  0  0  0  0
   11.3794    1.3761   23.7290 C   0  0  0  0  0  0  0  0  0  0  0  0
    9.3070   -3.5340   24.8780 C   0  0  0  0  0  0  0  0  0  0  0  0
    9.3350   -1.0880   23.5010 C   0  0  0  0  0  0  0  0  0  0  0  0
    6.1790    0.5730   19.9990 C   0  0  0  0  0  0  0  0  0  0  0  0
    7.3170   -0.1610   19.8550 C   0  0  0  0  0  0  0  0  0  0  0  0
    5.4210    0.9600   21.0930 C   0  0  0  0  0  0  0  0  0  0  0  0
    4.2750    1.7050   20.8490 C   0  0  0  0  0  0  0  0  0  0  0  0
    3.9160    2.0630   19.5520 C   0  0  0  0  0  0  0  0  0  0  0  0
    4.6890    1.6810   18.4640 C   0  0  0  0  0  0  0  0  0  0  0  0
    9.0420    0.3700   21.5280 C   0  0  0  0  0  0  0  0  0  0  0  0
    7.2235   -6.6199   26.3009 C   0  0  0  0  0  0  0  0  0  0  0  0
    7.4293   -5.3101   27.0652 C   0  0  0  0  0  0  0  0  0  0  0  0
    7.7217   -6.5099   24.8580 C   0  0  0  0  0  0  0  0  0  0  0  0
    8.8782   -4.8357   26.9548 C   0  0  0  0  0  0  0  0  0  0  0  0
    9.1652   -6.0007   24.7995 C   0  0  0  0  0  0  0  0  0  0  0  0
    9.8870    1.3260   23.5730 C   0  0  0  0  0  0  0  0  0  0  0  0
    7.6390   -0.2680   18.5410 N   0  0  0  0  0  0  0  0  0  0  0  0
    6.7580    0.3810   17.8350 N   0  0  0  0  0  0  0  0  0  0  0  0
    5.8300    0.9190   18.6970 N   0  0  0  0  0  0  0  0  0  0  0  0
    9.2562   -4.7384   25.5422 N   0  0  0  0  0  0  0  0  0  0  0  0
    8.1890   -0.7180   20.8700 N   0  0  0  0  0  0  0  0  0  0  0  0
    9.4560    0.1560   22.8130 N   0  0  0  0  0  0  0  0  0  0  0  0
    9.2690    1.4140   20.9380 O   0  0  0  0  0  0  0  0  0  0  0  0
   13.7301    1.4394   24.7638 S   0  0  0  0  0  0  0  0  0  0  0  0
    8.6905   -2.3533   26.5810 H   0  0  0  0  0  0  0  0  0  0  0  0
    9.9266   -4.3896   22.9917 H   0  0  0  0  0  0  0  0  0  0  0  0
    8.9233   -0.1992   25.4231 H   0  0  0  0  0  0  0  0  0  0  0  0
   10.0650   -2.2330   21.8256 H   0  0  0  0  0  0  0  0  0  0  0  0
   12.0045    1.4365   21.5915 H   0  0  0  0  0  0  0  0  0  0  0  0
   14.4914    1.5078   22.4431 H   0  0  0  0  0  0  0  0  0  0  0  0
   11.5886    1.3416   25.9314 H   0  0  0  0  0  0  0  0  0  0  0  0
    5.6855    0.7074   22.1002 H   0  0  0  0  0  0  0  0  0  0  0  0
    3.6634    2.0034   21.6926 H   0  0  0  0  0  0  0  0  0  0  0  0
    3.0111    2.6563   19.3629 H   0  0  0  0  0  0  0  0  0  0  0  0
    4.4370    1.9522   17.4626 H   0  0  0  0  0  0  0  0  0  0  0  0
    7.7559   -7.4347   26.8149 H   0  0  0  0  0  0  0  0  0  0  0  0
    6.1572   -6.8883   26.3055 H   0  0  0  0  0  0  0  0  0  0  0  0
    6.7602   -4.5435   26.6651 H   0  0  0  0  0  0  0  0  0  0  0  0
    7.1684   -5.4551   28.1155 H   0  0  0  0  0  0  0  0  0  0  0  0
    7.6595   -7.4899   24.3736 H   0  0  0  0  0  0  0  0  0  0  0  0
    7.0706   -5.8317   24.2943 H   0  0  0  0  0  0  0  0  0  0  0  0
    8.9681   -3.8621   27.4435 H   0  0  0  0  0  0  0  0  0  0  0  0
    9.5387   -5.5390   27.4697 H   0  0  0  0  0  0  0  0  0  0  0  0
    9.8374   -6.7413   25.2344 H   0  0  0  0  0  0  0  0  0  0  0  0
    9.4414   -5.8515   23.7552 H   0  0  0  0  0  0  0  0  0  0  0  0
    9.3974    1.2912   24.5523 H   0  0  0  0  0  0  0  0  0  0  0  0
    9.5159    2.2168   23.0553 H   0  0  0  0  0  0  0  0  0  0  0  0
    8.2565   -1.5523   21.1108 H   0  0  0  0  0  0  0  0  0  0  0  0
  1  3  2  0  0  0  0
  1  9  1  0  0  0  0
  2  4  1  0  0  0  0
  2  9  2  0  0  0  0
  3 10  1  0  0  0  0
  4 10  2  0  0  0  0
  5  6  2  0  0  0  0
  5  8  1  0  0  0  0
  6 31  1  0  0  0  0
  7  8  2  0  0  0  0
  7 31  1  0  0  0  0
  8 23  1  0  0  0  0
  9 27  1  0  0  0  0
 10 29  1  0  0  0  0
 11 12  2  0  0  0  0
 11 13  1  0  0  0  0
 11 26  1  0  0  0  0
 12 24  1  0  0  0  0
 12 28  1  0  0  0  0
 13 14  2  0  0  0  0
 14 15  1  0  0  0  0
 15 16  2  0  0  0  0
 16 26  1  0  0  0  0
 17 28  1  0  0  0  0
 17 29  1  0  0  0  0
 17 30  2  0  0  0  0
 18 19  1  0  0  0  0
 18 20  1  0  0  0  0
 19 21  1  0  0  0  0
 20 22  1  0  0  0  0
 21 27  1  0  0  0  0
 22 27  1  0  0  0  0
 23 29  1  0  0  0  0
 24 25  2  0  0  0  0
 25 26  1  0  0  0  0
  1 32  1  0  0  0  0
  2 33  1  0  0  0  0
  3 34  1  0  0  0  0
  4 35  1  0  0  0  0
  5 36  1  0  0  0  0
  6 37  1  0  0  0  0
  7 38  1  0  0  0  0
 13 39  1  0  0  0  0
 14 40  1  0  0  0  0
 15 41  1  0  0  0  0
 16 42  1  0  0  0  0
 18 43  1  0  0  0  0
 18 44  1  0  0  0  0
 19 45  1  0  0  0  0
 19 46  1  0  0  0  0
 20 47  1  0  0  0  0
 20 48  1  0  0  0  0
 21 49  1  0  0  0  0
 21 50  1  0  0  0  0
 22 51  1  0  0  0  0
 22 52  1  0  0  0  0
 23 53  1  0  0  0  0
 23 54  1  0  0  0  0
 28 55  1  0  0  0  0
M  END
> <clash_score>
0

> <docking_score>
-8.487247467041016

> <overlap_score>
0.9782364964485168

$$$$
BENZO_97_1
  -OEChem-08222022163D

 46 49  0     0  0  0  0  0  0999 V2000
   14.1526    1.4694   24.0176 C   0  0  0  0  0  0  0  0  0  0  0  0
   13.3741    0.8121   24.9701 C   0  0  0  0  0  0  0  0  0  0  0  0
   13.5446    2.0802   22.9208 C   0  0  0  0  0  0  0  0  0  0  0  0
   11.9875    0.7654   24.8258 C   0  0  0  0  0  0  0  0  0  0  0  0
   12.1580    2.0335   22.7765 C   0  0  0  0  0  0  0  0  0  0  0  0
    8.9960   -2.3380   25.5320 C   0  0  0  0  0  0  0  0  0  0  0  0
    9.6730   -3.4710   23.5300 C   0  0  0  0  0  0  0  0  0  0  0  0
    9.0720   -1.1280   24.8640 C   0  0  0  0  0  0  0  0  0  0  0  0
    9.7200   -2.2600   22.8630 C   0  0  0  0  0  0  0  0  0  0  0  0
    9.3070   -3.5340   24.8780 C   0  0  0  0  0  0  0  0  0  0  0  0
   11.3794    1.3761   23.7290 C   0  0  0  0  0  0  0  0  0  0  0  0
    9.3350   -1.0880   23.5010 C   0  0  0  0  0  0  0  0  0  0  0  0
    6.1790    0.5730   19.9990 C   0  0  0  0  0  0  0  0  0  0  0  0
    7.3170   -0.1610   19.8550 C   0  0  0  0  0  0  0  0  0  0  0  0
    5.4210    0.9600   21.0930 C   0  0  0  0  0  0  0  0  0  0  0  0
    4.2750    1.7050   20.8490 C   0  0  0  0  0  0  0  0  0  0  0  0
    3.9160    2.0630   19.5520 C   0  0  0  0  0  0  0  0  0  0  0  0
    4.6890    1.6810   18.4640 C   0  0  0  0  0  0  0  0  0  0  0  0
    9.0420    0.3700   21.5280 C   0  0  0  0  0  0  0  0  0  0  0  0
    9.2505   -4.8264   25.5904 C   0  0  0  0  0  0  0  0  0  0  0  0
    9.8870    1.3260   23.5730 C   0  0  0  0  0  0  0  0  0  0  0  0
    7.6390   -0.2680   18.5410 N   0  0  0  0  0  0  0  0  0  0  0  0
    6.7580    0.3810   17.8350 N   0  0  0  0  0  0  0  0  0  0  0  0
    5.8300    0.9190   18.6970 N   0  0  0  0  0  0  0  0  0  0  0  0
    8.1890   -0.7180   20.8700 N   0  0  0  0  0  0  0  0  0  0  0  0
    9.4560    0.1560   22.8130 N   0  0  0  0  0  0  0  0  0  0  0  0
    9.2690    1.4140   20.9380 O   0  0  0  0  0  0  0  0  0  0  0  0
   15.2322    1.5068   24.1308 H   0  0  0  0  0  0  0  0  0  0  0  0
   13.8473    0.3374   25.8248 H   0  0  0  0  0  0  0  0  0  0  0  0
   14.1503    2.5930   22.1795 H   0  0  0  0  0  0  0  0  0  0  0  0
   11.3889    0.2508   25.5729 H   0  0  0  0  0  0  0  0  0  0  0  0
   11.6929    2.5120   21.9187 H   0  0  0  0  0  0  0  0  0  0  0  0
    8.6919   -2.3557   26.5813 H   0  0  0  0  0  0  0  0  0  0  0  0
    9.9267   -4.3907   22.9939 H   0  0  0  0  0  0  0  0  0  0  0  0
    8.9217   -0.1995   25.4231 H   0  0  0  0  0  0  0  0  0  0  0  0
   10.0653   -2.2339   21.8256 H   0  0  0  0  0  0  0  0  0  0  0  0
    5.6855    0.7074   22.1002 H   0  0  0  0  0  0  0  0  0  0  0  0
    3.6634    2.0034   21.6926 H   0  0  0  0  0  0  0  0  0  0  0  0
    3.0111    2.6563   19.3629 H   0  0  0  0  0  0  0  0  0  0  0  0
    4.4370    1.9522   17.4626 H   0  0  0  0  0  0  0  0  0  0  0  0
    8.2503   -5.2678   25.5020 H   0  0  0  0  0  0  0  0  0  0  0  0
    9.9817   -5.5374   25.1845 H   0  0  0  0  0  0  0  0  0  0  0  0
    9.4841   -4.7043   26.6562 H   0  0  0  0  0  0  0  0  0  0  0  0
    9.3974    1.2912   24.5523 H   0  0  0  0  0  0  0  0  0  0  0  0
    9.5159    2.2168   23.0553 H   0  0  0  0  0  0  0  0  0  0  0  0
    8.2368   -1.5645   21.0930 H   0  0  0  0  0  0  0  0  0  0  0  0
  1  2  1  0  0  0  0
  1  3  2  0  0  0  0
  2  4  2  0  0  0  0
  3  5  1  0  0  0  0
  4 11  1  0  0  0  0
  5 11  2  0  0  0  0
  6  8  2  0  0  0  0
  6 10  1  0  0  0  0
  7  9  1  0  0  0  0
  7 10  2  0  0  0  0
  8 12  1  0  0  0  0
  9 12  2  0  0  0  0
 10 20  1  0  0  0  0
 11 21  1  0  0  0  0
 12 26  1  0  0  0  0
 13 14  2  0  0  0  0
 13 15  1  0  0  0  0
 13 24  1  0  0  0  0
 14 22  1  0  0  0  0
 14 25  1  0  0  0  0
 15 16  2  0  0  0  0
 16 17  1  0  0  0  0
 17 18  2  0  0  0  0
 18 24  1  0  0  0  0
 19 25  1  0  0  0  0
 19 26  1  0  0  0  0
 19 27  2  0  0  0  0
 21 26  1  0  0  0  0
 22 23  2  0  0  0  0
 23 24  1  0  0  0  0
  1 28  1  0  0  0  0
  2 29  1  0  0  0  0
  3 30  1  0  0  0  0
  4 31  1  0  0  0  0
  5 32  1  0  0  0  0
  6 33  1  0  0  0  0
  7 34  1  0  0  0  0
  8 35  1  0  0  0  0
  9 36  1  0  0  0  0
 15 37  1  0  0  0  0
 16 38  1  0  0  0  0
 17 39  1  0  0  0  0
 18 40  1  0  0  0  0
 20 41  1  0  0  0  0
 20 42  1  0  0  0  0
 20 43  1  0  0  0  0
 21 44  1  0  0  0  0
 21 45  1  0  0  0  0
 25 46  1  0  0  0  0
M  END
> <clash_score>
0

> <docking_score>
-8.829793930053711

> <overlap_score>
0.9394527077674866

$$$$
BENZO_96_1
  -OEChem-08222022163D

 43 46  0     0  0  0  0  0  0999 V2000
    8.9960   -2.3380   25.5320 C   0  0  0  0  0  0  0  0  0  0  0  0
    9.6730   -3.4710   23.5300 C   0  0  0  0  0  0  0  0  0  0  0  0
    9.0720   -1.1280   24.8640 C   0  0  0  0  0  0  0  0  0  0  0  0
    9.7200   -2.2600   22.8630 C   0  0  0  0  0  0  0  0  0  0  0  0
   12.2111    0.2208   23.7905 C   0  0  0  0  0  0  0  0  0  0  0  0
   13.5412    0.5479   23.9363 C   0  0  0  0  0  0  0  0  0  0  0  0
   12.1057    2.5424   23.8305 C   0  0  0  0  0  0  0  0  0  0  0  0
    9.3070   -3.5340   24.8780 C   0  0  0  0  0  0  0  0  0  0  0  0
   11.3794    1.3761   23.7290 C   0  0  0  0  0  0  0  0  0  0  0  0
    9.3350   -1.0880   23.5010 C   0  0  0  0  0  0  0  0  0  0  0  0
    6.1790    0.5730   19.9990 C   0  0  0  0  0  0  0  0  0  0  0  0
    7.3170   -0.1610   19.8550 C   0  0  0  0  0  0  0  0  0  0  0  0
    5.4210    0.9600   21.0930 C   0  0  0  0  0  0  0  0  0  0  0  0
    4.2750    1.7050   20.8490 C   0  0  0  0  0  0  0  0  0  0  0  0
    3.9160    2.0630   19.5520 C   0  0  0  0  0  0  0  0  0  0  0  0
    4.6890    1.6810   18.4640 C   0  0  0  0  0  0  0  0  0  0  0  0
    9.0420    0.3700   21.5280 C   0  0  0  0  0  0  0  0  0  0  0  0
    9.2505   -4.8264   25.5904 C   0  0  0  0  0  0  0  0  0  0  0  0
    9.8870    1.3260   23.5730 C   0  0  0  0  0  0  0  0  0  0  0  0
    7.6390   -0.2680   18.5410 N   0  0  0  0  0  0  0  0  0  0  0  0
    6.7580    0.3810   17.8350 N   0  0  0  0  0  0  0  0  0  0  0  0
    5.8300    0.9190   18.6970 N   0  0  0  0  0  0  0  0  0  0  0  0
    8.1890   -0.7180   20.8700 N   0  0  0  0  0  0  0  0  0  0  0  0
    9.4560    0.1560   22.8130 N   0  0  0  0  0  0  0  0  0  0  0  0
    9.2690    1.4140   20.9380 O   0  0  0  0  0  0  0  0  0  0  0  0
   13.7831    2.2420   23.9988 S   0  0  0  0  0  0  0  0  0  0  0  0
    8.6919   -2.3557   26.5813 H   0  0  0  0  0  0  0  0  0  0  0  0
    9.9267   -4.3907   22.9939 H   0  0  0  0  0  0  0  0  0  0  0  0
    8.9217   -0.1995   25.4231 H   0  0  0  0  0  0  0  0  0  0  0  0
   10.0653   -2.2339   21.8256 H   0  0  0  0  0  0  0  0  0  0  0  0
   11.8558   -0.8003   23.7315 H   0  0  0  0  0  0  0  0  0  0  0  0
   14.3824   -0.1267   24.0100 H   0  0  0  0  0  0  0  0  0  0  0  0
   11.7354    3.5581   23.8155 H   0  0  0  0  0  0  0  0  0  0  0  0
    5.6855    0.7074   22.1002 H   0  0  0  0  0  0  0  0  0  0  0  0
    3.6634    2.0034   21.6926 H   0  0  0  0  0  0  0  0  0  0  0  0
    3.0111    2.6563   19.3629 H   0  0  0  0  0  0  0  0  0  0  0  0
    4.4370    1.9522   17.4626 H   0  0  0  0  0  0  0  0  0  0  0  0
    8.2503   -5.2678   25.5020 H   0  0  0  0  0  0  0  0  0  0  0  0
    9.9817   -5.5374   25.1845 H   0  0  0  0  0  0  0  0  0  0  0  0
    9.4841   -4.7043   26.6562 H   0  0  0  0  0  0  0  0  0  0  0  0
    9.3974    1.2912   24.5523 H   0  0  0  0  0  0  0  0  0  0  0  0
    9.5159    2.2168   23.0553 H   0  0  0  0  0  0  0  0  0  0  0  0
    8.2368   -1.5645   21.0930 H   0  0  0  0  0  0  0  0  0  0  0  0
  1  3  2  0  0  0  0
  1  8  1  0  0  0  0
  2  4  1  0  0  0  0
  2  8  2  0  0  0  0
  3 10  1  0  0  0  0
  4 10  2  0  0  0  0
  5  6  2  0  0  0  0
  5  9  1  0  0  0  0
  6 26  1  0  0  0  0
  7  9  2  0  0  0  0
  7 26  1  0  0  0  0
  8 18  1  0  0  0  0
  9 19  1  0  0  0  0
 10 24  1  0  0  0  0
 11 12  2  0  0  0  0
 11 13  1  0  0  0  0
 11 22  1  0  0  0  0
 12 20  1  0  0  0  0
 12 23  1  0  0  0  0
 13 14  2  0  0  0  0
 14 15  1  0  0  0  0
 15 16  2  0  0  0  0
 16 22  1  0  0  0  0
 17 23  1  0  0  0  0
 17 24  1  0  0  0  0
 17 25  2  0  0  0  0
 19 24  1  0  0  0  0
 20 21  2  0  0  0  0
 21 22  1  0  0  0  0
  1 27  1  0  0  0  0
  2 28  1  0  0  0  0
  3 29  1  0  0  0  0
  4 30  1  0  0  0  0
  5 31  1  0  0  0  0
  6 32  1  0  0  0  0
  7 33  1  0  0  0  0
 13 34  1  0  0  0  0
 14 35  1  0  0  0  0
 15 36  1  0  0  0  0
 16 37  1  0  0  0  0
 18 38  1  0  0  0  0
 18 39  1  0  0  0  0
 18 40  1  0  0  0  0
 19 41  1  0  0  0  0
 19 42  1  0  0  0  0
 23 43  1  0  0  0  0
M  END
> <clash_score>
0

> <docking_score>
-8.102972030639648

> <overlap_score>
0.9242714047431946

$$$$
BENZO_94_1
  -OEChem-08222022163D

 58 62  0     0  0  0  0  0  0999 V2000
   13.4007    0.5725   24.7805 C   0  0  0  0  0  0  0  0  0  0  0  0
   12.0141    0.5273   24.6359 C   0  0  0  0  0  0  0  0  0  0  0  0
    8.9960   -2.3380   25.5320 C   0  0  0  0  0  0  0  0  0  0  0  0
    9.6730   -3.4710   23.5300 C   0  0  0  0  0  0  0  0  0  0  0  0
    9.0720   -1.1280   24.8640 C   0  0  0  0  0  0  0  0  0  0  0  0
    9.7200   -2.2600   22.8630 C   0  0  0  0  0  0  0  0  0  0  0  0
   14.1526    1.4666   24.0184 C   0  0  0  0  0  0  0  0  0  0  0  0
   12.1314    2.2702   22.9668 C   0  0  0  0  0  0  0  0  0  0  0  0
   11.3794    1.3761   23.7290 C   0  0  0  0  0  0  0  0  0  0  0  0
    9.3070   -3.5340   24.8780 C   0  0  0  0  0  0  0  0  0  0  0  0
    9.3350   -1.0880   23.5010 C   0  0  0  0  0  0  0  0  0  0  0  0
   13.5180    2.3154   23.1115 C   0  0  0  0  0  0  0  0  0  0  0  0
    6.1790    0.5730   19.9990 C   0  0  0  0  0  0  0  0  0  0  0  0
    7.3170   -0.1610   19.8550 C   0  0  0  0  0  0  0  0  0  0  0  0
    5.4210    0.9600   21.0930 C   0  0  0  0  0  0  0  0  0  0  0  0
    4.2750    1.7050   20.8490 C   0  0  0  0  0  0  0  0  0  0  0  0
    3.9160    2.0630   19.5520 C   0  0  0  0  0  0  0  0  0  0  0  0
    4.6890    1.6810   18.4640 C   0  0  0  0  0  0  0  0  0  0  0  0
    9.0420    0.3700   21.5280 C   0  0  0  0  0  0  0  0  0  0  0  0
    7.3635   -6.1361   27.1888 C   0  0  0  0  0  0  0  0  0  0  0  0
    8.1961   -4.9735   27.7341 C   0  0  0  0  0  0  0  0  0  0  0  0
    7.1942   -6.0394   25.6709 C   0  0  0  0  0  0  0  0  0  0  0  0
    9.5196   -4.8490   26.9797 C   0  0  0  0  0  0  0  0  0  0  0  0
    8.5442   -5.8838   24.9639 C   0  0  0  0  0  0  0  0  0  0  0  0
    9.8870    1.3260   23.5730 C   0  0  0  0  0  0  0  0  0  0  0  0
    7.6390   -0.2680   18.5410 N   0  0  0  0  0  0  0  0  0  0  0  0
    6.7580    0.3810   17.8350 N   0  0  0  0  0  0  0  0  0  0  0  0
    5.8300    0.9190   18.6970 N   0  0  0  0  0  0  0  0  0  0  0  0
    9.2562   -4.7384   25.5422 N   0  0  0  0  0  0  0  0  0  0  0  0
    8.1890   -0.7180   20.8700 N   0  0  0  0  0  0  0  0  0  0  0  0
    9.4560    0.1560   22.8130 N   0  0  0  0  0  0  0  0  0  0  0  0
    9.2690    1.4140   20.9380 O   0  0  0  0  0  0  0  0  0  0  0  0
   14.4463    3.4175   22.1707 Cl  0  0  0  0  0  0  0  0  0  0  0  0
   13.8945   -0.0888   25.4867 H   0  0  0  0  0  0  0  0  0  0  0  0
   11.4361   -0.1726   25.2338 H   0  0  0  0  0  0  0  0  0  0  0  0
    8.6905   -2.3533   26.5810 H   0  0  0  0  0  0  0  0  0  0  0  0
    9.9266   -4.3896   22.9917 H   0  0  0  0  0  0  0  0  0  0  0  0
    8.9233   -0.1992   25.4231 H   0  0  0  0  0  0  0  0  0  0  0  0
   10.0650   -2.2330   21.8256 H   0  0  0  0  0  0  0  0  0  0  0  0
   15.2326    1.4907   24.1414 H   0  0  0  0  0  0  0  0  0  0  0  0
   11.6317    2.9303   22.2615 H   0  0  0  0  0  0  0  0  0  0  0  0
    5.6855    0.7074   22.1002 H   0  0  0  0  0  0  0  0  0  0  0  0
    3.6634    2.0034   21.6926 H   0  0  0  0  0  0  0  0  0  0  0  0
    3.0111    2.6563   19.3629 H   0  0  0  0  0  0  0  0  0  0  0  0
    4.4370    1.9522   17.4626 H   0  0  0  0  0  0  0  0  0  0  0  0
    7.8482   -7.0901   27.4469 H   0  0  0  0  0  0  0  0  0  0  0  0
    6.3760   -6.1438   27.6724 H   0  0  0  0  0  0  0  0  0  0  0  0
    7.6307   -4.0424   27.6403 H   0  0  0  0  0  0  0  0  0  0  0  0
    8.3915   -5.1310   28.7968 H   0  0  0  0  0  0  0  0  0  0  0  0
    6.6888   -6.9376   25.3010 H   0  0  0  0  0  0  0  0  0  0  0  0
    6.5515   -5.1859   25.4257 H   0  0  0  0  0  0  0  0  0  0  0  0
   10.0492   -3.9640   27.3414 H   0  0  0  0  0  0  0  0  0  0  0  0
   10.1431   -5.7254   27.1778 H   0  0  0  0  0  0  0  0  0  0  0  0
    9.1338   -6.7931   25.0868 H   0  0  0  0  0  0  0  0  0  0  0  0
    8.3656   -5.7264   23.8998 H   0  0  0  0  0  0  0  0  0  0  0  0
    9.3974    1.2912   24.5523 H   0  0  0  0  0  0  0  0  0  0  0  0
    9.5159    2.2168   23.0553 H   0  0  0  0  0  0  0  0  0  0  0  0
    8.2565   -1.5523   21.1108 H   0  0  0  0  0  0  0  0  0  0  0  0
  1  2  2  0  0  0  0
  1  7  1  0  0  0  0
  2  9  1  0  0  0  0
  3  5  2  0  0  0  0
  3 10  1  0  0  0  0
  4  6  1  0  0  0  0
  4 10  2  0  0  0  0
  5 11  1  0  0  0  0
  6 11  2  0  0  0  0
  7 12  2  0  0  0  0
  8  9  2  0  0  0  0
  8 12  1  0  0  0  0
  9 25  1  0  0  0  0
 10 29  1  0  0  0  0
 11 31  1  0  0  0  0
 12 33  1  0  0  0  0
 13 14  2  0  0  0  0
 13 15  1  0  0  0  0
 13 28  1  0  0  0  0
 14 26  1  0  0  0  0
 14 30  1  0  0  0  0
 15 16  2  0  0  0  0
 16 17  1  0  0  0  0
 17 18  2  0  0  0  0
 18 28  1  0  0  0  0
 19 30  1  0  0  0  0
 19 31  1  0  0  0  0
 19 32  2  0  0  0  0
 20 21  1  0  0  0  0
 20 22  1  0  0  0  0
 21 23  1  0  0  0  0
 22 24  1  0  0  0  0
 23 29  1  0  0  0  0
 24 29  1  0  0  0  0
 25 31  1  0  0  0  0
 26 27  2  0  0  0  0
 27 28  1  0  0  0  0
  1 34  1  0  0  0  0
  2 35  1  0  0  0  0
  3 36  1  0  0  0  0
  4 37  1  0  0  0  0
  5 38  1  0  0  0  0
  6 39  1  0  0  0  0
  7 40  1  0  0  0  0
  8 41  1  0  0  0  0
 15 42  1  0  0  0  0
 16 43  1  0  0  0  0
 17 44  1  0  0  0  0
 18 45  1  0  0  0  0
 20 46  1  0  0  0  0
 20 47  1  0  0  0  0
 21 48  1  0  0  0  0
 21 49  1  0  0  0  0
 22 50  1  0  0  0  0
 22 51  1  0  0  0  0
 23 52  1  0  0  0  0
 23 53  1  0  0  0  0
 24 54  1  0  0  0  0
 24 55  1  0  0  0  0
 25 56  1  0  0  0  0
 25 57  1  0  0  0  0
 30 58  1  0  0  0  0
M  END
> <clash_score>
0

> <docking_score>
-7.7217488288879395

> <overlap_score>
1.0042749643325806

$$$$
BENZO_95_1
  -OEChem-08222022163D

 58 62  0     0  0  0  0  0  0999 V2000
    8.9960   -2.3380   25.5320 C   0  0  0  0  0  0  0  0  0  0  0  0
    9.6730   -3.4710   23.5300 C   0  0  0  0  0  0  0  0  0  0  0  0
    9.0720   -1.1280   24.8640 C   0  0  0  0  0  0  0  0  0  0  0  0
    9.7200   -2.2600   22.8630 C   0  0  0  0  0  0  0  0  0  0  0  0
   12.1233    1.3811   24.9242 C   0  0  0  0  0  0  0  0  0  0  0  0
   12.3261    1.4247   22.7351 C   0  0  0  0  0  0  0  0  0  0  0  0
   11.3794    1.3761   23.7290 C   0  0  0  0  0  0  0  0  0  0  0  0
    9.3070   -3.5340   24.8780 C   0  0  0  0  0  0  0  0  0  0  0  0
    9.3350   -1.0880   23.5010 C   0  0  0  0  0  0  0  0  0  0  0  0
    6.1790    0.5730   19.9990 C   0  0  0  0  0  0  0  0  0  0  0  0
    7.3170   -0.1610   19.8550 C   0  0  0  0  0  0  0  0  0  0  0  0
    5.4210    0.9600   21.0930 C   0  0  0  0  0  0  0  0  0  0  0  0
    4.2750    1.7050   20.8490 C   0  0  0  0  0  0  0  0  0  0  0  0
    3.9160    2.0630   19.5520 C   0  0  0  0  0  0  0  0  0  0  0  0
    4.6890    1.6810   18.4640 C   0  0  0  0  0  0  0  0  0  0  0  0
    9.0420    0.3700   21.5280 C   0  0  0  0  0  0  0  0  0  0  0  0
    7.3635   -6.1361   27.1888 C   0  0  0  0  0  0  0  0  0  0  0  0
    8.1961   -4.9735   27.7341 C   0  0  0  0  0  0  0  0  0  0  0  0
    7.1942   -6.0394   25.6709 C   0  0  0  0  0  0  0  0  0  0  0  0
    9.5196   -4.8490   26.9797 C   0  0  0  0  0  0  0  0  0  0  0  0
    8.5442   -5.8838   24.9639 C   0  0  0  0  0  0  0  0  0  0  0  0
   14.8305    1.5084   22.7418 C   0  0  0  0  0  0  0  0  0  0  0  0
    9.8870    1.3260   23.5730 C   0  0  0  0  0  0  0  0  0  0  0  0
   13.4410    1.4289   24.7112 N   0  0  0  0  0  0  0  0  0  0  0  0
    7.6390   -0.2680   18.5410 N   0  0  0  0  0  0  0  0  0  0  0  0
    6.7580    0.3810   17.8350 N   0  0  0  0  0  0  0  0  0  0  0  0
   13.5326    1.4543   23.3706 N   0  0  0  0  0  0  0  0  0  0  0  0
    5.8300    0.9190   18.6970 N   0  0  0  0  0  0  0  0  0  0  0  0
    9.2562   -4.7384   25.5422 N   0  0  0  0  0  0  0  0  0  0  0  0
    8.1890   -0.7180   20.8700 N   0  0  0  0  0  0  0  0  0  0  0  0
    9.4560    0.1560   22.8130 N   0  0  0  0  0  0  0  0  0  0  0  0
    9.2690    1.4140   20.9380 O   0  0  0  0  0  0  0  0  0  0  0  0
    8.6905   -2.3533   26.5810 H   0  0  0  0  0  0  0  0  0  0  0  0
    9.9266   -4.3896   22.9917 H   0  0  0  0  0  0  0  0  0  0  0  0
    8.9233   -0.1992   25.4231 H   0  0  0  0  0  0  0  0  0  0  0  0
   10.0650   -2.2330   21.8256 H   0  0  0  0  0  0  0  0  0  0  0  0
   11.7624    1.3510   25.9426 H   0  0  0  0  0  0  0  0  0  0  0  0
   12.2462    1.4390   21.6566 H   0  0  0  0  0  0  0  0  0  0  0  0
    5.6855    0.7074   22.1002 H   0  0  0  0  0  0  0  0  0  0  0  0
    3.6634    2.0034   21.6926 H   0  0  0  0  0  0  0  0  0  0  0  0
    3.0111    2.6563   19.3629 H   0  0  0  0  0  0  0  0  0  0  0  0
    4.4370    1.9522   17.4626 H   0  0  0  0  0  0  0  0  0  0  0  0
    7.8482   -7.0901   27.4469 H   0  0  0  0  0  0  0  0  0  0  0  0
    6.3760   -6.1438   27.6724 H   0  0  0  0  0  0  0  0  0  0  0  0
    7.6307   -4.0424   27.6403 H   0  0  0  0  0  0  0  0  0  0  0  0
    8.3915   -5.1310   28.7968 H   0  0  0  0  0  0  0  0  0  0  0  0
    6.6888   -6.9376   25.3010 H   0  0  0  0  0  0  0  0  0  0  0  0
    6.5515   -5.1859   25.4257 H   0  0  0  0  0  0  0  0  0  0  0  0
   10.0492   -3.9640   27.3414 H   0  0  0  0  0  0  0  0  0  0  0  0
   10.1431   -5.7254   27.1778 H   0  0  0  0  0  0  0  0  0  0  0  0
    9.1338   -6.7931   25.0868 H   0  0  0  0  0  0  0  0  0  0  0  0
    8.3656   -5.7264   23.8998 H   0  0  0  0  0  0  0  0  0  0  0  0
   15.0990    2.5601   22.6124 H   0  0  0  0  0  0  0  0  0  0  0  0
   15.5636    1.0018   23.3756 H   0  0  0  0  0  0  0  0  0  0  0  0
   14.7841    1.0025   21.7733 H   0  0  0  0  0  0  0  0  0  0  0  0
    9.3974    1.2912   24.5523 H   0  0  0  0  0  0  0  0  0  0  0  0
    9.5159    2.2168   23.0553 H   0  0  0  0  0  0  0  0  0  0  0  0
    8.2565   -1.5523   21.1108 H   0  0  0  0  0  0  0  0  0  0  0  0
  1  3  2  0  0  0  0
  1  8  1  0  0  0  0
  2  4  1  0  0  0  0
  2  8  2  0  0  0  0
  3  9  1  0  0  0  0
  4  9  2  0  0  0  0
  5  7  1  0  0  0  0
  5 24  2  0  0  0  0
  6  7  2  0  0  0  0
  6 27  1  0  0  0  0
  7 23  1  0  0  0  0
  8 29  1  0  0  0  0
  9 31  1  0  0  0  0
 10 11  2  0  0  0  0
 10 12  1  0  0  0  0
 10 28  1  0  0  0  0
 11 25  1  0  0  0  0
 11 30  1  0  0  0  0
 12 13  2  0  0  0  0
 13 14  1  0  0  0  0
 14 15  2  0  0  0  0
 15 28  1  0  0  0  0
 16 30  1  0  0  0  0
 16 31  1  0  0  0  0
 16 32  2  0  0  0  0
 17 18  1  0  0  0  0
 17 19  1  0  0  0  0
 18 20  1  0  0  0  0
 19 21  1  0  0  0  0
 20 29  1  0  0  0  0
 21 29  1  0  0  0  0
 22 27  1  0  0  0  0
 23 31  1  0  0  0  0
 24 27  1  0  0  0  0
 25 26  2  0  0  0  0
 26 28  1  0  0  0  0
  1 33  1  0  0  0  0
  2 34  1  0  0  0  0
  3 35  1  0  0  0  0
  4 36  1  0  0  0  0
  5 37  1  0  0  0  0
  6 38  1  0  0  0  0
 12 39  1  0  0  0  0
 13 40  1  0  0  0  0
 14 41  1  0  0  0  0
 15 42  1  0  0  0  0
 17 43  1  0  0  0  0
 17 44  1  0  0  0  0
 18 45  1  0  0  0  0
 18 46  1  0  0  0  0
 19 47  1  0  0  0  0
 19 48  1  0  0  0  0
 20 49  1  0  0  0  0
 20 50  1  0  0  0  0
 21 51  1  0  0  0  0
 21 52  1  0  0  0  0
 22 53  1  0  0  0  0
 22 54  1  0  0  0  0
 22 55  1  0  0  0  0
 23 56  1  0  0  0  0
 23 57  1  0  0  0  0
 30 58  1  0  0  0  0
M  END
> <clash_score>
0

> <docking_score>
-8.300888061523438

> <overlap_score>
0.9881091713905334

$$$$
BENZO_99_1
  -OEChem-08222022163D

 46 49  0     0  0  0  0  0  0999 V2000
    8.9960   -2.3380   25.5320 C   0  0  0  0  0  0  0  0  0  0  0  0
    9.6730   -3.4710   23.5300 C   0  0  0  0  0  0  0  0  0  0  0  0
    9.0720   -1.1280   24.8640 C   0  0  0  0  0  0  0  0  0  0  0  0
    9.7200   -2.2600   22.8630 C   0  0  0  0  0  0  0  0  0  0  0  0
   12.2914    2.2071   23.0512 C   0  0  0  0  0  0  0  0  0  0  0  0
   12.1614    0.6214   24.5689 C   0  0  0  0  0  0  0  0  0  0  0  0
    9.3070   -3.5340   24.8780 C   0  0  0  0  0  0  0  0  0  0  0  0
   11.3794    1.3761   23.7290 C   0  0  0  0  0  0  0  0  0  0  0  0
    9.3350   -1.0880   23.5010 C   0  0  0  0  0  0  0  0  0  0  0  0
    6.1790    0.5730   19.9990 C   0  0  0  0  0  0  0  0  0  0  0  0
    7.3170   -0.1610   19.8550 C   0  0  0  0  0  0  0  0  0  0  0  0
    5.4210    0.9600   21.0930 C   0  0  0  0  0  0  0  0  0  0  0  0
    4.2750    1.7050   20.8490 C   0  0  0  0  0  0  0  0  0  0  0  0
    3.9160    2.0630   19.5520 C   0  0  0  0  0  0  0  0  0  0  0  0
    4.6890    1.6810   18.4640 C   0  0  0  0  0  0  0  0  0  0  0  0
    9.0420    0.3700   21.5280 C   0  0  0  0  0  0  0  0  0  0  0  0
    9.2505   -4.8264   25.5904 C   0  0  0  0  0  0  0  0  0  0  0  0
   14.6267    0.5248   25.0067 C   0  0  0  0  0  0  0  0  0  0  0  0
    9.8870    1.3260   23.5730 C   0  0  0  0  0  0  0  0  0  0  0  0
   13.5560    2.0002   23.4280 N   0  0  0  0  0  0  0  0  0  0  0  0
    7.6390   -0.2680   18.5410 N   0  0  0  0  0  0  0  0  0  0  0  0
    6.7580    0.3810   17.8350 N   0  0  0  0  0  0  0  0  0  0  0  0
   13.4442    1.0306   24.3518 N   0  0  0  0  0  0  0  0  0  0  0  0
    5.8300    0.9190   18.6970 N   0  0  0  0  0  0  0  0  0  0  0  0
    8.1890   -0.7180   20.8700 N   0  0  0  0  0  0  0  0  0  0  0  0
    9.4560    0.1560   22.8130 N   0  0  0  0  0  0  0  0  0  0  0  0
    9.2690    1.4140   20.9380 O   0  0  0  0  0  0  0  0  0  0  0  0
    8.6919   -2.3557   26.5813 H   0  0  0  0  0  0  0  0  0  0  0  0
    9.9267   -4.3907   22.9939 H   0  0  0  0  0  0  0  0  0  0  0  0
    8.9217   -0.1995   25.4231 H   0  0  0  0  0  0  0  0  0  0  0  0
   10.0653   -2.2339   21.8256 H   0  0  0  0  0  0  0  0  0  0  0  0
   12.0895    2.9562   22.2987 H   0  0  0  0  0  0  0  0  0  0  0  0
   11.9202   -0.1518   25.2857 H   0  0  0  0  0  0  0  0  0  0  0  0
    5.6855    0.7074   22.1002 H   0  0  0  0  0  0  0  0  0  0  0  0
    3.6634    2.0034   21.6926 H   0  0  0  0  0  0  0  0  0  0  0  0
    3.0111    2.6563   19.3629 H   0  0  0  0  0  0  0  0  0  0  0  0
    4.4370    1.9522   17.4626 H   0  0  0  0  0  0  0  0  0  0  0  0
    8.2503   -5.2678   25.5020 H   0  0  0  0  0  0  0  0  0  0  0  0
    9.9817   -5.5374   25.1845 H   0  0  0  0  0  0  0  0  0  0  0  0
    9.4841   -4.7043   26.6562 H   0  0  0  0  0  0  0  0  0  0  0  0
   15.0068   -0.3132   24.4165 H   0  0  0  0  0  0  0  0  0  0  0  0
   15.3758    1.3189   25.0698 H   0  0  0  0  0  0  0  0  0  0  0  0
   14.3676    0.1958   26.0170 H   0  0  0  0  0  0  0  0  0  0  0  0
    9.3974    1.2912   24.5523 H   0  0  0  0  0  0  0  0  0  0  0  0
    9.5159    2.2168   23.0553 H   0  0  0  0  0  0  0  0  0  0  0  0
    8.2368   -1.5645   21.0930 H   0  0  0  0  0  0  0  0  0  0  0  0
  1  3  2  0  0  0  0
  1  7  1  0  0  0  0
  2  4  1  0  0  0  0
  2  7  2  0  0  0  0
  3  9  1  0  0  0  0
  4  9  2  0  0  0  0
  5  8  1  0  0  0  0
  5 20  2  0  0  0  0
  6  8  2  0  0  0  0
  6 23  1  0  0  0  0
  7 17  1  0  0  0  0
  8 19  1  0  0  0  0
  9 26  1  0  0  0  0
 10 11  2  0  0  0  0
 10 12  1  0  0  0  0
 10 24  1  0  0  0  0
 11 21  1  0  0  0  0
 11 25  1  0  0  0  0
 12 13  2  0  0  0  0
 13 14  1  0  0  0  0
 14 15  2  0  0  0  0
 15 24  1  0  0  0  0
 16 25  1  0  0  0  0
 16 26  1  0  0  0  0
 16 27  2  0  0  0  0
 18 23  1  0  0  0  0
 19 26  1  0  0  0  0
 20 23  1  0  0  0  0
 21 22  2  0  0  0  0
 22 24  1  0  0  0  0
  1 28  1  0  0  0  0
  2 29  1  0  0  0  0
  3 30  1  0  0  0  0
  4 31  1  0  0  0  0
  5 32  1  0  0  0  0
  6 33  1  0  0  0  0
 12 34  1  0  0  0  0
 13 35  1  0  0  0  0
 14 36  1  0  0  0  0
 15 37  1  0  0  0  0
 17 38  1  0  0  0  0
 17 39  1  0  0  0  0
 17 40  1  0  0  0  0
 18 41  1  0  0  0  0
 18 42  1  0  0  0  0
 18 43  1  0  0  0  0
 19 44  1  0  0  0  0
 19 45  1  0  0  0  0
 25 46  1  0  0  0  0
M  END
> <clash_score>
0.619940823899837

> <docking_score>
-8.537797927856445

> <overlap_score>
0.9382388591766357

$$$$
BENZO_98_1
  -OEChem-08222022163D

 46 49  0     0  0  0  0  0  0999 V2000
   13.4007    0.5725   24.7805 C   0  0  0  0  0  0  0  0  0  0  0  0
   12.0141    0.5273   24.6359 C   0  0  0  0  0  0  0  0  0  0  0  0
    8.9960   -2.3380   25.5320 C   0  0  0  0  0  0  0  0  0  0  0  0
    9.6730   -3.4710   23.5300 C   0  0  0  0  0  0  0  0  0  0  0  0
    9.0720   -1.1280   24.8640 C   0  0  0  0  0  0  0  0  0  0  0  0
    9.7200   -2.2600   22.8630 C   0  0  0  0  0  0  0  0  0  0  0  0
   14.1526    1.4666   24.0184 C   0  0  0  0  0  0  0  0  0  0  0  0
   12.1314    2.2702   22.9668 C   0  0  0  0  0  0  0  0  0  0  0  0
    9.3070   -3.5340   24.8780 C   0  0  0  0  0  0  0  0  0  0  0  0
   11.3794    1.3761   23.7290 C   0  0  0  0  0  0  0  0  0  0  0  0
    9.3350   -1.0880   23.5010 C   0  0  0  0  0  0  0  0  0  0  0  0
   13.5180    2.3154   23.1115 C   0  0  0  0  0  0  0  0  0  0  0  0
    6.1790    0.5730   19.9990 C   0  0  0  0  0  0  0  0  0  0  0  0
    7.3170   -0.1610   19.8550 C   0  0  0  0  0  0  0  0  0  0  0  0
    5.4210    0.9600   21.0930 C   0  0  0  0  0  0  0  0  0  0  0  0
    4.2750    1.7050   20.8490 C   0  0  0  0  0  0  0  0  0  0  0  0
    3.9160    2.0630   19.5520 C   0  0  0  0  0  0  0  0  0  0  0  0
    4.6890    1.6810   18.4640 C   0  0  0  0  0  0  0  0  0  0  0  0
    9.0420    0.3700   21.5280 C   0  0  0  0  0  0  0  0  0  0  0  0
    9.2505   -4.8264   25.5904 C   0  0  0  0  0  0  0  0  0  0  0  0
    9.8870    1.3260   23.5730 C   0  0  0  0  0  0  0  0  0  0  0  0
    7.6390   -0.2680   18.5410 N   0  0  0  0  0  0  0  0  0  0  0  0
    6.7580    0.3810   17.8350 N   0  0  0  0  0  0  0  0  0  0  0  0
    5.8300    0.9190   18.6970 N   0  0  0  0  0  0  0  0  0  0  0  0
    8.1890   -0.7180   20.8700 N   0  0  0  0  0  0  0  0  0  0  0  0
    9.4560    0.1560   22.8130 N   0  0  0  0  0  0  0  0  0  0  0  0
    9.2690    1.4140   20.9380 O   0  0  0  0  0  0  0  0  0  0  0  0
   14.4463    3.4175   22.1707 Cl  0  0  0  0  0  0  0  0  0  0  0  0
   13.8945   -0.0888   25.4867 H   0  0  0  0  0  0  0  0  0  0  0  0
   11.4361   -0.1726   25.2338 H   0  0  0  0  0  0  0  0  0  0  0  0
    8.6919   -2.3557   26.5813 H   0  0  0  0  0  0  0  0  0  0  0  0
    9.9267   -4.3907   22.9939 H   0  0  0  0  0  0  0  0  0  0  0  0
    8.9217   -0.1995   25.4231 H   0  0  0  0  0  0  0  0  0  0  0  0
   10.0653   -2.2339   21.8256 H   0  0  0  0  0  0  0  0  0  0  0  0
   15.2326    1.4907   24.1414 H   0  0  0  0  0  0  0  0  0  0  0  0
   11.6318    2.9303   22.2615 H   0  0  0  0  0  0  0  0  0  0  0  0
    5.6855    0.7074   22.1002 H   0  0  0  0  0  0  0  0  0  0  0  0
    3.6634    2.0034   21.6926 H   0  0  0  0  0  0  0  0  0  0  0  0
    3.0111    2.6563   19.3629 H   0  0  0  0  0  0  0  0  0  0  0  0
    4.4370    1.9522   17.4626 H   0  0  0  0  0  0  0  0  0  0  0  0
    8.2503   -5.2678   25.5020 H   0  0  0  0  0  0  0  0  0  0  0  0
    9.9817   -5.5374   25.1845 H   0  0  0  0  0  0  0  0  0  0  0  0
    9.4841   -4.7043   26.6562 H   0  0  0  0  0  0  0  0  0  0  0  0
    9.3974    1.2912   24.5523 H   0  0  0  0  0  0  0  0  0  0  0  0
    9.5159    2.2168   23.0553 H   0  0  0  0  0  0  0  0  0  0  0  0
    8.2368   -1.5645   21.0930 H   0  0  0  0  0  0  0  0  0  0  0  0
  1  2  2  0  0  0  0
  1  7  1  0  0  0  0
  2 10  1  0  0  0  0
  3  5  2  0  0  0  0
  3  9  1  0  0  0  0
  4  6  1  0  0  0  0
  4  9  2  0  0  0  0
  5 11  1  0  0  0  0
  6 11  2  0  0  0  0
  7 12  2  0  0  0  0
  8 10  2  0  0  0  0
  8 12  1  0  0  0  0
  9 20  1  0  0  0  0
 10 21  1  0  0  0  0
 11 26  1  0  0  0  0
 12 28  1  0  0  0  0
 13 14  2  0  0  0  0
 13 15  1  0  0  0  0
 13 24  1  0  0  0  0
 14 22  1  0  0  0  0
 14 25  1  0  0  0  0
 15 16  2  0  0  0  0
 16 17  1  0  0  0  0
 17 18  2  0  0  0  0
 18 24  1  0  0  0  0
 19 25  1  0  0  0  0
 19 26  1  0  0  0  0
 19 27  2  0  0  0  0
 21 26  1  0  0  0  0
 22 23  2  0  0  0  0
 23 24  1  0  0  0  0
  1 29  1  0  0  0  0
  2 30  1  0  0  0  0
  3 31  1  0  0  0  0
  4 32  1  0  0  0  0
  5 33  1  0  0  0  0
  6 34  1  0  0  0  0
  7 35  1  0  0  0  0
  8 36  1  0  0  0  0
 15 37  1  0  0  0  0
 16 38  1  0  0  0  0
 17 39  1  0  0  0  0
 18 40  1  0  0  0  0
 20 41  1  0  0  0  0
 20 42  1  0  0  0  0
 20 43  1  0  0  0  0
 21 44  1  0  0  0  0
 21 45  1  0  0  0  0
 25 46  1  0  0  0  0
M  END
> <clash_score>
0

> <docking_score>
-7.966766834259033

> <overlap_score>
0.9507184624671936

$$$$
BENZO_101_1
  -OEChem-08222022163D

 47 50  0     0  0  0  0  0  0999 V2000
   14.1526    1.4694   24.0176 C   0  0  0  0  0  0  0  0  0  0  0  0
   13.3741    0.8121   24.9701 C   0  0  0  0  0  0  0  0  0  0  0  0
   13.5446    2.0802   22.9208 C   0  0  0  0  0  0  0  0  0  0  0  0
   11.9875    0.7654   24.8258 C   0  0  0  0  0  0  0  0  0  0  0  0
   12.1580    2.0335   22.7765 C   0  0  0  0  0  0  0  0  0  0  0  0
    9.0720   -1.1280   24.8640 C   0  0  0  0  0  0  0  0  0  0  0  0
    9.7200   -2.2600   22.8630 C   0  0  0  0  0  0  0  0  0  0  0  0
    8.9960   -2.3380   25.5320 C   0  0  0  0  0  0  0  0  0  0  0  0
    9.6730   -3.4710   23.5300 C   0  0  0  0  0  0  0  0  0  0  0  0
   11.3794    1.3761   23.7290 C   0  0  0  0  0  0  0  0  0  0  0  0
    9.3350   -1.0880   23.5010 C   0  0  0  0  0  0  0  0  0  0  0  0
    9.3070   -3.5340   24.8780 C   0  0  0  0  0  0  0  0  0  0  0  0
    6.1790    0.5730   19.9990 C   0  0  0  0  0  0  0  0  0  0  0  0
    7.3170   -0.1610   19.8550 C   0  0  0  0  0  0  0  0  0  0  0  0
    5.4210    0.9600   21.0930 C   0  0  0  0  0  0  0  0  0  0  0  0
    4.2750    1.7050   20.8490 C   0  0  0  0  0  0  0  0  0  0  0  0
    3.9160    2.0630   19.5520 C   0  0  0  0  0  0  0  0  0  0  0  0
    4.6890    1.6810   18.4640 C   0  0  0  0  0  0  0  0  0  0  0  0
    9.0420    0.3700   21.5280 C   0  0  0  0  0  0  0  0  0  0  0  0
    9.5894   -5.8809   24.7798 C   0  0  0  0  0  0  0  0  0  0  0  0
    9.8870    1.3260   23.5730 C   0  0  0  0  0  0  0  0  0  0  0  0
    7.6390   -0.2680   18.5410 N   0  0  0  0  0  0  0  0  0  0  0  0
    6.7580    0.3810   17.8350 N   0  0  0  0  0  0  0  0  0  0  0  0
    5.8300    0.9190   18.6970 N   0  0  0  0  0  0  0  0  0  0  0  0
    8.1890   -0.7180   20.8700 N   0  0  0  0  0  0  0  0  0  0  0  0
    9.4560    0.1560   22.8130 N   0  0  0  0  0  0  0  0  0  0  0  0
    9.2690    1.4140   20.9380 O   0  0  0  0  0  0  0  0  0  0  0  0
    9.2555   -4.7124   25.5274 O   0  0  0  0  0  0  0  0  0  0  0  0
   15.2322    1.5068   24.1308 H   0  0  0  0  0  0  0  0  0  0  0  0
   13.8473    0.3374   25.8248 H   0  0  0  0  0  0  0  0  0  0  0  0
   14.1503    2.5930   22.1795 H   0  0  0  0  0  0  0  0  0  0  0  0
   11.3889    0.2508   25.5729 H   0  0  0  0  0  0  0  0  0  0  0  0
   11.6929    2.5120   21.9187 H   0  0  0  0  0  0  0  0  0  0  0  0
    8.9221   -0.1995   25.4231 H   0  0  0  0  0  0  0  0  0  0  0  0
   10.0642   -2.2347   21.8253 H   0  0  0  0  0  0  0  0  0  0  0  0
    8.6902   -2.3588   26.5805 H   0  0  0  0  0  0  0  0  0  0  0  0
    9.9254   -4.3921   22.9961 H   0  0  0  0  0  0  0  0  0  0  0  0
    5.6855    0.7074   22.1002 H   0  0  0  0  0  0  0  0  0  0  0  0
    3.6634    2.0034   21.6926 H   0  0  0  0  0  0  0  0  0  0  0  0
    3.0111    2.6563   19.3629 H   0  0  0  0  0  0  0  0  0  0  0  0
    4.4370    1.9522   17.4626 H   0  0  0  0  0  0  0  0  0  0  0  0
    9.5074   -6.7611   25.4222 H   0  0  0  0  0  0  0  0  0  0  0  0
   10.6088   -5.7902   24.3963 H   0  0  0  0  0  0  0  0  0  0  0  0
    8.8944   -5.9778   23.9424 H   0  0  0  0  0  0  0  0  0  0  0  0
    9.3974    1.2912   24.5523 H   0  0  0  0  0  0  0  0  0  0  0  0
    9.5159    2.2168   23.0553 H   0  0  0  0  0  0  0  0  0  0  0  0
    8.2368   -1.5645   21.0930 H   0  0  0  0  0  0  0  0  0  0  0  0
  1  2  1  0  0  0  0
  1  3  2  0  0  0  0
  2  4  2  0  0  0  0
  3  5  1  0  0  0  0
  4 10  1  0  0  0  0
  5 10  2  0  0  0  0
  6  8  2  0  0  0  0
  6 11  1  0  0  0  0
  7  9  1  0  0  0  0
  7 11  2  0  0  0  0
  8 12  1  0  0  0  0
  9 12  2  0  0  0  0
 10 21  1  0  0  0  0
 11 26  1  0  0  0  0
 12 28  1  0  0  0  0
 13 14  2  0  0  0  0
 13 15  1  0  0  0  0
 13 24  1  0  0  0  0
 14 22  1  0  0  0  0
 14 25  1  0  0  0  0
 15 16  2  0  0  0  0
 16 17  1  0  0  0  0
 17 18  2  0  0  0  0
 18 24  1  0  0  0  0
 19 25  1  0  0  0  0
 19 26  1  0  0  0  0
 19 27  2  0  0  0  0
 20 28  1  0  0  0  0
 21 26  1  0  0  0  0
 22 23  2  0  0  0  0
 23 24  1  0  0  0  0
  1 29  1  0  0  0  0
  2 30  1  0  0  0  0
  3 31  1  0  0  0  0
  4 32  1  0  0  0  0
  5 33  1  0  0  0  0
  6 34  1  0  0  0  0
  7 35  1  0  0  0  0
  8 36  1  0  0  0  0
  9 37  1  0  0  0  0
 15 38  1  0  0  0  0
 16 39  1  0  0  0  0
 17 40  1  0  0  0  0
 18 41  1  0  0  0  0
 20 42  1  0  0  0  0
 20 43  1  0  0  0  0
 20 44  1  0  0  0  0
 21 45  1  0  0  0  0
 21 46  1  0  0  0  0
 25 47  1  0  0  0  0
M  END
> <clash_score>
0

> <docking_score>
-8.535907745361328

> <overlap_score>
0.9642547965049744

$$$$
BENZO_100_1
  -OEChem-08222022163D

 44 47  0     0  0  0  0  0  0999 V2000
    9.0720   -1.1280   24.8640 C   0  0  0  0  0  0  0  0  0  0  0  0
    9.7200   -2.2600   22.8630 C   0  0  0  0  0  0  0  0  0  0  0  0
    8.9960   -2.3380   25.5320 C   0  0  0  0  0  0  0  0  0  0  0  0
    9.6730   -3.4710   23.5300 C   0  0  0  0  0  0  0  0  0  0  0  0
   12.2111    0.2208   23.7905 C   0  0  0  0  0  0  0  0  0  0  0  0
   13.5412    0.5479   23.9363 C   0  0  0  0  0  0  0  0  0  0  0  0
   12.1057    2.5424   23.8305 C   0  0  0  0  0  0  0  0  0  0  0  0
   11.3794    1.3761   23.7290 C   0  0  0  0  0  0  0  0  0  0  0  0
    9.3350   -1.0880   23.5010 C   0  0  0  0  0  0  0  0  0  0  0  0
    9.3070   -3.5340   24.8780 C   0  0  0  0  0  0  0  0  0  0  0  0
    6.1790    0.5730   19.9990 C   0  0  0  0  0  0  0  0  0  0  0  0
    7.3170   -0.1610   19.8550 C   0  0  0  0  0  0  0  0  0  0  0  0
    5.4210    0.9600   21.0930 C   0  0  0  0  0  0  0  0  0  0  0  0
    4.2750    1.7050   20.8490 C   0  0  0  0  0  0  0  0  0  0  0  0
    3.9160    2.0630   19.5520 C   0  0  0  0  0  0  0  0  0  0  0  0
    4.6890    1.6810   18.4640 C   0  0  0  0  0  0  0  0  0  0  0  0
    9.0420    0.3700   21.5280 C   0  0  0  0  0  0  0  0  0  0  0  0
    9.5894   -5.8809   24.7798 C   0  0  0  0  0  0  0  0  0  0  0  0
    9.8870    1.3260   23.5730 C   0  0  0  0  0  0  0  0  0  0  0  0
    7.6390   -0.2680   18.5410 N   0  0  0  0  0  0  0  0  0  0  0  0
    6.7580    0.3810   17.8350 N   0  0  0  0  0  0  0  0  0  0  0  0
    5.8300    0.9190   18.6970 N   0  0  0  0  0  0  0  0  0  0  0  0
    8.1890   -0.7180   20.8700 N   0  0  0  0  0  0  0  0  0  0  0  0
    9.4560    0.1560   22.8130 N   0  0  0  0  0  0  0  0  0  0  0  0
    9.2690    1.4140   20.9380 O   0  0  0  0  0  0  0  0  0  0  0  0
    9.2555   -4.7124   25.5274 O   0  0  0  0  0  0  0  0  0  0  0  0
   13.7831    2.2420   23.9988 S   0  0  0  0  0  0  0  0  0  0  0  0
    8.9221   -0.1995   25.4231 H   0  0  0  0  0  0  0  0  0  0  0  0
   10.0642   -2.2347   21.8253 H   0  0  0  0  0  0  0  0  0  0  0  0
    8.6902   -2.3588   26.5805 H   0  0  0  0  0  0  0  0  0  0  0  0
    9.9254   -4.3921   22.9961 H   0  0  0  0  0  0  0  0  0  0  0  0
   11.8558   -0.8003   23.7315 H   0  0  0  0  0  0  0  0  0  0  0  0
   14.3824   -0.1267   24.0100 H   0  0  0  0  0  0  0  0  0  0  0  0
   11.7354    3.5581   23.8155 H   0  0  0  0  0  0  0  0  0  0  0  0
    5.6855    0.7074   22.1002 H   0  0  0  0  0  0  0  0  0  0  0  0
    3.6634    2.0034   21.6926 H   0  0  0  0  0  0  0  0  0  0  0  0
    3.0111    2.6563   19.3629 H   0  0  0  0  0  0  0  0  0  0  0  0
    4.4370    1.9522   17.4626 H   0  0  0  0  0  0  0  0  0  0  0  0
    9.5074   -6.7611   25.4222 H   0  0  0  0  0  0  0  0  0  0  0  0
   10.6088   -5.7902   24.3963 H   0  0  0  0  0  0  0  0  0  0  0  0
    8.8944   -5.9778   23.9424 H   0  0  0  0  0  0  0  0  0  0  0  0
    9.3974    1.2912   24.5523 H   0  0  0  0  0  0  0  0  0  0  0  0
    9.5159    2.2168   23.0553 H   0  0  0  0  0  0  0  0  0  0  0  0
    8.2368   -1.5645   21.0930 H   0  0  0  0  0  0  0  0  0  0  0  0
  1  3  2  0  0  0  0
  1  9  1  0  0  0  0
  2  4  1  0  0  0  0
  2  9  2  0  0  0  0
  3 10  1  0  0  0  0
  4 10  2  0  0  0  0
  5  6  2  0  0  0  0
  5  8  1  0  0  0  0
  6 27  1  0  0  0  0
  7  8  2  0  0  0  0
  7 27  1  0  0  0  0
  8 19  1  0  0  0  0
  9 24  1  0  0  0  0
 10 26  1  0  0  0  0
 11 12  2  0  0  0  0
 11 13  1  0  0  0  0
 11 22  1  0  0  0  0
 12 20  1  0  0  0  0
 12 23  1  0  0  0  0
 13 14  2  0  0  0  0
 14 15  1  0  0  0  0
 15 16  2  0  0  0  0
 16 22  1  0  0  0  0
 17 23  1  0  0  0  0
 17 24  1  0  0  0  0
 17 25  2  0  0  0  0
 18 26  1  0  0  0  0
 19 24  1  0  0  0  0
 20 21  2  0  0  0  0
 21 22  1  0  0  0  0
  1 28  1  0  0  0  0
  2 29  1  0  0  0  0
  3 30  1  0  0  0  0
  4 31  1  0  0  0  0
  5 32  1  0  0  0  0
  6 33  1  0  0  0  0
  7 34  1  0  0  0  0
 13 35  1  0  0  0  0
 14 36  1  0  0  0  0
 15 37  1  0  0  0  0
 16 38  1  0  0  0  0
 18 39  1  0  0  0  0
 18 40  1  0  0  0  0
 18 41  1  0  0  0  0
 19 42  1  0  0  0  0
 19 43  1  0  0  0  0
 23 44  1  0  0  0  0
M  END
> <clash_score>
0

> <docking_score>
-7.809086322784424

> <overlap_score>
0.9491584897041321

$$$$
BENZO_103_1
  -OEChem-08222022163D

 47 50  0     0  0  0  0  0  0999 V2000
    9.0720   -1.1280   24.8640 C   0  0  0  0  0  0  0  0  0  0  0  0
    9.7200   -2.2600   22.8630 C   0  0  0  0  0  0  0  0  0  0  0  0
    8.9960   -2.3380   25.5320 C   0  0  0  0  0  0  0  0  0  0  0  0
    9.6730   -3.4710   23.5300 C   0  0  0  0  0  0  0  0  0  0  0  0
   12.2914    2.2071   23.0512 C   0  0  0  0  0  0  0  0  0  0  0  0
   12.1614    0.6214   24.5689 C   0  0  0  0  0  0  0  0  0  0  0  0
   11.3794    1.3761   23.7290 C   0  0  0  0  0  0  0  0  0  0  0  0
    9.3350   -1.0880   23.5010 C   0  0  0  0  0  0  0  0  0  0  0  0
    9.3070   -3.5340   24.8780 C   0  0  0  0  0  0  0  0  0  0  0  0
    6.1790    0.5730   19.9990 C   0  0  0  0  0  0  0  0  0  0  0  0
    7.3170   -0.1610   19.8550 C   0  0  0  0  0  0  0  0  0  0  0  0
    5.4210    0.9600   21.0930 C   0  0  0  0  0  0  0  0  0  0  0  0
    4.2750    1.7050   20.8490 C   0  0  0  0  0  0  0  0  0  0  0  0
    3.9160    2.0630   19.5520 C   0  0  0  0  0  0  0  0  0  0  0  0
    4.6890    1.6810   18.4640 C   0  0  0  0  0  0  0  0  0  0  0  0
    9.0420    0.3700   21.5280 C   0  0  0  0  0  0  0  0  0  0  0  0
   14.6267    0.5248   25.0067 C   0  0  0  0  0  0  0  0  0  0  0  0
    8.8720   -4.6805   26.9013 C   0  0  0  0  0  0  0  0  0  0  0  0
    9.8870    1.3260   23.5730 C   0  0  0  0  0  0  0  0  0  0  0  0
   13.5560    2.0002   23.4280 N   0  0  0  0  0  0  0  0  0  0  0  0
    7.6390   -0.2680   18.5410 N   0  0  0  0  0  0  0  0  0  0  0  0
    6.7580    0.3810   17.8350 N   0  0  0  0  0  0  0  0  0  0  0  0
   13.4442    1.0306   24.3518 N   0  0  0  0  0  0  0  0  0  0  0  0
    5.8300    0.9190   18.6970 N   0  0  0  0  0  0  0  0  0  0  0  0
    8.1890   -0.7180   20.8700 N   0  0  0  0  0  0  0  0  0  0  0  0
    9.4560    0.1560   22.8130 N   0  0  0  0  0  0  0  0  0  0  0  0
    9.2690    1.4140   20.9380 O   0  0  0  0  0  0  0  0  0  0  0  0
    9.2555   -4.7124   25.5274 O   0  0  0  0  0  0  0  0  0  0  0  0
    8.9221   -0.1995   25.4231 H   0  0  0  0  0  0  0  0  0  0  0  0
   10.0642   -2.2347   21.8253 H   0  0  0  0  0  0  0  0  0  0  0  0
    8.6902   -2.3588   26.5805 H   0  0  0  0  0  0  0  0  0  0  0  0
    9.9254   -4.3921   22.9961 H   0  0  0  0  0  0  0  0  0  0  0  0
   12.0895    2.9562   22.2987 H   0  0  0  0  0  0  0  0  0  0  0  0
   11.9202   -0.1518   25.2857 H   0  0  0  0  0  0  0  0  0  0  0  0
    5.6855    0.7074   22.1002 H   0  0  0  0  0  0  0  0  0  0  0  0
    3.6634    2.0034   21.6926 H   0  0  0  0  0  0  0  0  0  0  0  0
    3.0111    2.6563   19.3629 H   0  0  0  0  0  0  0  0  0  0  0  0
    4.4370    1.9522   17.4626 H   0  0  0  0  0  0  0  0  0  0  0  0
   15.0068   -0.3132   24.4165 H   0  0  0  0  0  0  0  0  0  0  0  0
   15.3758    1.3189   25.0698 H   0  0  0  0  0  0  0  0  0  0  0  0
   14.3676    0.1958   26.0170 H   0  0  0  0  0  0  0  0  0  0  0  0
    8.8711   -5.6964   27.3038 H   0  0  0  0  0  0  0  0  0  0  0  0
    7.8758   -4.2402   26.9923 H   0  0  0  0  0  0  0  0  0  0  0  0
    9.5894   -4.0716   27.4566 H   0  0  0  0  0  0  0  0  0  0  0  0
    9.3974    1.2912   24.5523 H   0  0  0  0  0  0  0  0  0  0  0  0
    9.5159    2.2168   23.0553 H   0  0  0  0  0  0  0  0  0  0  0  0
    8.2368   -1.5645   21.0930 H   0  0  0  0  0  0  0  0  0  0  0  0
  1  3  2  0  0  0  0
  1  8  1  0  0  0  0
  2  4  1  0  0  0  0
  2  8  2  0  0  0  0
  3  9  1  0  0  0  0
  4  9  2  0  0  0  0
  5  7  1  0  0  0  0
  5 20  2  0  0  0  0
  6  7  2  0  0  0  0
  6 23  1  0  0  0  0
  7 19  1  0  0  0  0
  8 26  1  0  0  0  0
  9 28  1  0  0  0  0
 10 11  2  0  0  0  0
 10 12  1  0  0  0  0
 10 24  1  0  0  0  0
 11 21  1  0  0  0  0
 11 25  1  0  0  0  0
 12 13  2  0  0  0  0
 13 14  1  0  0  0  0
 14 15  2  0  0  0  0
 15 24  1  0  0  0  0
 16 25  1  0  0  0  0
 16 26  1  0  0  0  0
 16 27  2  0  0  0  0
 17 23  1  0  0  0  0
 18 28  1  0  0  0  0
 19 26  1  0  0  0  0
 20 23  1  0  0  0  0
 21 22  2  0  0  0  0
 22 24  1  0  0  0  0
  1 29  1  0  0  0  0
  2 30  1  0  0  0  0
  3 31  1  0  0  0  0
  4 32  1  0  0  0  0
  5 33  1  0  0  0  0
  6 34  1  0  0  0  0
 12 35  1  0  0  0  0
 13 36  1  0  0  0  0
 14 37  1  0  0  0  0
 15 38  1  0  0  0  0
 17 39  1  0  0  0  0
 17 40  1  0  0  0  0
 17 41  1  0  0  0  0
 18 42  1  0  0  0  0
 18 43  1  0  0  0  0
 18 44  1  0  0  0  0
 19 45  1  0  0  0  0
 19 46  1  0  0  0  0
 25 47  1  0  0  0  0
M  END
> <clash_score>
0.619940823899837

> <docking_score>
-8.274100303649902

> <overlap_score>
0.9605907201766968

$$$$
BENZO_102_1
  -OEChem-08222022163D

 47 50  0     0  0  0  0  0  0999 V2000
   13.4007    0.5725   24.7805 C   0  0  0  0  0  0  0  0  0  0  0  0
   12.0141    0.5273   24.6359 C   0  0  0  0  0  0  0  0  0  0  0  0
    9.0720   -1.1280   24.8640 C   0  0  0  0  0  0  0  0  0  0  0  0
    9.7200   -2.2600   22.8630 C   0  0  0  0  0  0  0  0  0  0  0  0
    8.9960   -2.3380   25.5320 C   0  0  0  0  0  0  0  0  0  0  0  0
    9.6730   -3.4710   23.5300 C   0  0  0  0  0  0  0  0  0  0  0  0
   14.1526    1.4666   24.0184 C   0  0  0  0  0  0  0  0  0  0  0  0
   12.1314    2.2702   22.9668 C   0  0  0  0  0  0  0  0  0  0  0  0
   11.3794    1.3761   23.7290 C   0  0  0  0  0  0  0  0  0  0  0  0
    9.3350   -1.0880   23.5010 C   0  0  0  0  0  0  0  0  0  0  0  0
    9.3070   -3.5340   24.8780 C   0  0  0  0  0  0  0  0  0  0  0  0
   13.5180    2.3154   23.1115 C   0  0  0  0  0  0  0  0  0  0  0  0
    6.1790    0.5730   19.9990 C   0  0  0  0  0  0  0  0  0  0  0  0
    7.3170   -0.1610   19.8550 C   0  0  0  0  0  0  0  0  0  0  0  0
    5.4210    0.9600   21.0930 C   0  0  0  0  0  0  0  0  0  0  0  0
    4.2750    1.7050   20.8490 C   0  0  0  0  0  0  0  0  0  0  0  0
    3.9160    2.0630   19.5520 C   0  0  0  0  0  0  0  0  0  0  0  0
    4.6890    1.6810   18.4640 C   0  0  0  0  0  0  0  0  0  0  0  0
    9.0420    0.3700   21.5280 C   0  0  0  0  0  0  0  0  0  0  0  0
    8.8720   -4.6805   26.9013 C   0  0  0  0  0  0  0  0  0  0  0  0
    9.8870    1.3260   23.5730 C   0  0  0  0  0  0  0  0  0  0  0  0
    7.6390   -0.2680   18.5410 N   0  0  0  0  0  0  0  0  0  0  0  0
    6.7580    0.3810   17.8350 N   0  0  0  0  0  0  0  0  0  0  0  0
    5.8300    0.9190   18.6970 N   0  0  0  0  0  0  0  0  0  0  0  0
    8.1890   -0.7180   20.8700 N   0  0  0  0  0  0  0  0  0  0  0  0
    9.4560    0.1560   22.8130 N   0  0  0  0  0  0  0  0  0  0  0  0
    9.2690    1.4140   20.9380 O   0  0  0  0  0  0  0  0  0  0  0  0
    9.2555   -4.7124   25.5274 O   0  0  0  0  0  0  0  0  0  0  0  0
   14.4463    3.4175   22.1707 Cl  0  0  0  0  0  0  0  0  0  0  0  0
   13.8945   -0.0888   25.4867 H   0  0  0  0  0  0  0  0  0  0  0  0
   11.4361   -0.1726   25.2338 H   0  0  0  0  0  0  0  0  0  0  0  0
    8.9221   -0.1995   25.4231 H   0  0  0  0  0  0  0  0  0  0  0  0
   10.0642   -2.2347   21.8253 H   0  0  0  0  0  0  0  0  0  0  0  0
    8.6902   -2.3588   26.5805 H   0  0  0  0  0  0  0  0  0  0  0  0
    9.9254   -4.3921   22.9961 H   0  0  0  0  0  0  0  0  0  0  0  0
   15.2326    1.4907   24.1414 H   0  0  0  0  0  0  0  0  0  0  0  0
   11.6318    2.9303   22.2615 H   0  0  0  0  0  0  0  0  0  0  0  0
    5.6855    0.7074   22.1002 H   0  0  0  0  0  0  0  0  0  0  0  0
    3.6634    2.0034   21.6926 H   0  0  0  0  0  0  0  0  0  0  0  0
    3.0111    2.6563   19.3629 H   0  0  0  0  0  0  0  0  0  0  0  0
    4.4370    1.9522   17.4626 H   0  0  0  0  0  0  0  0  0  0  0  0
    8.8711   -5.6964   27.3038 H   0  0  0  0  0  0  0  0  0  0  0  0
    7.8758   -4.2402   26.9923 H   0  0  0  0  0  0  0  0  0  0  0  0
    9.5894   -4.0716   27.4566 H   0  0  0  0  0  0  0  0  0  0  0  0
    9.3974    1.2912   24.5523 H   0  0  0  0  0  0  0  0  0  0  0  0
    9.5159    2.2168   23.0553 H   0  0  0  0  0  0  0  0  0  0  0  0
    8.2368   -1.5645   21.0930 H   0  0  0  0  0  0  0  0  0  0  0  0
  1  2  2  0  0  0  0
  1  7  1  0  0  0  0
  2  9  1  0  0  0  0
  3  5  2  0  0  0  0
  3 10  1  0  0  0  0
  4  6  1  0  0  0  0
  4 10  2  0  0  0  0
  5 11  1  0  0  0  0
  6 11  2  0  0  0  0
  7 12  2  0  0  0  0
  8  9  2  0  0  0  0
  8 12  1  0  0  0  0
  9 21  1  0  0  0  0
 10 26  1  0  0  0  0
 11 28  1  0  0  0  0
 12 29  1  0  0  0  0
 13 14  2  0  0  0  0
 13 15  1  0  0  0  0
 13 24  1  0  0  0  0
 14 22  1  0  0  0  0
 14 25  1  0  0  0  0
 15 16  2  0  0  0  0
 16 17  1  0  0  0  0
 17 18  2  0  0  0  0
 18 24  1  0  0  0  0
 19 25  1  0  0  0  0
 19 26  1  0  0  0  0
 19 27  2  0  0  0  0
 20 28  1  0  0  0  0
 21 26  1  0  0  0  0
 22 23  2  0  0  0  0
 23 24  1  0  0  0  0
  1 30  1  0  0  0  0
  2 31  1  0  0  0  0
  3 32  1  0  0  0  0
  4 33  1  0  0  0  0
  5 34  1  0  0  0  0
  6 35  1  0  0  0  0
  7 36  1  0  0  0  0
  8 37  1  0  0  0  0
 15 38  1  0  0  0  0
 16 39  1  0  0  0  0
 17 40  1  0  0  0  0
 18 41  1  0  0  0  0
 20 42  1  0  0  0  0
 20 43  1  0  0  0  0
 20 44  1  0  0  0  0
 21 45  1  0  0  0  0
 21 46  1  0  0  0  0
 25 47  1  0  0  0  0
M  END
> <clash_score>
0

> <docking_score>
-7.703068256378174

> <overlap_score>
0.9730233550071716

$$$$
BENZO_105_1
  -OEChem-08222022163D

 57 61  0     0  0  0  0  0  0999 V2000
   14.1526    1.4694   24.0176 C   0  0  0  0  0  0  0  0  0  0  0  0
   13.3741    0.8121   24.9701 C   0  0  0  0  0  0  0  0  0  0  0  0
   13.5446    2.0802   22.9208 C   0  0  0  0  0  0  0  0  0  0  0  0
   11.9875    0.7654   24.8259 C   0  0  0  0  0  0  0  0  0  0  0  0
   12.1580    2.0335   22.7765 C   0  0  0  0  0  0  0  0  0  0  0  0
    8.9960   -2.3380   25.5320 C   0  0  0  0  0  0  0  0  0  0  0  0
    9.6730   -3.4710   23.5300 C   0  0  0  0  0  0  0  0  0  0  0  0
    9.0720   -1.1280   24.8640 C   0  0  0  0  0  0  0  0  0  0  0  0
    9.7200   -2.2600   22.8630 C   0  0  0  0  0  0  0  0  0  0  0  0
   11.3794    1.3761   23.7290 C   0  0  0  0  0  0  0  0  0  0  0  0
    9.3070   -3.5340   24.8780 C   0  0  0  0  0  0  0  0  0  0  0  0
    9.3350   -1.0880   23.5010 C   0  0  0  0  0  0  0  0  0  0  0  0
    6.1790    0.5730   19.9990 C   0  0  0  0  0  0  0  0  0  0  0  0
    7.3170   -0.1610   19.8550 C   0  0  0  0  0  0  0  0  0  0  0  0
    5.4210    0.9600   21.0930 C   0  0  0  0  0  0  0  0  0  0  0  0
    4.2750    1.7050   20.8490 C   0  0  0  0  0  0  0  0  0  0  0  0
    3.9160    2.0630   19.5520 C   0  0  0  0  0  0  0  0  0  0  0  0
    4.6890    1.6810   18.4640 C   0  0  0  0  0  0  0  0  0  0  0  0
    8.3597   -5.0073   26.6307 C   0  0  0  0  0  0  0  0  0  0  0  0
    9.0420    0.3700   21.5280 C   0  0  0  0  0  0  0  0  0  0  0  0
    8.4720   -6.3981   27.2296 C   0  0  0  0  0  0  0  0  0  0  0  0
    9.9252   -6.7605   27.4803 C   0  0  0  0  0  0  0  0  0  0  0  0
   10.7833   -6.6094   26.2282 C   0  0  0  0  0  0  0  0  0  0  0  0
   10.0539   -5.9099   25.0823 C   0  0  0  0  0  0  0  0  0  0  0  0
    9.8870    1.3260   23.5730 C   0  0  0  0  0  0  0  0  0  0  0  0
    7.6390   -0.2680   18.5410 N   0  0  0  0  0  0  0  0  0  0  0  0
    6.7580    0.3810   17.8350 N   0  0  0  0  0  0  0  0  0  0  0  0
    5.8300    0.9190   18.6970 N   0  0  0  0  0  0  0  0  0  0  0  0
    9.2529   -4.7797   25.5644 N   0  0  0  0  0  0  0  0  0  0  0  0
    8.1890   -0.7180   20.8700 N   0  0  0  0  0  0  0  0  0  0  0  0
    9.4560    0.1560   22.8130 N   0  0  0  0  0  0  0  0  0  0  0  0
    7.4954   -4.2356   27.0449 O   0  0  0  0  0  0  0  0  0  0  0  0
    9.2690    1.4140   20.9380 O   0  0  0  0  0  0  0  0  0  0  0  0
   15.2322    1.5068   24.1308 H   0  0  0  0  0  0  0  0  0  0  0  0
   13.8473    0.3374   25.8248 H   0  0  0  0  0  0  0  0  0  0  0  0
   14.1503    2.5930   22.1795 H   0  0  0  0  0  0  0  0  0  0  0  0
   11.3889    0.2508   25.5729 H   0  0  0  0  0  0  0  0  0  0  0  0
   11.6930    2.5120   21.9187 H   0  0  0  0  0  0  0  0  0  0  0  0
    8.6895   -2.3529   26.5807 H   0  0  0  0  0  0  0  0  0  0  0  0
    9.9262   -4.3897   22.9916 H   0  0  0  0  0  0  0  0  0  0  0  0
    8.9224   -0.1998   25.4238 H   0  0  0  0  0  0  0  0  0  0  0  0
   10.0649   -2.2343   21.8258 H   0  0  0  0  0  0  0  0  0  0  0  0
    5.6855    0.7074   22.1002 H   0  0  0  0  0  0  0  0  0  0  0  0
    3.6634    2.0034   21.6926 H   0  0  0  0  0  0  0  0  0  0  0  0
    3.0111    2.6563   19.3629 H   0  0  0  0  0  0  0  0  0  0  0  0
    4.4370    1.9522   17.4626 H   0  0  0  0  0  0  0  0  0  0  0  0
    7.9325   -6.4148   28.1641 H   0  0  0  0  0  0  0  0  0  0  0  0
    8.0254   -7.0920   26.5333 H   0  0  0  0  0  0  0  0  0  0  0  0
   10.3387   -6.1267   28.2923 H   0  0  0  0  0  0  0  0  0  0  0  0
    9.9904   -7.8023   27.8537 H   0  0  0  0  0  0  0  0  0  0  0  0
   11.7037   -6.0404   26.4771 H   0  0  0  0  0  0  0  0  0  0  0  0
   11.1411   -7.6068   25.8918 H   0  0  0  0  0  0  0  0  0  0  0  0
   10.7782   -5.5162   24.3756 H   0  0  0  0  0  0  0  0  0  0  0  0
    9.4042   -6.6189   24.5807 H   0  0  0  0  0  0  0  0  0  0  0  0
    9.3974    1.2912   24.5523 H   0  0  0  0  0  0  0  0  0  0  0  0
    9.5159    2.2168   23.0553 H   0  0  0  0  0  0  0  0  0  0  0  0
    8.2565   -1.5523   21.1108 H   0  0  0  0  0  0  0  0  0  0  0  0
  1  2  1  0  0  0  0
  1  3  2  0  0  0  0
  2  4  2  0  0  0  0
  3  5  1  0  0  0  0
  4 10  1  0  0  0  0
  5 10  2  0  0  0  0
  6  8  2  0  0  0  0
  6 11  1  0  0  0  0
  7  9  1  0  0  0  0
  7 11  2  0  0  0  0
  8 12  1  0  0  0  0
  9 12  2  0  0  0  0
 10 25  1  0  0  0  0
 11 29  1  0  0  0  0
 12 31  1  0  0  0  0
 13 14  2  0  0  0  0
 13 15  1  0  0  0  0
 13 28  1  0  0  0  0
 14 26  1  0  0  0  0
 14 30  1  0  0  0  0
 15 16  2  0  0  0  0
 16 17  1  0  0  0  0
 17 18  2  0  0  0  0
 18 28  1  0  0  0  0
 19 21  1  0  0  0  0
 19 29  1  0  0  0  0
 19 32  2  0  0  0  0
 20 30  1  0  0  0  0
 20 31  1  0  0  0  0
 20 33  2  0  0  0  0
 21 22  1  0  0  0  0
 22 23  1  0  0  0  0
 23 24  1  0  0  0  0
 24 29  1  0  0  0  0
 25 31  1  0  0  0  0
 26 27  2  0  0  0  0
 27 28  1  0  0  0  0
  1 34  1  0  0  0  0
  2 35  1  0  0  0  0
  3 36  1  0  0  0  0
  4 37  1  0  0  0  0
  5 38  1  0  0  0  0
  6 39  1  0  0  0  0
  7 40  1  0  0  0  0
  8 41  1  0  0  0  0
  9 42  1  0  0  0  0
 15 43  1  0  0  0  0
 16 44  1  0  0  0  0
 17 45  1  0  0  0  0
 18 46  1  0  0  0  0
 21 47  1  0  0  0  0
 21 48  1  0  0  0  0
 22 49  1  0  0  0  0
 22 50  1  0  0  0  0
 23 51  1  0  0  0  0
 23 52  1  0  0  0  0
 24 53  1  0  0  0  0
 24 54  1  0  0  0  0
 25 55  1  0  0  0  0
 25 56  1  0  0  0  0
 30 57  1  0  0  0  0
M  END
> <clash_score>
0.7790751876189459

> <docking_score>
-7.9257097244262695

> <overlap_score>
1.004102349281311

$$$$
BENZO_104_1
  -OEChem-08222022163D

 54 58  0     0  0  0  0  0  0999 V2000
    8.9960   -2.3380   25.5320 C   0  0  0  0  0  0  0  0  0  0  0  0
    9.6730   -3.4710   23.5300 C   0  0  0  0  0  0  0  0  0  0  0  0
    9.0720   -1.1280   24.8640 C   0  0  0  0  0  0  0  0  0  0  0  0
    9.7200   -2.2600   22.8630 C   0  0  0  0  0  0  0  0  0  0  0  0
   12.2913    1.4279   22.6355 C   0  0  0  0  0  0  0  0  0  0  0  0
   13.6024    1.4662   23.0564 C   0  0  0  0  0  0  0  0  0  0  0  0
   12.0284    1.3764   24.9443 C   0  0  0  0  0  0  0  0  0  0  0  0
   11.3794    1.3761   23.7290 C   0  0  0  0  0  0  0  0  0  0  0  0
    9.3070   -3.5340   24.8780 C   0  0  0  0  0  0  0  0  0  0  0  0
    9.3350   -1.0880   23.5010 C   0  0  0  0  0  0  0  0  0  0  0  0
    6.1790    0.5730   19.9990 C   0  0  0  0  0  0  0  0  0  0  0  0
    7.3170   -0.1610   19.8550 C   0  0  0  0  0  0  0  0  0  0  0  0
    5.4210    0.9600   21.0930 C   0  0  0  0  0  0  0  0  0  0  0  0
    4.2750    1.7050   20.8490 C   0  0  0  0  0  0  0  0  0  0  0  0
    3.9160    2.0630   19.5520 C   0  0  0  0  0  0  0  0  0  0  0  0
    4.6890    1.6810   18.4640 C   0  0  0  0  0  0  0  0  0  0  0  0
    8.3596   -5.0074   26.6308 C   0  0  0  0  0  0  0  0  0  0  0  0
    9.0420    0.3700   21.5280 C   0  0  0  0  0  0  0  0  0  0  0  0
    8.4579   -6.4047   27.2169 C   0  0  0  0  0  0  0  0  0  0  0  0
    8.4717   -7.4504   26.1159 C   0  0  0  0  0  0  0  0  0  0  0  0
    9.5645   -7.1893   25.0842 C   0  0  0  0  0  0  0  0  0  0  0  0
   10.2327   -5.8252   25.2501 C   0  0  0  0  0  0  0  0  0  0  0  0
    9.8870    1.3260   23.5730 C   0  0  0  0  0  0  0  0  0  0  0  0
    7.6390   -0.2680   18.5410 N   0  0  0  0  0  0  0  0  0  0  0  0
    6.7580    0.3810   17.8350 N   0  0  0  0  0  0  0  0  0  0  0  0
    5.8300    0.9190   18.6970 N   0  0  0  0  0  0  0  0  0  0  0  0
    9.2529   -4.7798   25.5645 N   0  0  0  0  0  0  0  0  0  0  0  0
    8.1890   -0.7180   20.8700 N   0  0  0  0  0  0  0  0  0  0  0  0
    9.4560    0.1560   22.8130 N   0  0  0  0  0  0  0  0  0  0  0  0
    7.5990   -4.1865   27.1424 O   0  0  0  0  0  0  0  0  0  0  0  0
    9.2690    1.4140   20.9380 O   0  0  0  0  0  0  0  0  0  0  0  0
   13.7301    1.4394   24.7638 S   0  0  0  0  0  0  0  0  0  0  0  0
    8.6895   -2.3529   26.5807 H   0  0  0  0  0  0  0  0  0  0  0  0
    9.9262   -4.3897   22.9916 H   0  0  0  0  0  0  0  0  0  0  0  0
    8.9224   -0.1998   25.4238 H   0  0  0  0  0  0  0  0  0  0  0  0
   10.0649   -2.2343   21.8258 H   0  0  0  0  0  0  0  0  0  0  0  0
   12.0045    1.4365   21.5915 H   0  0  0  0  0  0  0  0  0  0  0  0
   14.4914    1.5078   22.4431 H   0  0  0  0  0  0  0  0  0  0  0  0
   11.5886    1.3416   25.9314 H   0  0  0  0  0  0  0  0  0  0  0  0
    5.6855    0.7074   22.1002 H   0  0  0  0  0  0  0  0  0  0  0  0
    3.6634    2.0034   21.6926 H   0  0  0  0  0  0  0  0  0  0  0  0
    3.0111    2.6563   19.3629 H   0  0  0  0  0  0  0  0  0  0  0  0
    4.4370    1.9522   17.4626 H   0  0  0  0  0  0  0  0  0  0  0  0
    9.3706   -6.4745   27.7885 H   0  0  0  0  0  0  0  0  0  0  0  0
    7.6055   -6.5497   27.8636 H   0  0  0  0  0  0  0  0  0  0  0  0
    8.6095   -8.4604   26.5550 H   0  0  0  0  0  0  0  0  0  0  0  0
    7.4835   -7.4763   25.6142 H   0  0  0  0  0  0  0  0  0  0  0  0
   10.3359   -7.9850   25.1531 H   0  0  0  0  0  0  0  0  0  0  0  0
    9.1458   -7.2796   24.0582 H   0  0  0  0  0  0  0  0  0  0  0  0
   10.9408   -5.8640   26.0725 H   0  0  0  0  0  0  0  0  0  0  0  0
   10.7521   -5.5631   24.3347 H   0  0  0  0  0  0  0  0  0  0  0  0
    9.3974    1.2912   24.5523 H   0  0  0  0  0  0  0  0  0  0  0  0
    9.5159    2.2168   23.0553 H   0  0  0  0  0  0  0  0  0  0  0  0
    8.2565   -1.5523   21.1108 H   0  0  0  0  0  0  0  0  0  0  0  0
  1  3  2  0  0  0  0
  1  9  1  0  0  0  0
  2  4  1  0  0  0  0
  2  9  2  0  0  0  0
  3 10  1  0  0  0  0
  4 10  2  0  0  0  0
  5  6  2  0  0  0  0
  5  8  1  0  0  0  0
  6 32  1  0  0  0  0
  7  8  2  0  0  0  0
  7 32  1  0  0  0  0
  8 23  1  0  0  0  0
  9 27  1  0  0  0  0
 10 29  1  0  0  0  0
 11 12  2  0  0  0  0
 11 13  1  0  0  0  0
 11 26  1  0  0  0  0
 12 24  1  0  0  0  0
 12 28  1  0  0  0  0
 13 14  2  0  0  0  0
 14 15  1  0  0  0  0
 15 16  2  0  0  0  0
 16 26  1  0  0  0  0
 17 19  1  0  0  0  0
 17 27  1  0  0  0  0
 17 30  2  0  0  0  0
 18 28  1  0  0  0  0
 18 29  1  0  0  0  0
 18 31  2  0  0  0  0
 19 20  1  0  0  0  0
 20 21  1  0  0  0  0
 21 22  1  0  0  0  0
 22 27  1  0  0  0  0
 23 29  1  0  0  0  0
 24 25  2  0  0  0  0
 25 26  1  0  0  0  0
  1 33  1  0  0  0  0
  2 34  1  0  0  0  0
  3 35  1  0  0  0  0
  4 36  1  0  0  0  0
  5 37  1  0  0  0  0
  6 38  1  0  0  0  0
  7 39  1  0  0  0  0
 13 40  1  0  0  0  0
 14 41  1  0  0  0  0
 15 42  1  0  0  0  0
 16 43  1  0  0  0  0
 19 44  1  0  0  0  0
 19 45  1  0  0  0  0
 20 46  1  0  0  0  0
 20 47  1  0  0  0  0
 21 48  1  0  0  0  0
 21 49  1  0  0  0  0
 22 50  1  0  0  0  0
 22 51  1  0  0  0  0
 23 52  1  0  0  0  0
 23 53  1  0  0  0  0
 28 54  1  0  0  0  0
M  END
> <clash_score>
0.6354466317061015

> <docking_score>
-7.8410234451293945

> <overlap_score>
0.9878003001213074

$$$$
BENZO_109_1
  -OEChem-08222022163D

 56 60  0     0  0  0  0  0  0999 V2000
   14.1526    1.4694   24.0176 C   0  0  0  0  0  0  0  0  0  0  0  0
   13.3741    0.8121   24.9701 C   0  0  0  0  0  0  0  0  0  0  0  0
   13.5446    2.0802   22.9208 C   0  0  0  0  0  0  0  0  0  0  0  0
   11.9875    0.7654   24.8258 C   0  0  0  0  0  0  0  0  0  0  0  0
   12.1580    2.0335   22.7765 C   0  0  0  0  0  0  0  0  0  0  0  0
    8.9960   -2.3380   25.5320 C   0  0  0  0  0  0  0  0  0  0  0  0
    9.6730   -3.4710   23.5300 C   0  0  0  0  0  0  0  0  0  0  0  0
    9.0720   -1.1280   24.8640 C   0  0  0  0  0  0  0  0  0  0  0  0
    9.7200   -2.2600   22.8630 C   0  0  0  0  0  0  0  0  0  0  0  0
   11.3794    1.3761   23.7290 C   0  0  0  0  0  0  0  0  0  0  0  0
    9.3070   -3.5340   24.8780 C   0  0  0  0  0  0  0  0  0  0  0  0
    9.3350   -1.0880   23.5010 C   0  0  0  0  0  0  0  0  0  0  0  0
    6.1790    0.5730   19.9990 C   0  0  0  0  0  0  0  0  0  0  0  0
    7.3170   -0.1610   19.8550 C   0  0  0  0  0  0  0  0  0  0  0  0
    5.4210    0.9600   21.0930 C   0  0  0  0  0  0  0  0  0  0  0  0
    4.2750    1.7050   20.8490 C   0  0  0  0  0  0  0  0  0  0  0  0
    3.9160    2.0630   19.5520 C   0  0  0  0  0  0  0  0  0  0  0  0
    4.6890    1.6810   18.4640 C   0  0  0  0  0  0  0  0  0  0  0  0
    9.0420    0.3700   21.5280 C   0  0  0  0  0  0  0  0  0  0  0  0
   10.0771   -5.0255   26.7193 C   0  0  0  0  0  0  0  0  0  0  0  0
    8.0927   -5.6195   25.4071 C   0  0  0  0  0  0  0  0  0  0  0  0
    9.1933   -4.9427   27.9592 C   0  0  0  0  0  0  0  0  0  0  0  0
    7.2756   -5.5290   26.6967 C   0  0  0  0  0  0  0  0  0  0  0  0
    9.8870    1.3260   23.5730 C   0  0  0  0  0  0  0  0  0  0  0  0
    7.6390   -0.2680   18.5410 N   0  0  0  0  0  0  0  0  0  0  0  0
    6.7580    0.3810   17.8350 N   0  0  0  0  0  0  0  0  0  0  0  0
    5.8300    0.9190   18.6970 N   0  0  0  0  0  0  0  0  0  0  0  0
    9.2563   -4.7368   25.5413 N   0  0  0  0  0  0  0  0  0  0  0  0
    8.1890   -0.7180   20.8700 N   0  0  0  0  0  0  0  0  0  0  0  0
    9.4560    0.1560   22.8130 N   0  0  0  0  0  0  0  0  0  0  0  0
    9.2690    1.4140   20.9380 O   0  0  0  0  0  0  0  0  0  0  0  0
    8.0883   -5.8459   27.8325 O   0  0  0  0  0  0  0  0  0  0  0  0
   15.2322    1.5068   24.1308 H   0  0  0  0  0  0  0  0  0  0  0  0
   13.8473    0.3374   25.8248 H   0  0  0  0  0  0  0  0  0  0  0  0
   14.1503    2.5930   22.1795 H   0  0  0  0  0  0  0  0  0  0  0  0
   11.3889    0.2508   25.5729 H   0  0  0  0  0  0  0  0  0  0  0  0
   11.6930    2.5120   21.9187 H   0  0  0  0  0  0  0  0  0  0  0  0
    8.6905   -2.3533   26.5810 H   0  0  0  0  0  0  0  0  0  0  0  0
    9.9266   -4.3896   22.9917 H   0  0  0  0  0  0  0  0  0  0  0  0
    8.9233   -0.1992   25.4232 H   0  0  0  0  0  0  0  0  0  0  0  0
   10.0650   -2.2330   21.8256 H   0  0  0  0  0  0  0  0  0  0  0  0
    5.6855    0.7074   22.1002 H   0  0  0  0  0  0  0  0  0  0  0  0
    3.6634    2.0034   21.6926 H   0  0  0  0  0  0  0  0  0  0  0  0
    3.0111    2.6563   19.3629 H   0  0  0  0  0  0  0  0  0  0  0  0
    4.4370    1.9522   17.4626 H   0  0  0  0  0  0  0  0  0  0  0  0
   10.8985   -4.3115   26.8085 H   0  0  0  0  0  0  0  0  0  0  0  0
   10.4915   -6.0334   26.6323 H   0  0  0  0  0  0  0  0  0  0  0  0
    8.4327   -6.6456   25.2620 H   0  0  0  0  0  0  0  0  0  0  0  0
    7.4725   -5.3241   24.5619 H   0  0  0  0  0  0  0  0  0  0  0  0
    9.7636   -5.2398   28.8419 H   0  0  0  0  0  0  0  0  0  0  0  0
    8.8236   -3.9268   28.1248 H   0  0  0  0  0  0  0  0  0  0  0  0
    6.8339   -4.5337   26.8232 H   0  0  0  0  0  0  0  0  0  0  0  0
    6.4550   -6.2521   26.6643 H   0  0  0  0  0  0  0  0  0  0  0  0
    9.3974    1.2912   24.5523 H   0  0  0  0  0  0  0  0  0  0  0  0
    9.5159    2.2168   23.0553 H   0  0  0  0  0  0  0  0  0  0  0  0
    8.2565   -1.5523   21.1108 H   0  0  0  0  0  0  0  0  0  0  0  0
  1  2  1  0  0  0  0
  1  3  2  0  0  0  0
  2  4  2  0  0  0  0
  3  5  1  0  0  0  0
  4 10  1  0  0  0  0
  5 10  2  0  0  0  0
  6  8  2  0  0  0  0
  6 11  1  0  0  0  0
  7  9  1  0  0  0  0
  7 11  2  0  0  0  0
  8 12  1  0  0  0  0
  9 12  2  0  0  0  0
 10 24  1  0  0  0  0
 11 28  1  0  0  0  0
 12 30  1  0  0  0  0
 13 14  2  0  0  0  0
 13 15  1  0  0  0  0
 13 27  1  0  0  0  0
 14 25  1  0  0  0  0
 14 29  1  0  0  0  0
 15 16  2  0  0  0  0
 16 17  1  0  0  0  0
 17 18  2  0  0  0  0
 18 27  1  0  0  0  0
 19 29  1  0  0  0  0
 19 30  1  0  0  0  0
 19 31  2  0  0  0  0
 20 22  1  0  0  0  0
 20 28  1  0  0  0  0
 21 23  1  0  0  0  0
 21 28  1  0  0  0  0
 22 32  1  0  0  0  0
 23 32  1  0  0  0  0
 24 30  1  0  0  0  0
 25 26  2  0  0  0  0
 26 27  1  0  0  0  0
  1 33  1  0  0  0  0
  2 34  1  0  0  0  0
  3 35  1  0  0  0  0
  4 36  1  0  0  0  0
  5 37  1  0  0  0  0
  6 38  1  0  0  0  0
  7 39  1  0  0  0  0
  8 40  1  0  0  0  0
  9 41  1  0  0  0  0
 15 42  1  0  0  0  0
 16 43  1  0  0  0  0
 17 44  1  0  0  0  0
 18 45  1  0  0  0  0
 20 46  1  0  0  0  0
 20 47  1  0  0  0  0
 21 48  1  0  0  0  0
 21 49  1  0  0  0  0
 22 50  1  0  0  0  0
 22 51  1  0  0  0  0
 23 52  1  0  0  0  0
 23 53  1  0  0  0  0
 24 54  1  0  0  0  0
 24 55  1  0  0  0  0
 29 56  1  0  0  0  0
M  END
> <clash_score>
0

> <docking_score>
-8.906838417053223

> <overlap_score>
0.990332305431366

$$$$
BENZO_107_1
  -OEChem-08222022163D

 57 61  0     0  0  0  0  0  0999 V2000
    8.9960   -2.3380   25.5320 C   0  0  0  0  0  0  0  0  0  0  0  0
    9.6730   -3.4710   23.5300 C   0  0  0  0  0  0  0  0  0  0  0  0
    9.0720   -1.1280   24.8640 C   0  0  0  0  0  0  0  0  0  0  0  0
    9.7200   -2.2600   22.8630 C   0  0  0  0  0  0  0  0  0  0  0  0
   12.1233    1.3811   24.9242 C   0  0  0  0  0  0  0  0  0  0  0  0
   12.3262    1.4247   22.7351 C   0  0  0  0  0  0  0  0  0  0  0  0
   11.3794    1.3761   23.7290 C   0  0  0  0  0  0  0  0  0  0  0  0
    9.3070   -3.5340   24.8780 C   0  0  0  0  0  0  0  0  0  0  0  0
    9.3350   -1.0880   23.5010 C   0  0  0  0  0  0  0  0  0  0  0  0
    6.1790    0.5730   19.9990 C   0  0  0  0  0  0  0  0  0  0  0  0
    7.3170   -0.1610   19.8550 C   0  0  0  0  0  0  0  0  0  0  0  0
    5.4210    0.9600   21.0930 C   0  0  0  0  0  0  0  0  0  0  0  0
    4.2750    1.7050   20.8490 C   0  0  0  0  0  0  0  0  0  0  0  0
    3.9160    2.0630   19.5520 C   0  0  0  0  0  0  0  0  0  0  0  0
    4.6890    1.6810   18.4640 C   0  0  0  0  0  0  0  0  0  0  0  0
    8.3597   -5.0073   26.6307 C   0  0  0  0  0  0  0  0  0  0  0  0
    9.0420    0.3700   21.5280 C   0  0  0  0  0  0  0  0  0  0  0  0
    8.4720   -6.3981   27.2296 C   0  0  0  0  0  0  0  0  0  0  0  0
    9.9252   -6.7605   27.4803 C   0  0  0  0  0  0  0  0  0  0  0  0
   10.7833   -6.6094   26.2282 C   0  0  0  0  0  0  0  0  0  0  0  0
   10.0539   -5.9099   25.0823 C   0  0  0  0  0  0  0  0  0  0  0  0
   14.8305    1.5084   22.7418 C   0  0  0  0  0  0  0  0  0  0  0  0
    9.8870    1.3260   23.5730 C   0  0  0  0  0  0  0  0  0  0  0  0
   13.4410    1.4289   24.7112 N   0  0  0  0  0  0  0  0  0  0  0  0
    7.6390   -0.2680   18.5410 N   0  0  0  0  0  0  0  0  0  0  0  0
    6.7580    0.3810   17.8350 N   0  0  0  0  0  0  0  0  0  0  0  0
   13.5326    1.4543   23.3706 N   0  0  0  0  0  0  0  0  0  0  0  0
    5.8300    0.9190   18.6970 N   0  0  0  0  0  0  0  0  0  0  0  0
    9.2529   -4.7797   25.5644 N   0  0  0  0  0  0  0  0  0  0  0  0
    8.1890   -0.7180   20.8700 N   0  0  0  0  0  0  0  0  0  0  0  0
    9.4560    0.1560   22.8130 N   0  0  0  0  0  0  0  0  0  0  0  0
    7.4954   -4.2356   27.0449 O   0  0  0  0  0  0  0  0  0  0  0  0
    9.2690    1.4140   20.9380 O   0  0  0  0  0  0  0  0  0  0  0  0
    8.6895   -2.3529   26.5807 H   0  0  0  0  0  0  0  0  0  0  0  0
    9.9262   -4.3897   22.9916 H   0  0  0  0  0  0  0  0  0  0  0  0
    8.9224   -0.1998   25.4238 H   0  0  0  0  0  0  0  0  0  0  0  0
   10.0649   -2.2343   21.8258 H   0  0  0  0  0  0  0  0  0  0  0  0
   11.7624    1.3510   25.9426 H   0  0  0  0  0  0  0  0  0  0  0  0
   12.2462    1.4390   21.6566 H   0  0  0  0  0  0  0  0  0  0  0  0
    5.6855    0.7074   22.1002 H   0  0  0  0  0  0  0  0  0  0  0  0
    3.6634    2.0034   21.6926 H   0  0  0  0  0  0  0  0  0  0  0  0
    3.0111    2.6563   19.3629 H   0  0  0  0  0  0  0  0  0  0  0  0
    4.4370    1.9522   17.4626 H   0  0  0  0  0  0  0  0  0  0  0  0
    7.9325   -6.4148   28.1641 H   0  0  0  0  0  0  0  0  0  0  0  0
    8.0254   -7.0920   26.5333 H   0  0  0  0  0  0  0  0  0  0  0  0
   10.3387   -6.1267   28.2923 H   0  0  0  0  0  0  0  0  0  0  0  0
    9.9904   -7.8023   27.8537 H   0  0  0  0  0  0  0  0  0  0  0  0
   11.7037   -6.0404   26.4771 H   0  0  0  0  0  0  0  0  0  0  0  0
   11.1411   -7.6068   25.8918 H   0  0  0  0  0  0  0  0  0  0  0  0
   10.7782   -5.5162   24.3756 H   0  0  0  0  0  0  0  0  0  0  0  0
    9.4042   -6.6189   24.5807 H   0  0  0  0  0  0  0  0  0  0  0  0
   15.0990    2.5601   22.6124 H   0  0  0  0  0  0  0  0  0  0  0  0
   15.5636    1.0018   23.3756 H   0  0  0  0  0  0  0  0  0  0  0  0
   14.7842    1.0025   21.7733 H   0  0  0  0  0  0  0  0  0  0  0  0
    9.3974    1.2912   24.5523 H   0  0  0  0  0  0  0  0  0  0  0  0
    9.5159    2.2168   23.0553 H   0  0  0  0  0  0  0  0  0  0  0  0
    8.2565   -1.5523   21.1108 H   0  0  0  0  0  0  0  0  0  0  0  0
  1  3  2  0  0  0  0
  1  8  1  0  0  0  0
  2  4  1  0  0  0  0
  2  8  2  0  0  0  0
  3  9  1  0  0  0  0
  4  9  2  0  0  0  0
  5  7  1  0  0  0  0
  5 24  2  0  0  0  0
  6  7  2  0  0  0  0
  6 27  1  0  0  0  0
  7 23  1  0  0  0  0
  8 29  1  0  0  0  0
  9 31  1  0  0  0  0
 10 11  2  0  0  0  0
 10 12  1  0  0  0  0
 10 28  1  0  0  0  0
 11 25  1  0  0  0  0
 11 30  1  0  0  0  0
 12 13  2  0  0  0  0
 13 14  1  0  0  0  0
 14 15  2  0  0  0  0
 15 28  1  0  0  0  0
 16 18  1  0  0  0  0
 16 29  1  0  0  0  0
 16 32  2  0  0  0  0
 17 30  1  0  0  0  0
 17 31  1  0  0  0  0
 17 33  2  0  0  0  0
 18 19  1  0  0  0  0
 19 20  1  0  0  0  0
 20 21  1  0  0  0  0
 21 29  1  0  0  0  0
 22 27  1  0  0  0  0
 23 31  1  0  0  0  0
 24 27  1  0  0  0  0
 25 26  2  0  0  0  0
 26 28  1  0  0  0  0
  1 34  1  0  0  0  0
  2 35  1  0  0  0  0
  3 36  1  0  0  0  0
  4 37  1  0  0  0  0
  5 38  1  0  0  0  0
  6 39  1  0  0  0  0
 12 40  1  0  0  0  0
 13 41  1  0  0  0  0
 14 42  1  0  0  0  0
 15 43  1  0  0  0  0
 18 44  1  0  0  0  0
 18 45  1  0  0  0  0
 19 46  1  0  0  0  0
 19 47  1  0  0  0  0
 20 48  1  0  0  0  0
 20 49  1  0  0  0  0
 21 50  1  0  0  0  0
 21 51  1  0  0  0  0
 22 52  1  0  0  0  0
 22 53  1  0  0  0  0
 22 54  1  0  0  0  0
 23 55  1  0  0  0  0
 23 56  1  0  0  0  0
 30 57  1  0  0  0  0
M  END
> <clash_score>
0.7790751876189459

> <docking_score>
-7.64186954498291

> <overlap_score>
0.9990366101264954

$$$$
BENZO_106_1
  -OEChem-08222022163D

 57 61  0     0  0  0  0  0  0999 V2000
   13.4006    0.5725   24.7805 C   0  0  0  0  0  0  0  0  0  0  0  0
   12.0141    0.5273   24.6359 C   0  0  0  0  0  0  0  0  0  0  0  0
    8.9960   -2.3380   25.5320 C   0  0  0  0  0  0  0  0  0  0  0  0
    9.6730   -3.4710   23.5300 C   0  0  0  0  0  0  0  0  0  0  0  0
    9.0720   -1.1280   24.8640 C   0  0  0  0  0  0  0  0  0  0  0  0
    9.7200   -2.2600   22.8630 C   0  0  0  0  0  0  0  0  0  0  0  0
   14.1526    1.4666   24.0184 C   0  0  0  0  0  0  0  0  0  0  0  0
   12.1314    2.2702   22.9668 C   0  0  0  0  0  0  0  0  0  0  0  0
   11.3794    1.3761   23.7290 C   0  0  0  0  0  0  0  0  0  0  0  0
    9.3070   -3.5340   24.8780 C   0  0  0  0  0  0  0  0  0  0  0  0
    9.3350   -1.0880   23.5010 C   0  0  0  0  0  0  0  0  0  0  0  0
   13.5180    2.3154   23.1115 C   0  0  0  0  0  0  0  0  0  0  0  0
    6.1790    0.5730   19.9990 C   0  0  0  0  0  0  0  0  0  0  0  0
    7.3170   -0.1610   19.8550 C   0  0  0  0  0  0  0  0  0  0  0  0
    5.4210    0.9600   21.0930 C   0  0  0  0  0  0  0  0  0  0  0  0
    4.2750    1.7050   20.8490 C   0  0  0  0  0  0  0  0  0  0  0  0
    3.9160    2.0630   19.5520 C   0  0  0  0  0  0  0  0  0  0  0  0
    4.6890    1.6810   18.4640 C   0  0  0  0  0  0  0  0  0  0  0  0
    8.3597   -5.0073   26.6307 C   0  0  0  0  0  0  0  0  0  0  0  0
    9.0420    0.3700   21.5280 C   0  0  0  0  0  0  0  0  0  0  0  0
    8.4720   -6.3981   27.2296 C   0  0  0  0  0  0  0  0  0  0  0  0
    9.9252   -6.7605   27.4803 C   0  0  0  0  0  0  0  0  0  0  0  0
   10.7833   -6.6094   26.2282 C   0  0  0  0  0  0  0  0  0  0  0  0
   10.0539   -5.9099   25.0823 C   0  0  0  0  0  0  0  0  0  0  0  0
    9.8870    1.3260   23.5730 C   0  0  0  0  0  0  0  0  0  0  0  0
    7.6390   -0.2680   18.5410 N   0  0  0  0  0  0  0  0  0  0  0  0
    6.7580    0.3810   17.8350 N   0  0  0  0  0  0  0  0  0  0  0  0
    5.8300    0.9190   18.6970 N   0  0  0  0  0  0  0  0  0  0  0  0
    9.2529   -4.7797   25.5644 N   0  0  0  0  0  0  0  0  0  0  0  0
    8.1890   -0.7180   20.8700 N   0  0  0  0  0  0  0  0  0  0  0  0
    9.4560    0.1560   22.8130 N   0  0  0  0  0  0  0  0  0  0  0  0
    7.4954   -4.2356   27.0449 O   0  0  0  0  0  0  0  0  0  0  0  0
    9.2690    1.4140   20.9380 O   0  0  0  0  0  0  0  0  0  0  0  0
   14.4463    3.4175   22.1707 Cl  0  0  0  0  0  0  0  0  0  0  0  0
   13.8945   -0.0888   25.4867 H   0  0  0  0  0  0  0  0  0  0  0  0
   11.4361   -0.1726   25.2338 H   0  0  0  0  0  0  0  0  0  0  0  0
    8.6895   -2.3529   26.5807 H   0  0  0  0  0  0  0  0  0  0  0  0
    9.9262   -4.3897   22.9916 H   0  0  0  0  0  0  0  0  0  0  0  0
    8.9224   -0.1998   25.4238 H   0  0  0  0  0  0  0  0  0  0  0  0
   10.0649   -2.2343   21.8258 H   0  0  0  0  0  0  0  0  0  0  0  0
   15.2326    1.4907   24.1414 H   0  0  0  0  0  0  0  0  0  0  0  0
   11.6318    2.9303   22.2615 H   0  0  0  0  0  0  0  0  0  0  0  0
    5.6855    0.7074   22.1002 H   0  0  0  0  0  0  0  0  0  0  0  0
    3.6634    2.0034   21.6926 H   0  0  0  0  0  0  0  0  0  0  0  0
    3.0111    2.6563   19.3629 H   0  0  0  0  0  0  0  0  0  0  0  0
    4.4370    1.9522   17.4626 H   0  0  0  0  0  0  0  0  0  0  0  0
    7.9325   -6.4148   28.1641 H   0  0  0  0  0  0  0  0  0  0  0  0
    8.0254   -7.0920   26.5333 H   0  0  0  0  0  0  0  0  0  0  0  0
   10.3387   -6.1267   28.2923 H   0  0  0  0  0  0  0  0  0  0  0  0
    9.9904   -7.8023   27.8537 H   0  0  0  0  0  0  0  0  0  0  0  0
   11.7037   -6.0404   26.4771 H   0  0  0  0  0  0  0  0  0  0  0  0
   11.1411   -7.6068   25.8918 H   0  0  0  0  0  0  0  0  0  0  0  0
   10.7782   -5.5162   24.3756 H   0  0  0  0  0  0  0  0  0  0  0  0
    9.4042   -6.6189   24.5807 H   0  0  0  0  0  0  0  0  0  0  0  0
    9.3974    1.2912   24.5523 H   0  0  0  0  0  0  0  0  0  0  0  0
    9.5159    2.2168   23.0553 H   0  0  0  0  0  0  0  0  0  0  0  0
    8.2565   -1.5523   21.1108 H   0  0  0  0  0  0  0  0  0  0  0  0
  1  2  2  0  0  0  0
  1  7  1  0  0  0  0
  2  9  1  0  0  0  0
  3  5  2  0  0  0  0
  3 10  1  0  0  0  0
  4  6  1  0  0  0  0
  4 10  2  0  0  0  0
  5 11  1  0  0  0  0
  6 11  2  0  0  0  0
  7 12  2  0  0  0  0
  8  9  2  0  0  0  0
  8 12  1  0  0  0  0
  9 25  1  0  0  0  0
 10 29  1  0  0  0  0
 11 31  1  0  0  0  0
 12 34  1  0  0  0  0
 13 14  2  0  0  0  0
 13 15  1  0  0  0  0
 13 28  1  0  0  0  0
 14 26  1  0  0  0  0
 14 30  1  0  0  0  0
 15 16  2  0  0  0  0
 16 17  1  0  0  0  0
 17 18  2  0  0  0  0
 18 28  1  0  0  0  0
 19 21  1  0  0  0  0
 19 29  1  0  0  0  0
 19 32  2  0  0  0  0
 20 30  1  0  0  0  0
 20 31  1  0  0  0  0
 20 33  2  0  0  0  0
 21 22  1  0  0  0  0
 22 23  1  0  0  0  0
 23 24  1  0  0  0  0
 24 29  1  0  0  0  0
 25 31  1  0  0  0  0
 26 27  2  0  0  0  0
 27 28  1  0  0  0  0
  1 35  1  0  0  0  0
  2 36  1  0  0  0  0
  3 37  1  0  0  0  0
  4 38  1  0  0  0  0
  5 39  1  0  0  0  0
  6 40  1  0  0  0  0
  7 41  1  0  0  0  0
  8 42  1  0  0  0  0
 15 43  1  0  0  0  0
 16 44  1  0  0  0  0
 17 45  1  0  0  0  0
 18 46  1  0  0  0  0
 21 47  1  0  0  0  0
 21 48  1  0  0  0  0
 22 49  1  0  0  0  0
 22 50  1  0  0  0  0
 23 51  1  0  0  0  0
 23 52  1  0  0  0  0
 24 53  1  0  0  0  0
 24 54  1  0  0  0  0
 25 55  1  0  0  0  0
 25 56  1  0  0  0  0
 30 57  1  0  0  0  0
M  END
> <clash_score>
0.7790751876189459

> <docking_score>
-7.062701225280762

> <overlap_score>
1.0151578187942505

$$$$
BENZO_108_1
  -OEChem-08222022163D

 53 57  0     0  0  0  0  0  0999 V2000
    8.9960   -2.3380   25.5320 C   0  0  0  0  0  0  0  0  0  0  0  0
    9.6730   -3.4710   23.5300 C   0  0  0  0  0  0  0  0  0  0  0  0
    9.0720   -1.1280   24.8640 C   0  0  0  0  0  0  0  0  0  0  0  0
    9.7200   -2.2600   22.8630 C   0  0  0  0  0  0  0  0  0  0  0  0
   12.2111    0.2208   23.7905 C   0  0  0  0  0  0  0  0  0  0  0  0
   13.5412    0.5479   23.9364 C   0  0  0  0  0  0  0  0  0  0  0  0
   12.1057    2.5424   23.8305 C   0  0  0  0  0  0  0  0  0  0  0  0
   11.3794    1.3761   23.7290 C   0  0  0  0  0  0  0  0  0  0  0  0
    9.3070   -3.5340   24.8780 C   0  0  0  0  0  0  0  0  0  0  0  0
    9.3350   -1.0880   23.5010 C   0  0  0  0  0  0  0  0  0  0  0  0
    6.1790    0.5730   19.9990 C   0  0  0  0  0  0  0  0  0  0  0  0
    7.3170   -0.1610   19.8550 C   0  0  0  0  0  0  0  0  0  0  0  0
    5.4210    0.9600   21.0930 C   0  0  0  0  0  0  0  0  0  0  0  0
    4.2750    1.7050   20.8490 C   0  0  0  0  0  0  0  0  0  0  0  0
    3.9160    2.0630   19.5520 C   0  0  0  0  0  0  0  0  0  0  0  0
    4.6890    1.6810   18.4640 C   0  0  0  0  0  0  0  0  0  0  0  0
    9.0420    0.3700   21.5280 C   0  0  0  0  0  0  0  0  0  0  0  0
    9.5175   -4.8597   26.9771 C   0  0  0  0  0  0  0  0  0  0  0  0
    8.5165   -5.8725   24.9808 C   0  0  0  0  0  0  0  0  0  0  0  0
    8.1868   -5.0439   27.6987 C   0  0  0  0  0  0  0  0  0  0  0  0
    7.2200   -6.0347   25.7755 C   0  0  0  0  0  0  0  0  0  0  0  0
    9.8870    1.3260   23.5730 C   0  0  0  0  0  0  0  0  0  0  0  0
    7.6390   -0.2680   18.5410 N   0  0  0  0  0  0  0  0  0  0  0  0
    6.7580    0.3810   17.8350 N   0  0  0  0  0  0  0  0  0  0  0  0
    5.8300    0.9190   18.6970 N   0  0  0  0  0  0  0  0  0  0  0  0
    9.2563   -4.7368   25.5413 N   0  0  0  0  0  0  0  0  0  0  0  0
    8.1890   -0.7180   20.8700 N   0  0  0  0  0  0  0  0  0  0  0  0
    9.4560    0.1560   22.8130 N   0  0  0  0  0  0  0  0  0  0  0  0
    9.2690    1.4140   20.9380 O   0  0  0  0  0  0  0  0  0  0  0  0
    7.4994   -6.1853   27.1719 O   0  0  0  0  0  0  0  0  0  0  0  0
   13.7831    2.2420   23.9988 S   0  0  0  0  0  0  0  0  0  0  0  0
    8.6905   -2.3533   26.5810 H   0  0  0  0  0  0  0  0  0  0  0  0
    9.9266   -4.3896   22.9917 H   0  0  0  0  0  0  0  0  0  0  0  0
    8.9233   -0.1992   25.4232 H   0  0  0  0  0  0  0  0  0  0  0  0
   10.0650   -2.2330   21.8256 H   0  0  0  0  0  0  0  0  0  0  0  0
   11.8559   -0.8003   23.7315 H   0  0  0  0  0  0  0  0  0  0  0  0
   14.3824   -0.1267   24.0100 H   0  0  0  0  0  0  0  0  0  0  0  0
   11.7354    3.5581   23.8155 H   0  0  0  0  0  0  0  0  0  0  0  0
    5.6855    0.7074   22.1002 H   0  0  0  0  0  0  0  0  0  0  0  0
    3.6634    2.0034   21.6926 H   0  0  0  0  0  0  0  0  0  0  0  0
    3.0111    2.6563   19.3629 H   0  0  0  0  0  0  0  0  0  0  0  0
    4.4370    1.9522   17.4626 H   0  0  0  0  0  0  0  0  0  0  0  0
   10.0205   -3.9698   27.3609 H   0  0  0  0  0  0  0  0  0  0  0  0
   10.1535   -5.7310   27.1549 H   0  0  0  0  0  0  0  0  0  0  0  0
    9.1181   -6.7773   25.0755 H   0  0  0  0  0  0  0  0  0  0  0  0
    8.2812   -5.7064   23.9305 H   0  0  0  0  0  0  0  0  0  0  0  0
    8.3629   -5.2252   28.7611 H   0  0  0  0  0  0  0  0  0  0  0  0
    7.5530   -4.1570   27.6103 H   0  0  0  0  0  0  0  0  0  0  0  0
    6.5459   -5.1839   25.6221 H   0  0  0  0  0  0  0  0  0  0  0  0
    6.6948   -6.9354   25.4436 H   0  0  0  0  0  0  0  0  0  0  0  0
    9.3974    1.2912   24.5523 H   0  0  0  0  0  0  0  0  0  0  0  0
    9.5159    2.2168   23.0553 H   0  0  0  0  0  0  0  0  0  0  0  0
    8.2565   -1.5523   21.1108 H   0  0  0  0  0  0  0  0  0  0  0  0
  1  3  2  0  0  0  0
  1  9  1  0  0  0  0
  2  4  1  0  0  0  0
  2  9  2  0  0  0  0
  3 10  1  0  0  0  0
  4 10  2  0  0  0  0
  5  6  2  0  0  0  0
  5  8  1  0  0  0  0
  6 31  1  0  0  0  0
  7  8  2  0  0  0  0
  7 31  1  0  0  0  0
  8 22  1  0  0  0  0
  9 26  1  0  0  0  0
 10 28  1  0  0  0  0
 11 12  2  0  0  0  0
 11 13  1  0  0  0  0
 11 25  1  0  0  0  0
 12 23  1  0  0  0  0
 12 27  1  0  0  0  0
 13 14  2  0  0  0  0
 14 15  1  0  0  0  0
 15 16  2  0  0  0  0
 16 25  1  0  0  0  0
 17 27  1  0  0  0  0
 17 28  1  0  0  0  0
 17 29  2  0  0  0  0
 18 20  1  0  0  0  0
 18 26  1  0  0  0  0
 19 21  1  0  0  0  0
 19 26  1  0  0  0  0
 20 30  1  0  0  0  0
 21 30  1  0  0  0  0
 22 28  1  0  0  0  0
 23 24  2  0  0  0  0
 24 25  1  0  0  0  0
  1 32  1  0  0  0  0
  2 33  1  0  0  0  0
  3 34  1  0  0  0  0
  4 35  1  0  0  0  0
  5 36  1  0  0  0  0
  6 37  1  0  0  0  0
  7 38  1  0  0  0  0
 13 39  1  0  0  0  0
 14 40  1  0  0  0  0
 15 41  1  0  0  0  0
 16 42  1  0  0  0  0
 18 43  1  0  0  0  0
 18 44  1  0  0  0  0
 19 45  1  0  0  0  0
 19 46  1  0  0  0  0
 20 47  1  0  0  0  0
 20 48  1  0  0  0  0
 21 49  1  0  0  0  0
 21 50  1  0  0  0  0
 22 51  1  0  0  0  0
 22 52  1  0  0  0  0
 27 53  1  0  0  0  0
M  END
> <clash_score>
0

> <docking_score>
-8.142122268676758

> <overlap_score>
0.9791508913040161

$$$$
BENZO_111_1
  -OEChem-08222022163D

 56 60  0     0  0  0  0  0  0999 V2000
    8.9960   -2.3380   25.5320 C   0  0  0  0  0  0  0  0  0  0  0  0
    9.6730   -3.4710   23.5300 C   0  0  0  0  0  0  0  0  0  0  0  0
    9.0720   -1.1280   24.8640 C   0  0  0  0  0  0  0  0  0  0  0  0
    9.7200   -2.2600   22.8630 C   0  0  0  0  0  0  0  0  0  0  0  0
   12.2914    2.2071   23.0512 C   0  0  0  0  0  0  0  0  0  0  0  0
   12.1614    0.6214   24.5689 C   0  0  0  0  0  0  0  0  0  0  0  0
   11.3794    1.3761   23.7290 C   0  0  0  0  0  0  0  0  0  0  0  0
    9.3070   -3.5340   24.8780 C   0  0  0  0  0  0  0  0  0  0  0  0
    9.3350   -1.0880   23.5010 C   0  0  0  0  0  0  0  0  0  0  0  0
    6.1790    0.5730   19.9990 C   0  0  0  0  0  0  0  0  0  0  0  0
    7.3170   -0.1610   19.8550 C   0  0  0  0  0  0  0  0  0  0  0  0
    5.4210    0.9600   21.0930 C   0  0  0  0  0  0  0  0  0  0  0  0
    4.2750    1.7050   20.8490 C   0  0  0  0  0  0  0  0  0  0  0  0
    3.9160    2.0630   19.5520 C   0  0  0  0  0  0  0  0  0  0  0  0
    4.6890    1.6810   18.4640 C   0  0  0  0  0  0  0  0  0  0  0  0
    9.0420    0.3700   21.5280 C   0  0  0  0  0  0  0  0  0  0  0  0
   10.0771   -5.0255   26.7193 C   0  0  0  0  0  0  0  0  0  0  0  0
    8.0927   -5.6195   25.4071 C   0  0  0  0  0  0  0  0  0  0  0  0
    9.1933   -4.9427   27.9592 C   0  0  0  0  0  0  0  0  0  0  0  0
    7.2756   -5.5290   26.6967 C   0  0  0  0  0  0  0  0  0  0  0  0
   14.6267    0.5248   25.0067 C   0  0  0  0  0  0  0  0  0  0  0  0
    9.8870    1.3260   23.5730 C   0  0  0  0  0  0  0  0  0  0  0  0
   13.5560    2.0002   23.4280 N   0  0  0  0  0  0  0  0  0  0  0  0
    7.6390   -0.2680   18.5410 N   0  0  0  0  0  0  0  0  0  0  0  0
    6.7580    0.3810   17.8350 N   0  0  0  0  0  0  0  0  0  0  0  0
   13.4442    1.0306   24.3518 N   0  0  0  0  0  0  0  0  0  0  0  0
    5.8300    0.9190   18.6970 N   0  0  0  0  0  0  0  0  0  0  0  0
    9.2563   -4.7368   25.5413 N   0  0  0  0  0  0  0  0  0  0  0  0
    8.1890   -0.7180   20.8700 N   0  0  0  0  0  0  0  0  0  0  0  0
    9.4560    0.1560   22.8130 N   0  0  0  0  0  0  0  0  0  0  0  0
    9.2690    1.4140   20.9380 O   0  0  0  0  0  0  0  0  0  0  0  0
    8.0883   -5.8459   27.8325 O   0  0  0  0  0  0  0  0  0  0  0  0
    8.6905   -2.3533   26.5810 H   0  0  0  0  0  0  0  0  0  0  0  0
    9.9266   -4.3896   22.9917 H   0  0  0  0  0  0  0  0  0  0  0  0
    8.9233   -0.1992   25.4232 H   0  0  0  0  0  0  0  0  0  0  0  0
   10.0650   -2.2330   21.8256 H   0  0  0  0  0  0  0  0  0  0  0  0
   12.0895    2.9562   22.2987 H   0  0  0  0  0  0  0  0  0  0  0  0
   11.9201   -0.1518   25.2857 H   0  0  0  0  0  0  0  0  0  0  0  0
    5.6855    0.7074   22.1002 H   0  0  0  0  0  0  0  0  0  0  0  0
    3.6634    2.0034   21.6926 H   0  0  0  0  0  0  0  0  0  0  0  0
    3.0111    2.6563   19.3629 H   0  0  0  0  0  0  0  0  0  0  0  0
    4.4370    1.9522   17.4626 H   0  0  0  0  0  0  0  0  0  0  0  0
   10.8985   -4.3115   26.8085 H   0  0  0  0  0  0  0  0  0  0  0  0
   10.4915   -6.0334   26.6323 H   0  0  0  0  0  0  0  0  0  0  0  0
    8.4327   -6.6456   25.2620 H   0  0  0  0  0  0  0  0  0  0  0  0
    7.4725   -5.3241   24.5619 H   0  0  0  0  0  0  0  0  0  0  0  0
    9.7636   -5.2398   28.8419 H   0  0  0  0  0  0  0  0  0  0  0  0
    8.8236   -3.9268   28.1248 H   0  0  0  0  0  0  0  0  0  0  0  0
    6.8339   -4.5337   26.8232 H   0  0  0  0  0  0  0  0  0  0  0  0
    6.4550   -6.2521   26.6643 H   0  0  0  0  0  0  0  0  0  0  0  0
   15.0068   -0.3132   24.4165 H   0  0  0  0  0  0  0  0  0  0  0  0
   15.3758    1.3189   25.0698 H   0  0  0  0  0  0  0  0  0  0  0  0
   14.3675    0.1958   26.0170 H   0  0  0  0  0  0  0  0  0  0  0  0
    9.3974    1.2912   24.5523 H   0  0  0  0  0  0  0  0  0  0  0  0
    9.5159    2.2168   23.0553 H   0  0  0  0  0  0  0  0  0  0  0  0
    8.2565   -1.5523   21.1108 H   0  0  0  0  0  0  0  0  0  0  0  0
  1  3  2  0  0  0  0
  1  8  1  0  0  0  0
  2  4  1  0  0  0  0
  2  8  2  0  0  0  0
  3  9  1  0  0  0  0
  4  9  2  0  0  0  0
  5  7  1  0  0  0  0
  5 23  2  0  0  0  0
  6  7  2  0  0  0  0
  6 26  1  0  0  0  0
  7 22  1  0  0  0  0
  8 28  1  0  0  0  0
  9 30  1  0  0  0  0
 10 11  2  0  0  0  0
 10 12  1  0  0  0  0
 10 27  1  0  0  0  0
 11 24  1  0  0  0  0
 11 29  1  0  0  0  0
 12 13  2  0  0  0  0
 13 14  1  0  0  0  0
 14 15  2  0  0  0  0
 15 27  1  0  0  0  0
 16 29  1  0  0  0  0
 16 30  1  0  0  0  0
 16 31  2  0  0  0  0
 17 19  1  0  0  0  0
 17 28  1  0  0  0  0
 18 20  1  0  0  0  0
 18 28  1  0  0  0  0
 19 32  1  0  0  0  0
 20 32  1  0  0  0  0
 21 26  1  0  0  0  0
 22 30  1  0  0  0  0
 23 26  1  0  0  0  0
 24 25  2  0  0  0  0
 25 27  1  0  0  0  0
  1 33  1  0  0  0  0
  2 34  1  0  0  0  0
  3 35  1  0  0  0  0
  4 36  1  0  0  0  0
  5 37  1  0  0  0  0
  6 38  1  0  0  0  0
 12 39  1  0  0  0  0
 13 40  1  0  0  0  0
 14 41  1  0  0  0  0
 15 42  1  0  0  0  0
 17 43  1  0  0  0  0
 17 44  1  0  0  0  0
 18 45  1  0  0  0  0
 18 46  1  0  0  0  0
 19 47  1  0  0  0  0
 19 48  1  0  0  0  0
 20 49  1  0  0  0  0
 20 50  1  0  0  0  0
 21 51  1  0  0  0  0
 21 52  1  0  0  0  0
 21 53  1  0  0  0  0
 22 54  1  0  0  0  0
 22 55  1  0  0  0  0
 29 56  1  0  0  0  0
M  END
> <clash_score>
0.6199424094734003

> <docking_score>
-8.614846229553223

> <overlap_score>
0.9891132712364197

$$$$
BENZO_110_1
  -OEChem-08222022163D

 56 60  0     0  0  0  0  0  0999 V2000
   13.4007    0.5725   24.7805 C   0  0  0  0  0  0  0  0  0  0  0  0
   12.0141    0.5273   24.6359 C   0  0  0  0  0  0  0  0  0  0  0  0
    8.9960   -2.3380   25.5320 C   0  0  0  0  0  0  0  0  0  0  0  0
    9.6730   -3.4710   23.5300 C   0  0  0  0  0  0  0  0  0  0  0  0
    9.0720   -1.1280   24.8640 C   0  0  0  0  0  0  0  0  0  0  0  0
    9.7200   -2.2600   22.8630 C   0  0  0  0  0  0  0  0  0  0  0  0
   14.1526    1.4666   24.0184 C   0  0  0  0  0  0  0  0  0  0  0  0
   12.1314    2.2702   22.9668 C   0  0  0  0  0  0  0  0  0  0  0  0
   11.3794    1.3761   23.7290 C   0  0  0  0  0  0  0  0  0  0  0  0
    9.3070   -3.5340   24.8780 C   0  0  0  0  0  0  0  0  0  0  0  0
    9.3350   -1.0880   23.5010 C   0  0  0  0  0  0  0  0  0  0  0  0
   13.5180    2.3154   23.1115 C   0  0  0  0  0  0  0  0  0  0  0  0
    6.1790    0.5730   19.9990 C   0  0  0  0  0  0  0  0  0  0  0  0
    7.3170   -0.1610   19.8550 C   0  0  0  0  0  0  0  0  0  0  0  0
    5.4210    0.9600   21.0930 C   0  0  0  0  0  0  0  0  0  0  0  0
    4.2750    1.7050   20.8490 C   0  0  0  0  0  0  0  0  0  0  0  0
    3.9160    2.0630   19.5520 C   0  0  0  0  0  0  0  0  0  0  0  0
    4.6890    1.6810   18.4640 C   0  0  0  0  0  0  0  0  0  0  0  0
    9.0420    0.3700   21.5280 C   0  0  0  0  0  0  0  0  0  0  0  0
   10.0771   -5.0255   26.7193 C   0  0  0  0  0  0  0  0  0  0  0  0
    8.0927   -5.6195   25.4071 C   0  0  0  0  0  0  0  0  0  0  0  0
    9.1933   -4.9427   27.9592 C   0  0  0  0  0  0  0  0  0  0  0  0
    7.2756   -5.5290   26.6967 C   0  0  0  0  0  0  0  0  0  0  0  0
    9.8870    1.3260   23.5730 C   0  0  0  0  0  0  0  0  0  0  0  0
    7.6390   -0.2680   18.5410 N   0  0  0  0  0  0  0  0  0  0  0  0
    6.7580    0.3810   17.8350 N   0  0  0  0  0  0  0  0  0  0  0  0
    5.8300    0.9190   18.6970 N   0  0  0  0  0  0  0  0  0  0  0  0
    9.2563   -4.7368   25.5413 N   0  0  0  0  0  0  0  0  0  0  0  0
    8.1890   -0.7180   20.8700 N   0  0  0  0  0  0  0  0  0  0  0  0
    9.4560    0.1560   22.8130 N   0  0  0  0  0  0  0  0  0  0  0  0
    9.2690    1.4140   20.9380 O   0  0  0  0  0  0  0  0  0  0  0  0
    8.0883   -5.8459   27.8325 O   0  0  0  0  0  0  0  0  0  0  0  0
   14.4463    3.4175   22.1707 Cl  0  0  0  0  0  0  0  0  0  0  0  0
   13.8945   -0.0888   25.4867 H   0  0  0  0  0  0  0  0  0  0  0  0
   11.4361   -0.1726   25.2338 H   0  0  0  0  0  0  0  0  0  0  0  0
    8.6905   -2.3533   26.5810 H   0  0  0  0  0  0  0  0  0  0  0  0
    9.9266   -4.3896   22.9917 H   0  0  0  0  0  0  0  0  0  0  0  0
    8.9233   -0.1992   25.4232 H   0  0  0  0  0  0  0  0  0  0  0  0
   10.0650   -2.2330   21.8256 H   0  0  0  0  0  0  0  0  0  0  0  0
   15.2326    1.4907   24.1414 H   0  0  0  0  0  0  0  0  0  0  0  0
   11.6318    2.9303   22.2615 H   0  0  0  0  0  0  0  0  0  0  0  0
    5.6855    0.7074   22.1002 H   0  0  0  0  0  0  0  0  0  0  0  0
    3.6634    2.0034   21.6926 H   0  0  0  0  0  0  0  0  0  0  0  0
    3.0111    2.6563   19.3629 H   0  0  0  0  0  0  0  0  0  0  0  0
    4.4370    1.9522   17.4626 H   0  0  0  0  0  0  0  0  0  0  0  0
   10.8985   -4.3115   26.8085 H   0  0  0  0  0  0  0  0  0  0  0  0
   10.4915   -6.0334   26.6323 H   0  0  0  0  0  0  0  0  0  0  0  0
    8.4327   -6.6456   25.2620 H   0  0  0  0  0  0  0  0  0  0  0  0
    7.4725   -5.3241   24.5619 H   0  0  0  0  0  0  0  0  0  0  0  0
    9.7636   -5.2398   28.8419 H   0  0  0  0  0  0  0  0  0  0  0  0
    8.8236   -3.9268   28.1248 H   0  0  0  0  0  0  0  0  0  0  0  0
    6.8339   -4.5337   26.8232 H   0  0  0  0  0  0  0  0  0  0  0  0
    6.4550   -6.2521   26.6643 H   0  0  0  0  0  0  0  0  0  0  0  0
    9.3974    1.2912   24.5523 H   0  0  0  0  0  0  0  0  0  0  0  0
    9.5159    2.2168   23.0553 H   0  0  0  0  0  0  0  0  0  0  0  0
    8.2565   -1.5523   21.1108 H   0  0  0  0  0  0  0  0  0  0  0  0
  1  2  2  0  0  0  0
  1  7  1  0  0  0  0
  2  9  1  0  0  0  0
  3  5  2  0  0  0  0
  3 10  1  0  0  0  0
  4  6  1  0  0  0  0
  4 10  2  0  0  0  0
  5 11  1  0  0  0  0
  6 11  2  0  0  0  0
  7 12  2  0  0  0  0
  8  9  2  0  0  0  0
  8 12  1  0  0  0  0
  9 24  1  0  0  0  0
 10 28  1  0  0  0  0
 11 30  1  0  0  0  0
 12 33  1  0  0  0  0
 13 14  2  0  0  0  0
 13 15  1  0  0  0  0
 13 27  1  0  0  0  0
 14 25  1  0  0  0  0
 14 29  1  0  0  0  0
 15 16  2  0  0  0  0
 16 17  1  0  0  0  0
 17 18  2  0  0  0  0
 18 27  1  0  0  0  0
 19 29  1  0  0  0  0
 19 30  1  0  0  0  0
 19 31  2  0  0  0  0
 20 22  1  0  0  0  0
 20 28  1  0  0  0  0
 21 23  1  0  0  0  0
 21 28  1  0  0  0  0
 22 32  1  0  0  0  0
 23 32  1  0  0  0  0
 24 30  1  0  0  0  0
 25 26  2  0  0  0  0
 26 27  1  0  0  0  0
  1 34  1  0  0  0  0
  2 35  1  0  0  0  0
  3 36  1  0  0  0  0
  4 37  1  0  0  0  0
  5 38  1  0  0  0  0
  6 39  1  0  0  0  0
  7 40  1  0  0  0  0
  8 41  1  0  0  0  0
 15 42  1  0  0  0  0
 16 43  1  0  0  0  0
 17 44  1  0  0  0  0
 18 45  1  0  0  0  0
 20 46  1  0  0  0  0
 20 47  1  0  0  0  0
 21 48  1  0  0  0  0
 21 49  1  0  0  0  0
 22 50  1  0  0  0  0
 22 51  1  0  0  0  0
 23 52  1  0  0  0  0
 23 53  1  0  0  0  0
 24 54  1  0  0  0  0
 24 55  1  0  0  0  0
 29 56  1  0  0  0  0
M  END
> <clash_score>
0

> <docking_score>
-8.04382038116455

> <overlap_score>
1.001425862312317

$$$$
BENZO_112_1
  -OEChem-08222022163D

 50 53  0     0  0  0  0  0  0999 V2000
    4.2750    1.7050   20.8490 C   0  0  0  0  0  0  0  0  0  0  0  0
    3.9160    2.0630   19.5520 C   0  0  0  0  0  0  0  0  0  0  0  0
    5.4210    0.9600   21.0930 C   0  0  0  0  0  0  0  0  0  0  0  0
    4.6890    1.6810   18.4640 C   0  0  0  0  0  0  0  0  0  0  0  0
    9.0720   -1.1280   24.8640 C   0  0  0  0  0  0  0  0  0  0  0  0
    9.7200   -2.2600   22.8630 C   0  0  0  0  0  0  0  0  0  0  0  0
    8.9960   -2.3380   25.5320 C   0  0  0  0  0  0  0  0  0  0  0  0
    9.6730   -3.4710   23.5300 C   0  0  0  0  0  0  0  0  0  0  0  0
   12.2913    1.4279   22.6355 C   0  0  0  0  0  0  0  0  0  0  0  0
    7.6390   -0.2680   18.5410 C   0  0  0  0  0  0  0  0  0  0  0  0
   13.6024    1.4661   23.0564 C   0  0  0  0  0  0  0  0  0  0  0  0
   12.0284    1.3764   24.9443 C   0  0  0  0  0  0  0  0  0  0  0  0
    6.1790    0.5730   19.9990 C   0  0  0  0  0  0  0  0  0  0  0  0
   11.3794    1.3761   23.7290 C   0  0  0  0  0  0  0  0  0  0  0  0
    5.8300    0.9190   18.6970 C   0  0  0  0  0  0  0  0  0  0  0  0
    9.3350   -1.0880   23.5010 C   0  0  0  0  0  0  0  0  0  0  0  0
    9.3070   -3.5340   24.8780 C   0  0  0  0  0  0  0  0  0  0  0  0
    7.3170   -0.1610   19.8550 C   0  0  0  0  0  0  0  0  0  0  0  0
    9.0420    0.3700   21.5280 C   0  0  0  0  0  0  0  0  0  0  0  0
    8.8742   -4.8064   26.9496 C   0  0  0  0  0  0  0  0  0  0  0  0
    9.5655   -5.9897   24.8591 C   0  0  0  0  0  0  0  0  0  0  0  0
    9.8870    1.3260   23.5730 C   0  0  0  0  0  0  0  0  0  0  0  0
    6.7580    0.3810   17.8350 N   0  0  0  0  0  0  0  0  0  0  0  0
    8.1890   -0.7180   20.8700 N   0  0  0  0  0  0  0  0  0  0  0  0
    9.4560    0.1560   22.8130 N   0  0  0  0  0  0  0  0  0  0  0  0
    9.2543   -4.7552   25.5519 N   0  0  0  0  0  0  0  0  0  0  0  0
    9.2690    1.4140   20.9380 O   0  0  0  0  0  0  0  0  0  0  0  0
   13.7301    1.4394   24.7638 S   0  0  0  0  0  0  0  0  0  0  0  0
    3.6453    2.0152   21.6831 H   0  0  0  0  0  0  0  0  0  0  0  0
    3.0147    2.6520   19.3913 H   0  0  0  0  0  0  0  0  0  0  0  0
    5.6991    0.6995   22.1042 H   0  0  0  0  0  0  0  0  0  0  0  0
    4.4051    1.9733   17.4488 H   0  0  0  0  0  0  0  0  0  0  0  0
    8.9217   -0.1995   25.4232 H   0  0  0  0  0  0  0  0  0  0  0  0
   10.0643   -2.2341   21.8254 H   0  0  0  0  0  0  0  0  0  0  0  0
    8.6893   -2.3540   26.5808 H   0  0  0  0  0  0  0  0  0  0  0  0
    9.9257   -4.3898   22.9921 H   0  0  0  0  0  0  0  0  0  0  0  0
   12.0045    1.4365   21.5915 H   0  0  0  0  0  0  0  0  0  0  0  0
    8.4825   -0.7940   18.0623 H   0  0  0  0  0  0  0  0  0  0  0  0
   14.4914    1.5078   22.4431 H   0  0  0  0  0  0  0  0  0  0  0  0
   11.5886    1.3416   25.9314 H   0  0  0  0  0  0  0  0  0  0  0  0
    8.8922   -5.8499   27.2971 H   0  0  0  0  0  0  0  0  0  0  0  0
    9.5819   -4.2099   27.5440 H   0  0  0  0  0  0  0  0  0  0  0  0
    7.8599   -4.3978   27.0688 H   0  0  0  0  0  0  0  0  0  0  0  0
    9.4682   -6.8360   25.5551 H   0  0  0  0  0  0  0  0  0  0  0  0
    8.8685   -6.1243   24.0189 H   0  0  0  0  0  0  0  0  0  0  0  0
   10.5961   -5.9459   24.4772 H   0  0  0  0  0  0  0  0  0  0  0  0
    9.3974    1.2912   24.5523 H   0  0  0  0  0  0  0  0  0  0  0  0
    9.5159    2.2168   23.0553 H   0  0  0  0  0  0  0  0  0  0  0  0
    6.7266    0.4930   16.8305 H   0  0  0  0  0  0  0  0  0  0  0  0
    8.2383   -1.5634   21.0944 H   0  0  0  0  0  0  0  0  0  0  0  0
  1  2  1  0  0  0  0
  1  3  2  0  0  0  0
  2  4  2  0  0  0  0
  3 13  1  0  0  0  0
  4 15  1  0  0  0  0
  5  7  2  0  0  0  0
  5 16  1  0  0  0  0
  6  8  1  0  0  0  0
  6 16  2  0  0  0  0
  7 17  1  0  0  0  0
  8 17  2  0  0  0  0
  9 11  2  0  0  0  0
  9 14  1  0  0  0  0
 10 18  2  0  0  0  0
 10 23  1  0  0  0  0
 11 28  1  0  0  0  0
 12 14  2  0  0  0  0
 12 28  1  0  0  0  0
 13 15  2  0  0  0  0
 13 18  1  0  0  0  0
 14 22  1  0  0  0  0
 15 23  1  0  0  0  0
 16 25  1  0  0  0  0
 17 26  1  0  0  0  0
 18 24  1  0  0  0  0
 19 24  1  0  0  0  0
 19 25  1  0  0  0  0
 19 27  2  0  0  0  0
 20 26  1  0  0  0  0
 21 26  1  0  0  0  0
 22 25  1  0  0  0  0
  1 29  1  0  0  0  0
  2 30  1  0  0  0  0
  3 31  1  0  0  0  0
  4 32  1  0  0  0  0
  5 33  1  0  0  0  0
  6 34  1  0  0  0  0
  7 35  1  0  0  0  0
  8 36  1  0  0  0  0
  9 37  1  0  0  0  0
 10 38  1  0  0  0  0
 11 39  1  0  0  0  0
 12 40  1  0  0  0  0
 20 41  1  0  0  0  0
 20 42  1  0  0  0  0
 20 43  1  0  0  0  0
 21 44  1  0  0  0  0
 21 45  1  0  0  0  0
 21 46  1  0  0  0  0
 22 47  1  0  0  0  0
 22 48  1  0  0  0  0
 23 49  1  0  0  0  0
 24 50  1  0  0  0  0
M  END
> <clash_score>
0

> <docking_score>
-8.693855285644531

> <overlap_score>
0.9639393091201782

$$$$
BENZO_113_1
  -OEChem-08222022163D

 53 56  0     0  0  0  0  0  0999 V2000
   14.1526    1.4694   24.0176 C   0  0  0  0  0  0  0  0  0  0  0  0
    4.2750    1.7050   20.8490 C   0  0  0  0  0  0  0  0  0  0  0  0
   13.3741    0.8121   24.9701 C   0  0  0  0  0  0  0  0  0  0  0  0
   13.5446    2.0802   22.9208 C   0  0  0  0  0  0  0  0  0  0  0  0
    3.9160    2.0630   19.5520 C   0  0  0  0  0  0  0  0  0  0  0  0
    5.4210    0.9600   21.0930 C   0  0  0  0  0  0  0  0  0  0  0  0
   11.9875    0.7654   24.8258 C   0  0  0  0  0  0  0  0  0  0  0  0
   12.1580    2.0335   22.7765 C   0  0  0  0  0  0  0  0  0  0  0  0
    4.6890    1.6810   18.4640 C   0  0  0  0  0  0  0  0  0  0  0  0
    9.0720   -1.1280   24.8640 C   0  0  0  0  0  0  0  0  0  0  0  0
    9.7200   -2.2600   22.8630 C   0  0  0  0  0  0  0  0  0  0  0  0
    8.9960   -2.3380   25.5320 C   0  0  0  0  0  0  0  0  0  0  0  0
    9.6730   -3.4710   23.5300 C   0  0  0  0  0  0  0  0  0  0  0  0
    7.6390   -0.2680   18.5410 C   0  0  0  0  0  0  0  0  0  0  0  0
    6.1790    0.5730   19.9990 C   0  0  0  0  0  0  0  0  0  0  0  0
   11.3794    1.3761   23.7290 C   0  0  0  0  0  0  0  0  0  0  0  0
    5.8300    0.9190   18.6970 C   0  0  0  0  0  0  0  0  0  0  0  0
    9.3350   -1.0880   23.5010 C   0  0  0  0  0  0  0  0  0  0  0  0
    9.3070   -3.5340   24.8780 C   0  0  0  0  0  0  0  0  0  0  0  0
    7.3170   -0.1610   19.8550 C   0  0  0  0  0  0  0  0  0  0  0  0
    9.0420    0.3700   21.5280 C   0  0  0  0  0  0  0  0  0  0  0  0
    8.0128   -5.2151   26.1416 C   0  0  0  0  0  0  0  0  0  0  0  0
   10.4372   -5.5860   25.6589 C   0  0  0  0  0  0  0  0  0  0  0  0
    9.8870    1.3260   23.5730 C   0  0  0  0  0  0  0  0  0  0  0  0
    6.7580    0.3810   17.8350 N   0  0  0  0  0  0  0  0  0  0  0  0
    8.1890   -0.7180   20.8700 N   0  0  0  0  0  0  0  0  0  0  0  0
    9.4560    0.1560   22.8130 N   0  0  0  0  0  0  0  0  0  0  0  0
    9.2543   -4.7552   25.5519 N   0  0  0  0  0  0  0  0  0  0  0  0
    9.2690    1.4140   20.9380 O   0  0  0  0  0  0  0  0  0  0  0  0
   15.2322    1.5068   24.1308 H   0  0  0  0  0  0  0  0  0  0  0  0
    3.6453    2.0152   21.6831 H   0  0  0  0  0  0  0  0  0  0  0  0
   13.8473    0.3374   25.8248 H   0  0  0  0  0  0  0  0  0  0  0  0
   14.1503    2.5930   22.1795 H   0  0  0  0  0  0  0  0  0  0  0  0
    3.0147    2.6520   19.3913 H   0  0  0  0  0  0  0  0  0  0  0  0
    5.6991    0.6995   22.1042 H   0  0  0  0  0  0  0  0  0  0  0  0
   11.3889    0.2508   25.5729 H   0  0  0  0  0  0  0  0  0  0  0  0
   11.6930    2.5120   21.9187 H   0  0  0  0  0  0  0  0  0  0  0  0
    4.4051    1.9733   17.4488 H   0  0  0  0  0  0  0  0  0  0  0  0
    8.9217   -0.1995   25.4232 H   0  0  0  0  0  0  0  0  0  0  0  0
   10.0643   -2.2341   21.8254 H   0  0  0  0  0  0  0  0  0  0  0  0
    8.6893   -2.3540   26.5808 H   0  0  0  0  0  0  0  0  0  0  0  0
    9.9257   -4.3898   22.9921 H   0  0  0  0  0  0  0  0  0  0  0  0
    8.4825   -0.7940   18.0623 H   0  0  0  0  0  0  0  0  0  0  0  0
    8.1744   -6.1904   26.6238 H   0  0  0  0  0  0  0  0  0  0  0  0
    7.6718   -4.4870   26.8924 H   0  0  0  0  0  0  0  0  0  0  0  0
    7.2494   -5.3166   25.3561 H   0  0  0  0  0  0  0  0  0  0  0  0
   10.1946   -6.4996   26.2216 H   0  0  0  0  0  0  0  0  0  0  0  0
   10.7865   -5.8578   24.6518 H   0  0  0  0  0  0  0  0  0  0  0  0
   11.2285   -5.0312   26.1842 H   0  0  0  0  0  0  0  0  0  0  0  0
    9.3974    1.2912   24.5523 H   0  0  0  0  0  0  0  0  0  0  0  0
    9.5159    2.2168   23.0553 H   0  0  0  0  0  0  0  0  0  0  0  0
    6.7266    0.4930   16.8305 H   0  0  0  0  0  0  0  0  0  0  0  0
    8.2383   -1.5634   21.0944 H   0  0  0  0  0  0  0  0  0  0  0  0
  1  3  1  0  0  0  0
  1  4  2  0  0  0  0
  2  5  1  0  0  0  0
  2  6  2  0  0  0  0
  3  7  2  0  0  0  0
  4  8  1  0  0  0  0
  5  9  2  0  0  0  0
  6 15  1  0  0  0  0
  7 16  1  0  0  0  0
  8 16  2  0  0  0  0
  9 17  1  0  0  0  0
 10 12  2  0  0  0  0
 10 18  1  0  0  0  0
 11 13  1  0  0  0  0
 11 18  2  0  0  0  0
 12 19  1  0  0  0  0
 13 19  2  0  0  0  0
 14 20  2  0  0  0  0
 14 25  1  0  0  0  0
 15 17  2  0  0  0  0
 15 20  1  0  0  0  0
 16 24  1  0  0  0  0
 17 25  1  0  0  0  0
 18 27  1  0  0  0  0
 19 28  1  0  0  0  0
 20 26  1  0  0  0  0
 21 26  1  0  0  0  0
 21 27  1  0  0  0  0
 21 29  2  0  0  0  0
 22 28  1  0  0  0  0
 23 28  1  0  0  0  0
 24 27  1  0  0  0  0
  1 30  1  0  0  0  0
  2 31  1  0  0  0  0
  3 32  1  0  0  0  0
  4 33  1  0  0  0  0
  5 34  1  0  0  0  0
  6 35  1  0  0  0  0
  7 36  1  0  0  0  0
  8 37  1  0  0  0  0
  9 38  1  0  0  0  0
 10 39  1  0  0  0  0
 11 40  1  0  0  0  0
 12 41  1  0  0  0  0
 13 42  1  0  0  0  0
 14 43  1  0  0  0  0
 22 44  1  0  0  0  0
 22 45  1  0  0  0  0
 22 46  1  0  0  0  0
 23 47  1  0  0  0  0
 23 48  1  0  0  0  0
 23 49  1  0  0  0  0
 24 50  1  0  0  0  0
 24 51  1  0  0  0  0
 25 52  1  0  0  0  0
 26 53  1  0  0  0  0
M  END
> <clash_score>
0

> <docking_score>
-8.936869621276855

> <overlap_score>
0.9780114889144897

$$$$
BENZO_115_1
  -OEChem-08222022163D

 53 56  0     0  0  0  0  0  0999 V2000
    4.2750    1.7050   20.8490 C   0  0  0  0  0  0  0  0  0  0  0  0
    3.9160    2.0630   19.5520 C   0  0  0  0  0  0  0  0  0  0  0  0
    5.4210    0.9600   21.0930 C   0  0  0  0  0  0  0  0  0  0  0  0
    4.6890    1.6810   18.4640 C   0  0  0  0  0  0  0  0  0  0  0  0
    9.0720   -1.1280   24.8640 C   0  0  0  0  0  0  0  0  0  0  0  0
    9.7200   -2.2600   22.8630 C   0  0  0  0  0  0  0  0  0  0  0  0
    8.9960   -2.3380   25.5320 C   0  0  0  0  0  0  0  0  0  0  0  0
    9.6730   -3.4710   23.5300 C   0  0  0  0  0  0  0  0  0  0  0  0
   12.2914    2.2071   23.0512 C   0  0  0  0  0  0  0  0  0  0  0  0
   12.1614    0.6214   24.5689 C   0  0  0  0  0  0  0  0  0  0  0  0
    7.6390   -0.2680   18.5410 C   0  0  0  0  0  0  0  0  0  0  0  0
    6.1790    0.5730   19.9990 C   0  0  0  0  0  0  0  0  0  0  0  0
   11.3794    1.3761   23.7290 C   0  0  0  0  0  0  0  0  0  0  0  0
    5.8300    0.9190   18.6970 C   0  0  0  0  0  0  0  0  0  0  0  0
    9.3350   -1.0880   23.5010 C   0  0  0  0  0  0  0  0  0  0  0  0
    9.3070   -3.5340   24.8780 C   0  0  0  0  0  0  0  0  0  0  0  0
    7.3170   -0.1610   19.8550 C   0  0  0  0  0  0  0  0  0  0  0  0
    9.0420    0.3700   21.5280 C   0  0  0  0  0  0  0  0  0  0  0  0
   14.6267    0.5248   25.0067 C   0  0  0  0  0  0  0  0  0  0  0  0
    8.0128   -5.2151   26.1416 C   0  0  0  0  0  0  0  0  0  0  0  0
   10.4372   -5.5860   25.6589 C   0  0  0  0  0  0  0  0  0  0  0  0
    9.8870    1.3260   23.5730 C   0  0  0  0  0  0  0  0  0  0  0  0
   13.5560    2.0002   23.4280 N   0  0  0  0  0  0  0  0  0  0  0  0
    6.7580    0.3810   17.8350 N   0  0  0  0  0  0  0  0  0  0  0  0
   13.4442    1.0306   24.3518 N   0  0  0  0  0  0  0  0  0  0  0  0
    8.1890   -0.7180   20.8700 N   0  0  0  0  0  0  0  0  0  0  0  0
    9.4560    0.1560   22.8130 N   0  0  0  0  0  0  0  0  0  0  0  0
    9.2543   -4.7552   25.5519 N   0  0  0  0  0  0  0  0  0  0  0  0
    9.2690    1.4140   20.9380 O   0  0  0  0  0  0  0  0  0  0  0  0
    3.6453    2.0152   21.6831 H   0  0  0  0  0  0  0  0  0  0  0  0
    3.0147    2.6520   19.3913 H   0  0  0  0  0  0  0  0  0  0  0  0
    5.6991    0.6995   22.1042 H   0  0  0  0  0  0  0  0  0  0  0  0
    4.4051    1.9733   17.4488 H   0  0  0  0  0  0  0  0  0  0  0  0
    8.9217   -0.1995   25.4232 H   0  0  0  0  0  0  0  0  0  0  0  0
   10.0643   -2.2341   21.8254 H   0  0  0  0  0  0  0  0  0  0  0  0
    8.6893   -2.3540   26.5808 H   0  0  0  0  0  0  0  0  0  0  0  0
    9.9257   -4.3898   22.9921 H   0  0  0  0  0  0  0  0  0  0  0  0
   12.0895    2.9562   22.2987 H   0  0  0  0  0  0  0  0  0  0  0  0
   11.9201   -0.1519   25.2857 H   0  0  0  0  0  0  0  0  0  0  0  0
    8.4825   -0.7940   18.0623 H   0  0  0  0  0  0  0  0  0  0  0  0
   15.0068   -0.3132   24.4165 H   0  0  0  0  0  0  0  0  0  0  0  0
   15.3758    1.3189   25.0698 H   0  0  0  0  0  0  0  0  0  0  0  0
   14.3676    0.1958   26.0170 H   0  0  0  0  0  0  0  0  0  0  0  0
    8.1744   -6.1904   26.6238 H   0  0  0  0  0  0  0  0  0  0  0  0
    7.6718   -4.4870   26.8924 H   0  0  0  0  0  0  0  0  0  0  0  0
    7.2494   -5.3166   25.3561 H   0  0  0  0  0  0  0  0  0  0  0  0
   10.1946   -6.4996   26.2216 H   0  0  0  0  0  0  0  0  0  0  0  0
   10.7865   -5.8578   24.6518 H   0  0  0  0  0  0  0  0  0  0  0  0
   11.2285   -5.0312   26.1842 H   0  0  0  0  0  0  0  0  0  0  0  0
    9.3974    1.2912   24.5523 H   0  0  0  0  0  0  0  0  0  0  0  0
    9.5159    2.2168   23.0553 H   0  0  0  0  0  0  0  0  0  0  0  0
    6.7266    0.4930   16.8305 H   0  0  0  0  0  0  0  0  0  0  0  0
    8.2383   -1.5634   21.0944 H   0  0  0  0  0  0  0  0  0  0  0  0
  1  2  1  0  0  0  0
  1  3  2  0  0  0  0
  2  4  2  0  0  0  0
  3 12  1  0  0  0  0
  4 14  1  0  0  0  0
  5  7  2  0  0  0  0
  5 15  1  0  0  0  0
  6  8  1  0  0  0  0
  6 15  2  0  0  0  0
  7 16  1  0  0  0  0
  8 16  2  0  0  0  0
  9 13  1  0  0  0  0
  9 23  2  0  0  0  0
 10 13  2  0  0  0  0
 10 25  1  0  0  0  0
 11 17  2  0  0  0  0
 11 24  1  0  0  0  0
 12 14  2  0  0  0  0
 12 17  1  0  0  0  0
 13 22  1  0  0  0  0
 14 24  1  0  0  0  0
 15 27  1  0  0  0  0
 16 28  1  0  0  0  0
 17 26  1  0  0  0  0
 18 26  1  0  0  0  0
 18 27  1  0  0  0  0
 18 29  2  0  0  0  0
 19 25  1  0  0  0  0
 20 28  1  0  0  0  0
 21 28  1  0  0  0  0
 22 27  1  0  0  0  0
 23 25  1  0  0  0  0
  1 30  1  0  0  0  0
  2 31  1  0  0  0  0
  3 32  1  0  0  0  0
  4 33  1  0  0  0  0
  5 34  1  0  0  0  0
  6 35  1  0  0  0  0
  7 36  1  0  0  0  0
  8 37  1  0  0  0  0
  9 38  1  0  0  0  0
 10 39  1  0  0  0  0
 11 40  1  0  0  0  0
 19 41  1  0  0  0  0
 19 42  1  0  0  0  0
 19 43  1  0  0  0  0
 20 44  1  0  0  0  0
 20 45  1  0  0  0  0
 20 46  1  0  0  0  0
 21 47  1  0  0  0  0
 21 48  1  0  0  0  0
 21 49  1  0  0  0  0
 22 50  1  0  0  0  0
 22 51  1  0  0  0  0
 24 52  1  0  0  0  0
 26 53  1  0  0  0  0
M  END
> <clash_score>
0.6199394578048671

> <docking_score>
-8.644880294799805

> <overlap_score>
0.976789653301239

$$$$
BENZO_114_1
  -OEChem-08222022163D

 53 56  0     0  0  0  0  0  0999 V2000
    4.2750    1.7050   20.8490 C   0  0  0  0  0  0  0  0  0  0  0  0
    3.9160    2.0630   19.5520 C   0  0  0  0  0  0  0  0  0  0  0  0
   13.4006    0.5725   24.7805 C   0  0  0  0  0  0  0  0  0  0  0  0
    5.4210    0.9600   21.0930 C   0  0  0  0  0  0  0  0  0  0  0  0
   12.0141    0.5273   24.6359 C   0  0  0  0  0  0  0  0  0  0  0  0
    4.6890    1.6810   18.4640 C   0  0  0  0  0  0  0  0  0  0  0  0
    9.0720   -1.1280   24.8640 C   0  0  0  0  0  0  0  0  0  0  0  0
    9.7200   -2.2600   22.8630 C   0  0  0  0  0  0  0  0  0  0  0  0
    8.9960   -2.3380   25.5320 C   0  0  0  0  0  0  0  0  0  0  0  0
    9.6730   -3.4710   23.5300 C   0  0  0  0  0  0  0  0  0  0  0  0
   14.1526    1.4666   24.0184 C   0  0  0  0  0  0  0  0  0  0  0  0
   12.1314    2.2702   22.9668 C   0  0  0  0  0  0  0  0  0  0  0  0
    7.6390   -0.2680   18.5410 C   0  0  0  0  0  0  0  0  0  0  0  0
    6.1790    0.5730   19.9990 C   0  0  0  0  0  0  0  0  0  0  0  0
   11.3794    1.3761   23.7290 C   0  0  0  0  0  0  0  0  0  0  0  0
    5.8300    0.9190   18.6970 C   0  0  0  0  0  0  0  0  0  0  0  0
    9.3350   -1.0880   23.5010 C   0  0  0  0  0  0  0  0  0  0  0  0
    9.3070   -3.5340   24.8780 C   0  0  0  0  0  0  0  0  0  0  0  0
    7.3170   -0.1610   19.8550 C   0  0  0  0  0  0  0  0  0  0  0  0
   13.5180    2.3154   23.1115 C   0  0  0  0  0  0  0  0  0  0  0  0
    9.0420    0.3700   21.5280 C   0  0  0  0  0  0  0  0  0  0  0  0
    8.0128   -5.2151   26.1416 C   0  0  0  0  0  0  0  0  0  0  0  0
   10.4372   -5.5860   25.6589 C   0  0  0  0  0  0  0  0  0  0  0  0
    9.8870    1.3260   23.5730 C   0  0  0  0  0  0  0  0  0  0  0  0
    6.7580    0.3810   17.8350 N   0  0  0  0  0  0  0  0  0  0  0  0
    8.1890   -0.7180   20.8700 N   0  0  0  0  0  0  0  0  0  0  0  0
    9.4560    0.1560   22.8130 N   0  0  0  0  0  0  0  0  0  0  0  0
    9.2543   -4.7552   25.5519 N   0  0  0  0  0  0  0  0  0  0  0  0
    9.2690    1.4140   20.9380 O   0  0  0  0  0  0  0  0  0  0  0  0
   14.4463    3.4175   22.1707 Cl  0  0  0  0  0  0  0  0  0  0  0  0
    3.6453    2.0152   21.6831 H   0  0  0  0  0  0  0  0  0  0  0  0
    3.0147    2.6520   19.3913 H   0  0  0  0  0  0  0  0  0  0  0  0
   13.8945   -0.0888   25.4867 H   0  0  0  0  0  0  0  0  0  0  0  0
    5.6991    0.6995   22.1042 H   0  0  0  0  0  0  0  0  0  0  0  0
   11.4361   -0.1726   25.2338 H   0  0  0  0  0  0  0  0  0  0  0  0
    4.4051    1.9733   17.4488 H   0  0  0  0  0  0  0  0  0  0  0  0
    8.9217   -0.1995   25.4232 H   0  0  0  0  0  0  0  0  0  0  0  0
   10.0643   -2.2341   21.8254 H   0  0  0  0  0  0  0  0  0  0  0  0
    8.6893   -2.3540   26.5808 H   0  0  0  0  0  0  0  0  0  0  0  0
    9.9257   -4.3898   22.9921 H   0  0  0  0  0  0  0  0  0  0  0  0
   15.2326    1.4907   24.1414 H   0  0  0  0  0  0  0  0  0  0  0  0
   11.6318    2.9303   22.2615 H   0  0  0  0  0  0  0  0  0  0  0  0
    8.4825   -0.7940   18.0623 H   0  0  0  0  0  0  0  0  0  0  0  0
    8.1744   -6.1904   26.6238 H   0  0  0  0  0  0  0  0  0  0  0  0
    7.6718   -4.4870   26.8924 H   0  0  0  0  0  0  0  0  0  0  0  0
    7.2494   -5.3166   25.3561 H   0  0  0  0  0  0  0  0  0  0  0  0
   10.1946   -6.4996   26.2216 H   0  0  0  0  0  0  0  0  0  0  0  0
   10.7865   -5.8578   24.6518 H   0  0  0  0  0  0  0  0  0  0  0  0
   11.2285   -5.0312   26.1842 H   0  0  0  0  0  0  0  0  0  0  0  0
    9.3974    1.2912   24.5523 H   0  0  0  0  0  0  0  0  0  0  0  0
    9.5159    2.2168   23.0553 H   0  0  0  0  0  0  0  0  0  0  0  0
    6.7266    0.4930   16.8305 H   0  0  0  0  0  0  0  0  0  0  0  0
    8.2383   -1.5634   21.0944 H   0  0  0  0  0  0  0  0  0  0  0  0
  1  2  1  0  0  0  0
  1  4  2  0  0  0  0
  2  6  2  0  0  0  0
  3  5  2  0  0  0  0
  3 11  1  0  0  0  0
  4 14  1  0  0  0  0
  5 15  1  0  0  0  0
  6 16  1  0  0  0  0
  7  9  2  0  0  0  0
  7 17  1  0  0  0  0
  8 10  1  0  0  0  0
  8 17  2  0  0  0  0
  9 18  1  0  0  0  0
 10 18  2  0  0  0  0
 11 20  2  0  0  0  0
 12 15  2  0  0  0  0
 12 20  1  0  0  0  0
 13 19  2  0  0  0  0
 13 25  1  0  0  0  0
 14 16  2  0  0  0  0
 14 19  1  0  0  0  0
 15 24  1  0  0  0  0
 16 25  1  0  0  0  0
 17 27  1  0  0  0  0
 18 28  1  0  0  0  0
 19 26  1  0  0  0  0
 20 30  1  0  0  0  0
 21 26  1  0  0  0  0
 21 27  1  0  0  0  0
 21 29  2  0  0  0  0
 22 28  1  0  0  0  0
 23 28  1  0  0  0  0
 24 27  1  0  0  0  0
  1 31  1  0  0  0  0
  2 32  1  0  0  0  0
  3 33  1  0  0  0  0
  4 34  1  0  0  0  0
  5 35  1  0  0  0  0
  6 36  1  0  0  0  0
  7 37  1  0  0  0  0
  8 38  1  0  0  0  0
  9 39  1  0  0  0  0
 10 40  1  0  0  0  0
 11 41  1  0  0  0  0
 12 42  1  0  0  0  0
 13 43  1  0  0  0  0
 22 44  1  0  0  0  0
 22 45  1  0  0  0  0
 22 46  1  0  0  0  0
 23 47  1  0  0  0  0
 23 48  1  0  0  0  0
 23 49  1  0  0  0  0
 24 50  1  0  0  0  0
 24 51  1  0  0  0  0
 25 52  1  0  0  0  0
 26 53  1  0  0  0  0
M  END
> <clash_score>
0

> <docking_score>
-8.073846817016602

> <overlap_score>
0.9891858696937561

$$$$
BENZO_117_1
  -OEChem-08222022163D

 55 58  0     0  0  0  0  0  0999 V2000
   14.1526    1.4694   24.0176 C   0  0  0  0  0  0  0  0  0  0  0  0
    4.2750    1.7050   20.8490 C   0  0  0  0  0  0  0  0  0  0  0  0
   13.3741    0.8121   24.9701 C   0  0  0  0  0  0  0  0  0  0  0  0
   13.5446    2.0802   22.9208 C   0  0  0  0  0  0  0  0  0  0  0  0
    3.9160    2.0630   19.5520 C   0  0  0  0  0  0  0  0  0  0  0  0
    5.4210    0.9600   21.0930 C   0  0  0  0  0  0  0  0  0  0  0  0
   11.9875    0.7654   24.8258 C   0  0  0  0  0  0  0  0  0  0  0  0
   12.1580    2.0335   22.7765 C   0  0  0  0  0  0  0  0  0  0  0  0
    4.6890    1.6810   18.4640 C   0  0  0  0  0  0  0  0  0  0  0  0
    8.9960   -2.3380   25.5320 C   0  0  0  0  0  0  0  0  0  0  0  0
    9.6730   -3.4710   23.5300 C   0  0  0  0  0  0  0  0  0  0  0  0
    9.0720   -1.1280   24.8640 C   0  0  0  0  0  0  0  0  0  0  0  0
    9.7200   -2.2600   22.8630 C   0  0  0  0  0  0  0  0  0  0  0  0
    7.6390   -0.2680   18.5410 C   0  0  0  0  0  0  0  0  0  0  0  0
    6.1790    0.5730   19.9990 C   0  0  0  0  0  0  0  0  0  0  0  0
   11.3794    1.3761   23.7290 C   0  0  0  0  0  0  0  0  0  0  0  0
    5.8300    0.9190   18.6970 C   0  0  0  0  0  0  0  0  0  0  0  0
    9.3070   -3.5340   24.8780 C   0  0  0  0  0  0  0  0  0  0  0  0
    9.3350   -1.0880   23.5010 C   0  0  0  0  0  0  0  0  0  0  0  0
    7.3170   -0.1610   19.8550 C   0  0  0  0  0  0  0  0  0  0  0  0
    9.5334   -6.0236   25.0414 C   0  0  0  0  0  0  0  0  0  0  0  0
    9.0420    0.3700   21.5280 C   0  0  0  0  0  0  0  0  0  0  0  0
   10.6330   -7.3746   26.8775 C   0  0  0  0  0  0  0  0  0  0  0  0
    9.8870    1.3260   23.5730 C   0  0  0  0  0  0  0  0  0  0  0  0
    9.3523   -7.0865   26.1149 C   0  0  0  0  0  0  0  0  0  0  0  0
    6.7580    0.3810   17.8350 N   0  0  0  0  0  0  0  0  0  0  0  0
    9.2546   -4.7422   25.5438 N   0  0  0  0  0  0  0  0  0  0  0  0
    8.1890   -0.7180   20.8700 N   0  0  0  0  0  0  0  0  0  0  0  0
    9.4560    0.1560   22.8130 N   0  0  0  0  0  0  0  0  0  0  0  0
    9.8806   -6.3053   23.8992 O   0  0  0  0  0  0  0  0  0  0  0  0
    9.2690    1.4140   20.9380 O   0  0  0  0  0  0  0  0  0  0  0  0
   15.2322    1.5068   24.1308 H   0  0  0  0  0  0  0  0  0  0  0  0
    3.6453    2.0152   21.6831 H   0  0  0  0  0  0  0  0  0  0  0  0
   13.8473    0.3374   25.8248 H   0  0  0  0  0  0  0  0  0  0  0  0
   14.1503    2.5930   22.1795 H   0  0  0  0  0  0  0  0  0  0  0  0
    3.0147    2.6520   19.3913 H   0  0  0  0  0  0  0  0  0  0  0  0
    5.6991    0.6995   22.1042 H   0  0  0  0  0  0  0  0  0  0  0  0
   11.3889    0.2508   25.5729 H   0  0  0  0  0  0  0  0  0  0  0  0
   11.6930    2.5120   21.9187 H   0  0  0  0  0  0  0  0  0  0  0  0
    4.4051    1.9733   17.4488 H   0  0  0  0  0  0  0  0  0  0  0  0
    8.6895   -2.3529   26.5807 H   0  0  0  0  0  0  0  0  0  0  0  0
    9.9262   -4.3897   22.9916 H   0  0  0  0  0  0  0  0  0  0  0  0
    8.9224   -0.1998   25.4238 H   0  0  0  0  0  0  0  0  0  0  0  0
   10.0649   -2.2343   21.8258 H   0  0  0  0  0  0  0  0  0  0  0  0
    8.4825   -0.7940   18.0623 H   0  0  0  0  0  0  0  0  0  0  0  0
   11.4241   -7.7171   26.2024 H   0  0  0  0  0  0  0  0  0  0  0  0
   10.4629   -8.1531   27.6277 H   0  0  0  0  0  0  0  0  0  0  0  0
   10.9949   -6.4779   27.3912 H   0  0  0  0  0  0  0  0  0  0  0  0
    9.3974    1.2912   24.5523 H   0  0  0  0  0  0  0  0  0  0  0  0
    9.5159    2.2168   23.0553 H   0  0  0  0  0  0  0  0  0  0  0  0
    8.5795   -6.7463   26.8138 H   0  0  0  0  0  0  0  0  0  0  0  0
    8.9966   -8.0064   25.6367 H   0  0  0  0  0  0  0  0  0  0  0  0
    6.7266    0.4930   16.8305 H   0  0  0  0  0  0  0  0  0  0  0  0
    8.9776   -4.7057   26.5317 H   0  0  0  0  0  0  0  0  0  0  0  0
    8.2383   -1.5634   21.0944 H   0  0  0  0  0  0  0  0  0  0  0  0
  1  3  1  0  0  0  0
  1  4  2  0  0  0  0
  2  5  1  0  0  0  0
  2  6  2  0  0  0  0
  3  7  2  0  0  0  0
  4  8  1  0  0  0  0
  5  9  2  0  0  0  0
  6 15  1  0  0  0  0
  7 16  1  0  0  0  0
  8 16  2  0  0  0  0
  9 17  1  0  0  0  0
 10 12  2  0  0  0  0
 10 18  1  0  0  0  0
 11 13  1  0  0  0  0
 11 18  2  0  0  0  0
 12 19  1  0  0  0  0
 13 19  2  0  0  0  0
 14 20  2  0  0  0  0
 14 26  1  0  0  0  0
 15 17  2  0  0  0  0
 15 20  1  0  0  0  0
 16 24  1  0  0  0  0
 17 26  1  0  0  0  0
 18 27  1  0  0  0  0
 19 29  1  0  0  0  0
 20 28  1  0  0  0  0
 21 25  1  0  0  0  0
 21 27  1  0  0  0  0
 21 30  2  0  0  0  0
 22 28  1  0  0  0  0
 22 29  1  0  0  0  0
 22 31  2  0  0  0  0
 23 25  1  0  0  0  0
 24 29  1  0  0  0  0
  1 32  1  0  0  0  0
  2 33  1  0  0  0  0
  3 34  1  0  0  0  0
  4 35  1  0  0  0  0
  5 36  1  0  0  0  0
  6 37  1  0  0  0  0
  7 38  1  0  0  0  0
  8 39  1  0  0  0  0
  9 40  1  0  0  0  0
 10 41  1  0  0  0  0
 11 42  1  0  0  0  0
 12 43  1  0  0  0  0
 13 44  1  0  0  0  0
 14 45  1  0  0  0  0
 23 46  1  0  0  0  0
 23 47  1  0  0  0  0
 23 48  1  0  0  0  0
 24 49  1  0  0  0  0
 24 50  1  0  0  0  0
 25 51  1  0  0  0  0
 25 52  1  0  0  0  0
 26 53  1  0  0  0  0
 27 54  1  0  0  0  0
 28 55  1  0  0  0  0
M  END
> <clash_score>
1.4986599553670592

> <docking_score>
-5.742595195770264

> <overlap_score>
0.9802290201187134

$$$$
BENZO_116_1
  -OEChem-08222022163D

 52 55  0     0  0  0  0  0  0999 V2000
    4.2750    1.7050   20.8490 C   0  0  0  0  0  0  0  0  0  0  0  0
    3.9160    2.0630   19.5520 C   0  0  0  0  0  0  0  0  0  0  0  0
    5.4210    0.9600   21.0930 C   0  0  0  0  0  0  0  0  0  0  0  0
    4.6890    1.6810   18.4640 C   0  0  0  0  0  0  0  0  0  0  0  0
    8.9960   -2.3380   25.5320 C   0  0  0  0  0  0  0  0  0  0  0  0
    9.6730   -3.4710   23.5300 C   0  0  0  0  0  0  0  0  0  0  0  0
    9.0720   -1.1280   24.8640 C   0  0  0  0  0  0  0  0  0  0  0  0
    9.7200   -2.2600   22.8630 C   0  0  0  0  0  0  0  0  0  0  0  0
   12.2111    0.2208   23.7905 C   0  0  0  0  0  0  0  0  0  0  0  0
    7.6390   -0.2680   18.5410 C   0  0  0  0  0  0  0  0  0  0  0  0
   13.5412    0.5479   23.9364 C   0  0  0  0  0  0  0  0  0  0  0  0
   12.1057    2.5424   23.8305 C   0  0  0  0  0  0  0  0  0  0  0  0
    6.1790    0.5730   19.9990 C   0  0  0  0  0  0  0  0  0  0  0  0
   11.3794    1.3761   23.7290 C   0  0  0  0  0  0  0  0  0  0  0  0
    5.8300    0.9190   18.6970 C   0  0  0  0  0  0  0  0  0  0  0  0
    9.3070   -3.5340   24.8780 C   0  0  0  0  0  0  0  0  0  0  0  0
    9.3350   -1.0880   23.5010 C   0  0  0  0  0  0  0  0  0  0  0  0
    7.3170   -0.1610   19.8550 C   0  0  0  0  0  0  0  0  0  0  0  0
    9.5334   -6.0236   25.0414 C   0  0  0  0  0  0  0  0  0  0  0  0
    9.0420    0.3700   21.5280 C   0  0  0  0  0  0  0  0  0  0  0  0
   10.6330   -7.3746   26.8775 C   0  0  0  0  0  0  0  0  0  0  0  0
    9.8870    1.3260   23.5730 C   0  0  0  0  0  0  0  0  0  0  0  0
    9.3523   -7.0865   26.1149 C   0  0  0  0  0  0  0  0  0  0  0  0
    6.7580    0.3810   17.8350 N   0  0  0  0  0  0  0  0  0  0  0  0
    9.2546   -4.7422   25.5438 N   0  0  0  0  0  0  0  0  0  0  0  0
    8.1890   -0.7180   20.8700 N   0  0  0  0  0  0  0  0  0  0  0  0
    9.4560    0.1560   22.8130 N   0  0  0  0  0  0  0  0  0  0  0  0
    9.8806   -6.3053   23.8992 O   0  0  0  0  0  0  0  0  0  0  0  0
    9.2690    1.4140   20.9380 O   0  0  0  0  0  0  0  0  0  0  0  0
   13.7831    2.2420   23.9988 S   0  0  0  0  0  0  0  0  0  0  0  0
    3.6453    2.0152   21.6831 H   0  0  0  0  0  0  0  0  0  0  0  0
    3.0147    2.6520   19.3913 H   0  0  0  0  0  0  0  0  0  0  0  0
    5.6991    0.6995   22.1042 H   0  0  0  0  0  0  0  0  0  0  0  0
    4.4051    1.9733   17.4488 H   0  0  0  0  0  0  0  0  0  0  0  0
    8.6895   -2.3529   26.5807 H   0  0  0  0  0  0  0  0  0  0  0  0
    9.9262   -4.3897   22.9916 H   0  0  0  0  0  0  0  0  0  0  0  0
    8.9224   -0.1998   25.4238 H   0  0  0  0  0  0  0  0  0  0  0  0
   10.0649   -2.2343   21.8258 H   0  0  0  0  0  0  0  0  0  0  0  0
   11.8558   -0.8003   23.7315 H   0  0  0  0  0  0  0  0  0  0  0  0
    8.4825   -0.7940   18.0623 H   0  0  0  0  0  0  0  0  0  0  0  0
   14.3824   -0.1267   24.0100 H   0  0  0  0  0  0  0  0  0  0  0  0
   11.7354    3.5581   23.8155 H   0  0  0  0  0  0  0  0  0  0  0  0
   11.4241   -7.7171   26.2024 H   0  0  0  0  0  0  0  0  0  0  0  0
   10.4629   -8.1531   27.6277 H   0  0  0  0  0  0  0  0  0  0  0  0
   10.9949   -6.4779   27.3912 H   0  0  0  0  0  0  0  0  0  0  0  0
    9.3974    1.2912   24.5523 H   0  0  0  0  0  0  0  0  0  0  0  0
    9.5159    2.2168   23.0553 H   0  0  0  0  0  0  0  0  0  0  0  0
    8.5795   -6.7463   26.8138 H   0  0  0  0  0  0  0  0  0  0  0  0
    8.9966   -8.0064   25.6367 H   0  0  0  0  0  0  0  0  0  0  0  0
    6.7266    0.4930   16.8305 H   0  0  0  0  0  0  0  0  0  0  0  0
    8.9776   -4.7057   26.5317 H   0  0  0  0  0  0  0  0  0  0  0  0
    8.2383   -1.5634   21.0944 H   0  0  0  0  0  0  0  0  0  0  0  0
  1  2  1  0  0  0  0
  1  3  2  0  0  0  0
  2  4  2  0  0  0  0
  3 13  1  0  0  0  0
  4 15  1  0  0  0  0
  5  7  2  0  0  0  0
  5 16  1  0  0  0  0
  6  8  1  0  0  0  0
  6 16  2  0  0  0  0
  7 17  1  0  0  0  0
  8 17  2  0  0  0  0
  9 11  2  0  0  0  0
  9 14  1  0  0  0  0
 10 18  2  0  0  0  0
 10 24  1  0  0  0  0
 11 30  1  0  0  0  0
 12 14  2  0  0  0  0
 12 30  1  0  0  0  0
 13 15  2  0  0  0  0
 13 18  1  0  0  0  0
 14 22  1  0  0  0  0
 15 24  1  0  0  0  0
 16 25  1  0  0  0  0
 17 27  1  0  0  0  0
 18 26  1  0  0  0  0
 19 23  1  0  0  0  0
 19 25  1  0  0  0  0
 19 28  2  0  0  0  0
 20 26  1  0  0  0  0
 20 27  1  0  0  0  0
 20 29  2  0  0  0  0
 21 23  1  0  0  0  0
 22 27  1  0  0  0  0
  1 31  1  0  0  0  0
  2 32  1  0  0  0  0
  3 33  1  0  0  0  0
  4 34  1  0  0  0  0
  5 35  1  0  0  0  0
  6 36  1  0  0  0  0
  7 37  1  0  0  0  0
  8 38  1  0  0  0  0
  9 39  1  0  0  0  0
 10 40  1  0  0  0  0
 11 41  1  0  0  0  0
 12 42  1  0  0  0  0
 21 43  1  0  0  0  0
 21 44  1  0  0  0  0
 21 45  1  0  0  0  0
 22 46  1  0  0  0  0
 22 47  1  0  0  0  0
 23 48  1  0  0  0  0
 23 49  1  0  0  0  0
 24 50  1  0  0  0  0
 25 51  1  0  0  0  0
 26 52  1  0  0  0  0
M  END
> <clash_score>
1.4986599553670592

> <docking_score>
-5.0157670974731445

> <overlap_score>
0.9652433395385742

$$$$
BENZO_121_1
  -OEChem-08222022173D

 60 64  0     0  0  0  0  0  0999 V2000
   14.1526    1.4694   24.0176 C   0  0  0  0  0  0  0  0  0  0  0  0
    4.2750    1.7050   20.8490 C   0  0  0  0  0  0  0  0  0  0  0  0
   13.3741    0.8121   24.9701 C   0  0  0  0  0  0  0  0  0  0  0  0
   13.5446    2.0802   22.9208 C   0  0  0  0  0  0  0  0  0  0  0  0
    3.9160    2.0630   19.5520 C   0  0  0  0  0  0  0  0  0  0  0  0
    5.4210    0.9600   21.0930 C   0  0  0  0  0  0  0  0  0  0  0  0
   11.9875    0.7654   24.8258 C   0  0  0  0  0  0  0  0  0  0  0  0
   12.1580    2.0335   22.7765 C   0  0  0  0  0  0  0  0  0  0  0  0
    4.6890    1.6810   18.4640 C   0  0  0  0  0  0  0  0  0  0  0  0
    8.9960   -2.3380   25.5320 C   0  0  0  0  0  0  0  0  0  0  0  0
    9.6730   -3.4710   23.5300 C   0  0  0  0  0  0  0  0  0  0  0  0
    9.0720   -1.1280   24.8640 C   0  0  0  0  0  0  0  0  0  0  0  0
    9.7200   -2.2600   22.8630 C   0  0  0  0  0  0  0  0  0  0  0  0
    7.6390   -0.2680   18.5410 C   0  0  0  0  0  0  0  0  0  0  0  0
    6.1790    0.5730   19.9990 C   0  0  0  0  0  0  0  0  0  0  0  0
   11.3794    1.3761   23.7290 C   0  0  0  0  0  0  0  0  0  0  0  0
    5.8300    0.9190   18.6970 C   0  0  0  0  0  0  0  0  0  0  0  0
    9.3070   -3.5340   24.8780 C   0  0  0  0  0  0  0  0  0  0  0  0
    9.3350   -1.0880   23.5010 C   0  0  0  0  0  0  0  0  0  0  0  0
    7.3170   -0.1610   19.8550 C   0  0  0  0  0  0  0  0  0  0  0  0
    9.0420    0.3700   21.5280 C   0  0  0  0  0  0  0  0  0  0  0  0
    7.3635   -6.1361   27.1888 C   0  0  0  0  0  0  0  0  0  0  0  0
    8.1961   -4.9735   27.7341 C   0  0  0  0  0  0  0  0  0  0  0  0
    7.1942   -6.0394   25.6709 C   0  0  0  0  0  0  0  0  0  0  0  0
    9.5196   -4.8490   26.9797 C   0  0  0  0  0  0  0  0  0  0  0  0
    8.5442   -5.8838   24.9639 C   0  0  0  0  0  0  0  0  0  0  0  0
    9.8870    1.3260   23.5730 C   0  0  0  0  0  0  0  0  0  0  0  0
    6.7580    0.3810   17.8350 N   0  0  0  0  0  0  0  0  0  0  0  0
    9.2562   -4.7384   25.5422 N   0  0  0  0  0  0  0  0  0  0  0  0
    8.1890   -0.7180   20.8700 N   0  0  0  0  0  0  0  0  0  0  0  0
    9.4560    0.1560   22.8130 N   0  0  0  0  0  0  0  0  0  0  0  0
    9.2690    1.4140   20.9380 O   0  0  0  0  0  0  0  0  0  0  0  0
   15.2322    1.5068   24.1308 H   0  0  0  0  0  0  0  0  0  0  0  0
    3.6453    2.0152   21.6831 H   0  0  0  0  0  0  0  0  0  0  0  0
   13.8473    0.3374   25.8248 H   0  0  0  0  0  0  0  0  0  0  0  0
   14.1503    2.5930   22.1795 H   0  0  0  0  0  0  0  0  0  0  0  0
    3.0147    2.6520   19.3913 H   0  0  0  0  0  0  0  0  0  0  0  0
    5.6991    0.6995   22.1042 H   0  0  0  0  0  0  0  0  0  0  0  0
   11.3889    0.2508   25.5729 H   0  0  0  0  0  0  0  0  0  0  0  0
   11.6930    2.5120   21.9187 H   0  0  0  0  0  0  0  0  0  0  0  0
    4.4051    1.9733   17.4488 H   0  0  0  0  0  0  0  0  0  0  0  0
    8.6905   -2.3533   26.5810 H   0  0  0  0  0  0  0  0  0  0  0  0
    9.9266   -4.3896   22.9917 H   0  0  0  0  0  0  0  0  0  0  0  0
    8.9233   -0.1992   25.4231 H   0  0  0  0  0  0  0  0  0  0  0  0
   10.0650   -2.2330   21.8256 H   0  0  0  0  0  0  0  0  0  0  0  0
    8.4825   -0.7940   18.0623 H   0  0  0  0  0  0  0  0  0  0  0  0
    7.8482   -7.0901   27.4469 H   0  0  0  0  0  0  0  0  0  0  0  0
    6.3760   -6.1438   27.6724 H   0  0  0  0  0  0  0  0  0  0  0  0
    7.6307   -4.0424   27.6403 H   0  0  0  0  0  0  0  0  0  0  0  0
    8.3915   -5.1310   28.7968 H   0  0  0  0  0  0  0  0  0  0  0  0
    6.6888   -6.9376   25.3010 H   0  0  0  0  0  0  0  0  0  0  0  0
    6.5515   -5.1859   25.4257 H   0  0  0  0  0  0  0  0  0  0  0  0
   10.0492   -3.9640   27.3414 H   0  0  0  0  0  0  0  0  0  0  0  0
   10.1431   -5.7254   27.1778 H   0  0  0  0  0  0  0  0  0  0  0  0
    9.1338   -6.7931   25.0868 H   0  0  0  0  0  0  0  0  0  0  0  0
    8.3656   -5.7264   23.8998 H   0  0  0  0  0  0  0  0  0  0  0  0
    9.3974    1.2912   24.5523 H   0  0  0  0  0  0  0  0  0  0  0  0
    9.5159    2.2168   23.0553 H   0  0  0  0  0  0  0  0  0  0  0  0
    6.7266    0.4930   16.8305 H   0  0  0  0  0  0  0  0  0  0  0  0
    8.2565   -1.5523   21.1108 H   0  0  0  0  0  0  0  0  0  0  0  0
  1  3  1  0  0  0  0
  1  4  2  0  0  0  0
  2  5  1  0  0  0  0
  2  6  2  0  0  0  0
  3  7  2  0  0  0  0
  4  8  1  0  0  0  0
  5  9  2  0  0  0  0
  6 15  1  0  0  0  0
  7 16  1  0  0  0  0
  8 16  2  0  0  0  0
  9 17  1  0  0  0  0
 10 12  2  0  0  0  0
 10 18  1  0  0  0  0
 11 13  1  0  0  0  0
 11 18  2  0  0  0  0
 12 19  1  0  0  0  0
 13 19  2  0  0  0  0
 14 20  2  0  0  0  0
 14 28  1  0  0  0  0
 15 17  2  0  0  0  0
 15 20  1  0  0  0  0
 16 27  1  0  0  0  0
 17 28  1  0  0  0  0
 18 29  1  0  0  0  0
 19 31  1  0  0  0  0
 20 30  1  0  0  0  0
 21 30  1  0  0  0  0
 21 31  1  0  0  0  0
 21 32  2  0  0  0  0
 22 23  1  0  0  0  0
 22 24  1  0  0  0  0
 23 25  1  0  0  0  0
 24 26  1  0  0  0  0
 25 29  1  0  0  0  0
 26 29  1  0  0  0  0
 27 31  1  0  0  0  0
  1 33  1  0  0  0  0
  2 34  1  0  0  0  0
  3 35  1  0  0  0  0
  4 36  1  0  0  0  0
  5 37  1  0  0  0  0
  6 38  1  0  0  0  0
  7 39  1  0  0  0  0
  8 40  1  0  0  0  0
  9 41  1  0  0  0  0
 10 42  1  0  0  0  0
 11 43  1  0  0  0  0
 12 44  1  0  0  0  0
 13 45  1  0  0  0  0
 14 46  1  0  0  0  0
 22 47  1  0  0  0  0
 22 48  1  0  0  0  0
 23 49  1  0  0  0  0
 23 50  1  0  0  0  0
 24 51  1  0  0  0  0
 24 52  1  0  0  0  0
 25 53  1  0  0  0  0
 25 54  1  0  0  0  0
 26 55  1  0  0  0  0
 26 56  1  0  0  0  0
 27 57  1  0  0  0  0
 27 58  1  0  0  0  0
 28 59  1  0  0  0  0
 30 60  1  0  0  0  0
M  END
> <clash_score>
0

> <docking_score>
-8.032642364501953

> <overlap_score>
0.9931822419166565

$$$$
BENZO_118_1
  -OEChem-08222022173D

 55 58  0     0  0  0  0  0  0999 V2000
    4.2750    1.7050   20.8490 C   0  0  0  0  0  0  0  0  0  0  0  0
    3.9160    2.0630   19.5520 C   0  0  0  0  0  0  0  0  0  0  0  0
   13.4006    0.5725   24.7805 C   0  0  0  0  0  0  0  0  0  0  0  0
    5.4210    0.9600   21.0930 C   0  0  0  0  0  0  0  0  0  0  0  0
   12.0141    0.5273   24.6359 C   0  0  0  0  0  0  0  0  0  0  0  0
    4.6890    1.6810   18.4640 C   0  0  0  0  0  0  0  0  0  0  0  0
    8.9960   -2.3380   25.5320 C   0  0  0  0  0  0  0  0  0  0  0  0
    9.6730   -3.4710   23.5300 C   0  0  0  0  0  0  0  0  0  0  0  0
    9.0720   -1.1280   24.8640 C   0  0  0  0  0  0  0  0  0  0  0  0
    9.7200   -2.2600   22.8630 C   0  0  0  0  0  0  0  0  0  0  0  0
   14.1526    1.4666   24.0184 C   0  0  0  0  0  0  0  0  0  0  0  0
   12.1314    2.2702   22.9668 C   0  0  0  0  0  0  0  0  0  0  0  0
    7.6390   -0.2680   18.5410 C   0  0  0  0  0  0  0  0  0  0  0  0
    6.1790    0.5730   19.9990 C   0  0  0  0  0  0  0  0  0  0  0  0
   11.3794    1.3761   23.7290 C   0  0  0  0  0  0  0  0  0  0  0  0
    5.8300    0.9190   18.6970 C   0  0  0  0  0  0  0  0  0  0  0  0
    9.3070   -3.5340   24.8780 C   0  0  0  0  0  0  0  0  0  0  0  0
    9.3350   -1.0880   23.5010 C   0  0  0  0  0  0  0  0  0  0  0  0
    7.3170   -0.1610   19.8550 C   0  0  0  0  0  0  0  0  0  0  0  0
   13.5180    2.3154   23.1115 C   0  0  0  0  0  0  0  0  0  0  0  0
    9.5334   -6.0236   25.0414 C   0  0  0  0  0  0  0  0  0  0  0  0
    9.0420    0.3700   21.5280 C   0  0  0  0  0  0  0  0  0  0  0  0
   10.6330   -7.3746   26.8775 C   0  0  0  0  0  0  0  0  0  0  0  0
    9.8870    1.3260   23.5730 C   0  0  0  0  0  0  0  0  0  0  0  0
    9.3523   -7.0865   26.1149 C   0  0  0  0  0  0  0  0  0  0  0  0
    6.7580    0.3810   17.8350 N   0  0  0  0  0  0  0  0  0  0  0  0
    9.2546   -4.7422   25.5438 N   0  0  0  0  0  0  0  0  0  0  0  0
    8.1890   -0.7180   20.8700 N   0  0  0  0  0  0  0  0  0  0  0  0
    9.4560    0.1560   22.8130 N   0  0  0  0  0  0  0  0  0  0  0  0
    9.8806   -6.3053   23.8992 O   0  0  0  0  0  0  0  0  0  0  0  0
    9.2690    1.4140   20.9380 O   0  0  0  0  0  0  0  0  0  0  0  0
   14.4463    3.4175   22.1707 Cl  0  0  0  0  0  0  0  0  0  0  0  0
    3.6453    2.0152   21.6831 H   0  0  0  0  0  0  0  0  0  0  0  0
    3.0147    2.6520   19.3913 H   0  0  0  0  0  0  0  0  0  0  0  0
   13.8945   -0.0888   25.4867 H   0  0  0  0  0  0  0  0  0  0  0  0
    5.6991    0.6995   22.1042 H   0  0  0  0  0  0  0  0  0  0  0  0
   11.4361   -0.1726   25.2338 H   0  0  0  0  0  0  0  0  0  0  0  0
    4.4051    1.9733   17.4488 H   0  0  0  0  0  0  0  0  0  0  0  0
    8.6895   -2.3529   26.5807 H   0  0  0  0  0  0  0  0  0  0  0  0
    9.9262   -4.3897   22.9916 H   0  0  0  0  0  0  0  0  0  0  0  0
    8.9224   -0.1998   25.4238 H   0  0  0  0  0  0  0  0  0  0  0  0
   10.0649   -2.2343   21.8258 H   0  0  0  0  0  0  0  0  0  0  0  0
   15.2326    1.4907   24.1414 H   0  0  0  0  0  0  0  0  0  0  0  0
   11.6318    2.9303   22.2615 H   0  0  0  0  0  0  0  0  0  0  0  0
    8.4825   -0.7940   18.0623 H   0  0  0  0  0  0  0  0  0  0  0  0
   11.4241   -7.7171   26.2024 H   0  0  0  0  0  0  0  0  0  0  0  0
   10.4629   -8.1531   27.6277 H   0  0  0  0  0  0  0  0  0  0  0  0
   10.9949   -6.4779   27.3912 H   0  0  0  0  0  0  0  0  0  0  0  0
    9.3974    1.2912   24.5523 H   0  0  0  0  0  0  0  0  0  0  0  0
    9.5159    2.2168   23.0553 H   0  0  0  0  0  0  0  0  0  0  0  0
    8.5795   -6.7463   26.8138 H   0  0  0  0  0  0  0  0  0  0  0  0
    8.9966   -8.0064   25.6367 H   0  0  0  0  0  0  0  0  0  0  0  0
    6.7266    0.4930   16.8305 H   0  0  0  0  0  0  0  0  0  0  0  0
    8.9776   -4.7057   26.5317 H   0  0  0  0  0  0  0  0  0  0  0  0
    8.2383   -1.5634   21.0944 H   0  0  0  0  0  0  0  0  0  0  0  0
  1  2  1  0  0  0  0
  1  4  2  0  0  0  0
  2  6  2  0  0  0  0
  3  5  2  0  0  0  0
  3 11  1  0  0  0  0
  4 14  1  0  0  0  0
  5 15  1  0  0  0  0
  6 16  1  0  0  0  0
  7  9  2  0  0  0  0
  7 17  1  0  0  0  0
  8 10  1  0  0  0  0
  8 17  2  0  0  0  0
  9 18  1  0  0  0  0
 10 18  2  0  0  0  0
 11 20  2  0  0  0  0
 12 15  2  0  0  0  0
 12 20  1  0  0  0  0
 13 19  2  0  0  0  0
 13 26  1  0  0  0  0
 14 16  2  0  0  0  0
 14 19  1  0  0  0  0
 15 24  1  0  0  0  0
 16 26  1  0  0  0  0
 17 27  1  0  0  0  0
 18 29  1  0  0  0  0
 19 28  1  0  0  0  0
 20 32  1  0  0  0  0
 21 25  1  0  0  0  0
 21 27  1  0  0  0  0
 21 30  2  0  0  0  0
 22 28  1  0  0  0  0
 22 29  1  0  0  0  0
 22 31  2  0  0  0  0
 23 25  1  0  0  0  0
 24 29  1  0  0  0  0
  1 33  1  0  0  0  0
  2 34  1  0  0  0  0
  3 35  1  0  0  0  0
  4 36  1  0  0  0  0
  5 37  1  0  0  0  0
  6 38  1  0  0  0  0
  7 39  1  0  0  0  0
  8 40  1  0  0  0  0
  9 41  1  0  0  0  0
 10 42  1  0  0  0  0
 11 43  1  0  0  0  0
 12 44  1  0  0  0  0
 13 45  1  0  0  0  0
 23 46  1  0  0  0  0
 23 47  1  0  0  0  0
 23 48  1  0  0  0  0
 24 49  1  0  0  0  0
 24 50  1  0  0  0  0
 25 51  1  0  0  0  0
 25 52  1  0  0  0  0
 26 53  1  0  0  0  0
 27 54  1  0  0  0  0
 28 55  1  0  0  0  0
M  END
> <clash_score>
1.4986599553670592

> <docking_score>
-4.879570484161377

> <overlap_score>
0.9913628697395325

$$$$
BENZO_119_1
  -OEChem-08222022173D

 55 58  0     0  0  0  0  0  0999 V2000
    4.2750    1.7050   20.8490 C   0  0  0  0  0  0  0  0  0  0  0  0
    3.9160    2.0630   19.5520 C   0  0  0  0  0  0  0  0  0  0  0  0
    5.4210    0.9600   21.0930 C   0  0  0  0  0  0  0  0  0  0  0  0
    4.6890    1.6810   18.4640 C   0  0  0  0  0  0  0  0  0  0  0  0
    8.9960   -2.3380   25.5320 C   0  0  0  0  0  0  0  0  0  0  0  0
    9.6730   -3.4710   23.5300 C   0  0  0  0  0  0  0  0  0  0  0  0
    9.0720   -1.1280   24.8640 C   0  0  0  0  0  0  0  0  0  0  0  0
    9.7200   -2.2600   22.8630 C   0  0  0  0  0  0  0  0  0  0  0  0
   12.2914    2.2071   23.0512 C   0  0  0  0  0  0  0  0  0  0  0  0
   12.1614    0.6214   24.5689 C   0  0  0  0  0  0  0  0  0  0  0  0
    7.6390   -0.2680   18.5410 C   0  0  0  0  0  0  0  0  0  0  0  0
    6.1790    0.5730   19.9990 C   0  0  0  0  0  0  0  0  0  0  0  0
   11.3794    1.3761   23.7290 C   0  0  0  0  0  0  0  0  0  0  0  0
    5.8300    0.9190   18.6970 C   0  0  0  0  0  0  0  0  0  0  0  0
    9.3070   -3.5340   24.8780 C   0  0  0  0  0  0  0  0  0  0  0  0
    9.3350   -1.0880   23.5010 C   0  0  0  0  0  0  0  0  0  0  0  0
    7.3170   -0.1610   19.8550 C   0  0  0  0  0  0  0  0  0  0  0  0
    9.5334   -6.0236   25.0414 C   0  0  0  0  0  0  0  0  0  0  0  0
    9.0420    0.3700   21.5280 C   0  0  0  0  0  0  0  0  0  0  0  0
   10.6330   -7.3746   26.8775 C   0  0  0  0  0  0  0  0  0  0  0  0
   14.6267    0.5248   25.0067 C   0  0  0  0  0  0  0  0  0  0  0  0
    9.8870    1.3260   23.5730 C   0  0  0  0  0  0  0  0  0  0  0  0
    9.3523   -7.0865   26.1149 C   0  0  0  0  0  0  0  0  0  0  0  0
   13.5560    2.0002   23.4280 N   0  0  0  0  0  0  0  0  0  0  0  0
    6.7580    0.3810   17.8350 N   0  0  0  0  0  0  0  0  0  0  0  0
   13.4442    1.0306   24.3518 N   0  0  0  0  0  0  0  0  0  0  0  0
    9.2546   -4.7422   25.5438 N   0  0  0  0  0  0  0  0  0  0  0  0
    8.1890   -0.7180   20.8700 N   0  0  0  0  0  0  0  0  0  0  0  0
    9.4560    0.1560   22.8130 N   0  0  0  0  0  0  0  0  0  0  0  0
    9.8806   -6.3053   23.8992 O   0  0  0  0  0  0  0  0  0  0  0  0
    9.2690    1.4140   20.9380 O   0  0  0  0  0  0  0  0  0  0  0  0
    3.6453    2.0152   21.6831 H   0  0  0  0  0  0  0  0  0  0  0  0
    3.0147    2.6520   19.3913 H   0  0  0  0  0  0  0  0  0  0  0  0
    5.6991    0.6995   22.1042 H   0  0  0  0  0  0  0  0  0  0  0  0
    4.4051    1.9733   17.4488 H   0  0  0  0  0  0  0  0  0  0  0  0
    8.6895   -2.3529   26.5807 H   0  0  0  0  0  0  0  0  0  0  0  0
    9.9262   -4.3897   22.9916 H   0  0  0  0  0  0  0  0  0  0  0  0
    8.9224   -0.1998   25.4238 H   0  0  0  0  0  0  0  0  0  0  0  0
   10.0649   -2.2343   21.8258 H   0  0  0  0  0  0  0  0  0  0  0  0
   12.0895    2.9562   22.2987 H   0  0  0  0  0  0  0  0  0  0  0  0
   11.9201   -0.1519   25.2857 H   0  0  0  0  0  0  0  0  0  0  0  0
    8.4825   -0.7940   18.0623 H   0  0  0  0  0  0  0  0  0  0  0  0
   11.4241   -7.7171   26.2024 H   0  0  0  0  0  0  0  0  0  0  0  0
   10.4629   -8.1531   27.6277 H   0  0  0  0  0  0  0  0  0  0  0  0
   10.9949   -6.4779   27.3912 H   0  0  0  0  0  0  0  0  0  0  0  0
   15.0068   -0.3132   24.4165 H   0  0  0  0  0  0  0  0  0  0  0  0
   15.3758    1.3189   25.0698 H   0  0  0  0  0  0  0  0  0  0  0  0
   14.3676    0.1958   26.0170 H   0  0  0  0  0  0  0  0  0  0  0  0
    9.3974    1.2912   24.5523 H   0  0  0  0  0  0  0  0  0  0  0  0
    9.5159    2.2168   23.0553 H   0  0  0  0  0  0  0  0  0  0  0  0
    8.5795   -6.7463   26.8138 H   0  0  0  0  0  0  0  0  0  0  0  0
    8.9966   -8.0064   25.6367 H   0  0  0  0  0  0  0  0  0  0  0  0
    6.7266    0.4930   16.8305 H   0  0  0  0  0  0  0  0  0  0  0  0
    8.9776   -4.7057   26.5317 H   0  0  0  0  0  0  0  0  0  0  0  0
    8.2383   -1.5634   21.0944 H   0  0  0  0  0  0  0  0  0  0  0  0
  1  2  1  0  0  0  0
  1  3  2  0  0  0  0
  2  4  2  0  0  0  0
  3 12  1  0  0  0  0
  4 14  1  0  0  0  0
  5  7  2  0  0  0  0
  5 15  1  0  0  0  0
  6  8  1  0  0  0  0
  6 15  2  0  0  0  0
  7 16  1  0  0  0  0
  8 16  2  0  0  0  0
  9 13  1  0  0  0  0
  9 24  2  0  0  0  0
 10 13  2  0  0  0  0
 10 26  1  0  0  0  0
 11 17  2  0  0  0  0
 11 25  1  0  0  0  0
 12 14  2  0  0  0  0
 12 17  1  0  0  0  0
 13 22  1  0  0  0  0
 14 25  1  0  0  0  0
 15 27  1  0  0  0  0
 16 29  1  0  0  0  0
 17 28  1  0  0  0  0
 18 23  1  0  0  0  0
 18 27  1  0  0  0  0
 18 30  2  0  0  0  0
 19 28  1  0  0  0  0
 19 29  1  0  0  0  0
 19 31  2  0  0  0  0
 20 23  1  0  0  0  0
 21 26  1  0  0  0  0
 22 29  1  0  0  0  0
 24 26  1  0  0  0  0
  1 32  1  0  0  0  0
  2 33  1  0  0  0  0
  3 34  1  0  0  0  0
  4 35  1  0  0  0  0
  5 36  1  0  0  0  0
  6 37  1  0  0  0  0
  7 38  1  0  0  0  0
  8 39  1  0  0  0  0
  9 40  1  0  0  0  0
 10 41  1  0  0  0  0
 11 42  1  0  0  0  0
 20 43  1  0  0  0  0
 20 44  1  0  0  0  0
 20 45  1  0  0  0  0
 21 46  1  0  0  0  0
 21 47  1  0  0  0  0
 21 48  1  0  0  0  0
 22 49  1  0  0  0  0
 22 50  1  0  0  0  0
 23 51  1  0  0  0  0
 23 52  1  0  0  0  0
 25 53  1  0  0  0  0
 27 54  1  0  0  0  0
 28 55  1  0  0  0  0
M  END
> <clash_score>
2.1185994131719266

> <docking_score>
-5.450604438781738

> <overlap_score>
0.9790106415748596

$$$$
BENZO_120_1
  -OEChem-08222022173D

 57 61  0     0  0  0  0  0  0999 V2000
    4.2750    1.7050   20.8490 C   0  0  0  0  0  0  0  0  0  0  0  0
    3.9160    2.0630   19.5520 C   0  0  0  0  0  0  0  0  0  0  0  0
    5.4210    0.9600   21.0930 C   0  0  0  0  0  0  0  0  0  0  0  0
    4.6890    1.6810   18.4640 C   0  0  0  0  0  0  0  0  0  0  0  0
    8.9960   -2.3380   25.5320 C   0  0  0  0  0  0  0  0  0  0  0  0
    9.6730   -3.4710   23.5300 C   0  0  0  0  0  0  0  0  0  0  0  0
    9.0720   -1.1280   24.8640 C   0  0  0  0  0  0  0  0  0  0  0  0
    9.7200   -2.2600   22.8630 C   0  0  0  0  0  0  0  0  0  0  0  0
   12.2913    1.4279   22.6355 C   0  0  0  0  0  0  0  0  0  0  0  0
    7.6390   -0.2680   18.5410 C   0  0  0  0  0  0  0  0  0  0  0  0
   13.6024    1.4662   23.0564 C   0  0  0  0  0  0  0  0  0  0  0  0
   12.0284    1.3764   24.9443 C   0  0  0  0  0  0  0  0  0  0  0  0
    6.1790    0.5730   19.9990 C   0  0  0  0  0  0  0  0  0  0  0  0
   11.3794    1.3761   23.7290 C   0  0  0  0  0  0  0  0  0  0  0  0
    5.8300    0.9190   18.6970 C   0  0  0  0  0  0  0  0  0  0  0  0
    9.3070   -3.5340   24.8780 C   0  0  0  0  0  0  0  0  0  0  0  0
    9.3350   -1.0880   23.5010 C   0  0  0  0  0  0  0  0  0  0  0  0
    7.3170   -0.1610   19.8550 C   0  0  0  0  0  0  0  0  0  0  0  0
    9.0420    0.3700   21.5280 C   0  0  0  0  0  0  0  0  0  0  0  0
    7.2235   -6.6199   26.3009 C   0  0  0  0  0  0  0  0  0  0  0  0
    7.4293   -5.3101   27.0652 C   0  0  0  0  0  0  0  0  0  0  0  0
    7.7217   -6.5099   24.8580 C   0  0  0  0  0  0  0  0  0  0  0  0
    8.8782   -4.8357   26.9548 C   0  0  0  0  0  0  0  0  0  0  0  0
    9.1652   -6.0007   24.7995 C   0  0  0  0  0  0  0  0  0  0  0  0
    9.8870    1.3260   23.5730 C   0  0  0  0  0  0  0  0  0  0  0  0
    6.7580    0.3810   17.8350 N   0  0  0  0  0  0  0  0  0  0  0  0
    9.2562   -4.7384   25.5422 N   0  0  0  0  0  0  0  0  0  0  0  0
    8.1890   -0.7180   20.8700 N   0  0  0  0  0  0  0  0  0  0  0  0
    9.4560    0.1560   22.8130 N   0  0  0  0  0  0  0  0  0  0  0  0
    9.2690    1.4140   20.9380 O   0  0  0  0  0  0  0  0  0  0  0  0
   13.7301    1.4394   24.7638 S   0  0  0  0  0  0  0  0  0  0  0  0
    3.6453    2.0152   21.6831 H   0  0  0  0  0  0  0  0  0  0  0  0
    3.0147    2.6520   19.3913 H   0  0  0  0  0  0  0  0  0  0  0  0
    5.6991    0.6995   22.1042 H   0  0  0  0  0  0  0  0  0  0  0  0
    4.4051    1.9733   17.4488 H   0  0  0  0  0  0  0  0  0  0  0  0
    8.6905   -2.3533   26.5810 H   0  0  0  0  0  0  0  0  0  0  0  0
    9.9266   -4.3896   22.9917 H   0  0  0  0  0  0  0  0  0  0  0  0
    8.9233   -0.1992   25.4231 H   0  0  0  0  0  0  0  0  0  0  0  0
   10.0650   -2.2330   21.8256 H   0  0  0  0  0  0  0  0  0  0  0  0
   12.0045    1.4365   21.5915 H   0  0  0  0  0  0  0  0  0  0  0  0
    8.4825   -0.7940   18.0623 H   0  0  0  0  0  0  0  0  0  0  0  0
   14.4914    1.5078   22.4431 H   0  0  0  0  0  0  0  0  0  0  0  0
   11.5886    1.3416   25.9314 H   0  0  0  0  0  0  0  0  0  0  0  0
    7.7559   -7.4347   26.8149 H   0  0  0  0  0  0  0  0  0  0  0  0
    6.1572   -6.8883   26.3055 H   0  0  0  0  0  0  0  0  0  0  0  0
    6.7602   -4.5435   26.6651 H   0  0  0  0  0  0  0  0  0  0  0  0
    7.1684   -5.4551   28.1155 H   0  0  0  0  0  0  0  0  0  0  0  0
    7.6595   -7.4899   24.3736 H   0  0  0  0  0  0  0  0  0  0  0  0
    7.0706   -5.8317   24.2943 H   0  0  0  0  0  0  0  0  0  0  0  0
    8.9681   -3.8621   27.4435 H   0  0  0  0  0  0  0  0  0  0  0  0
    9.5387   -5.5390   27.4697 H   0  0  0  0  0  0  0  0  0  0  0  0
    9.8374   -6.7413   25.2344 H   0  0  0  0  0  0  0  0  0  0  0  0
    9.4414   -5.8515   23.7552 H   0  0  0  0  0  0  0  0  0  0  0  0
    9.3974    1.2912   24.5523 H   0  0  0  0  0  0  0  0  0  0  0  0
    9.5159    2.2168   23.0553 H   0  0  0  0  0  0  0  0  0  0  0  0
    6.7266    0.4930   16.8305 H   0  0  0  0  0  0  0  0  0  0  0  0
    8.2565   -1.5523   21.1108 H   0  0  0  0  0  0  0  0  0  0  0  0
  1  2  1  0  0  0  0
  1  3  2  0  0  0  0
  2  4  2  0  0  0  0
  3 13  1  0  0  0  0
  4 15  1  0  0  0  0
  5  7  2  0  0  0  0
  5 16  1  0  0  0  0
  6  8  1  0  0  0  0
  6 16  2  0  0  0  0
  7 17  1  0  0  0  0
  8 17  2  0  0  0  0
  9 11  2  0  0  0  0
  9 14  1  0  0  0  0
 10 18  2  0  0  0  0
 10 26  1  0  0  0  0
 11 31  1  0  0  0  0
 12 14  2  0  0  0  0
 12 31  1  0  0  0  0
 13 15  2  0  0  0  0
 13 18  1  0  0  0  0
 14 25  1  0  0  0  0
 15 26  1  0  0  0  0
 16 27  1  0  0  0  0
 17 29  1  0  0  0  0
 18 28  1  0  0  0  0
 19 28  1  0  0  0  0
 19 29  1  0  0  0  0
 19 30  2  0  0  0  0
 20 21  1  0  0  0  0
 20 22  1  0  0  0  0
 21 23  1  0  0  0  0
 22 24  1  0  0  0  0
 23 27  1  0  0  0  0
 24 27  1  0  0  0  0
 25 29  1  0  0  0  0
  1 32  1  0  0  0  0
  2 33  1  0  0  0  0
  3 34  1  0  0  0  0
  4 35  1  0  0  0  0
  5 36  1  0  0  0  0
  6 37  1  0  0  0  0
  7 38  1  0  0  0  0
  8 39  1  0  0  0  0
  9 40  1  0  0  0  0
 10 41  1  0  0  0  0
 11 42  1  0  0  0  0
 12 43  1  0  0  0  0
 20 44  1  0  0  0  0
 20 45  1  0  0  0  0
 21 46  1  0  0  0  0
 21 47  1  0  0  0  0
 22 48  1  0  0  0  0
 22 49  1  0  0  0  0
 23 50  1  0  0  0  0
 23 51  1  0  0  0  0
 24 52  1  0  0  0  0
 24 53  1  0  0  0  0
 25 54  1  0  0  0  0
 25 55  1  0  0  0  0
 26 56  1  0  0  0  0
 28 57  1  0  0  0  0
M  END
> <clash_score>
0

> <docking_score>
-7.9351301193237305

> <overlap_score>
0.9782364964485168

$$$$
BENZO_125_1
  -OEChem-08222022173D

 48 51  0     0  0  0  0  0  0999 V2000
   14.1526    1.4694   24.0176 C   0  0  0  0  0  0  0  0  0  0  0  0
    4.2750    1.7050   20.8490 C   0  0  0  0  0  0  0  0  0  0  0  0
   13.3741    0.8121   24.9701 C   0  0  0  0  0  0  0  0  0  0  0  0
   13.5446    2.0802   22.9208 C   0  0  0  0  0  0  0  0  0  0  0  0
    3.9160    2.0630   19.5520 C   0  0  0  0  0  0  0  0  0  0  0  0
    5.4210    0.9600   21.0930 C   0  0  0  0  0  0  0  0  0  0  0  0
   11.9875    0.7654   24.8258 C   0  0  0  0  0  0  0  0  0  0  0  0
   12.1580    2.0335   22.7765 C   0  0  0  0  0  0  0  0  0  0  0  0
    8.9960   -2.3380   25.5320 C   0  0  0  0  0  0  0  0  0  0  0  0
    9.6730   -3.4710   23.5300 C   0  0  0  0  0  0  0  0  0  0  0  0
    4.6890    1.6810   18.4640 C   0  0  0  0  0  0  0  0  0  0  0  0
    9.0720   -1.1280   24.8640 C   0  0  0  0  0  0  0  0  0  0  0  0
    9.7200   -2.2600   22.8630 C   0  0  0  0  0  0  0  0  0  0  0  0
    7.6390   -0.2680   18.5410 C   0  0  0  0  0  0  0  0  0  0  0  0
    6.1790    0.5730   19.9990 C   0  0  0  0  0  0  0  0  0  0  0  0
    9.3070   -3.5340   24.8780 C   0  0  0  0  0  0  0  0  0  0  0  0
   11.3794    1.3761   23.7290 C   0  0  0  0  0  0  0  0  0  0  0  0
    5.8300    0.9190   18.6970 C   0  0  0  0  0  0  0  0  0  0  0  0
    9.3350   -1.0880   23.5010 C   0  0  0  0  0  0  0  0  0  0  0  0
    7.3170   -0.1610   19.8550 C   0  0  0  0  0  0  0  0  0  0  0  0
    9.0420    0.3700   21.5280 C   0  0  0  0  0  0  0  0  0  0  0  0
    9.2505   -4.8264   25.5904 C   0  0  0  0  0  0  0  0  0  0  0  0
    9.8870    1.3260   23.5730 C   0  0  0  0  0  0  0  0  0  0  0  0
    6.7580    0.3810   17.8350 N   0  0  0  0  0  0  0  0  0  0  0  0
    8.1890   -0.7180   20.8700 N   0  0  0  0  0  0  0  0  0  0  0  0
    9.4560    0.1560   22.8130 N   0  0  0  0  0  0  0  0  0  0  0  0
    9.2690    1.4140   20.9380 O   0  0  0  0  0  0  0  0  0  0  0  0
   15.2322    1.5068   24.1308 H   0  0  0  0  0  0  0  0  0  0  0  0
    3.6453    2.0152   21.6831 H   0  0  0  0  0  0  0  0  0  0  0  0
   13.8473    0.3374   25.8248 H   0  0  0  0  0  0  0  0  0  0  0  0
   14.1503    2.5930   22.1795 H   0  0  0  0  0  0  0  0  0  0  0  0
    3.0147    2.6520   19.3913 H   0  0  0  0  0  0  0  0  0  0  0  0
    5.6991    0.6995   22.1042 H   0  0  0  0  0  0  0  0  0  0  0  0
   11.3889    0.2508   25.5729 H   0  0  0  0  0  0  0  0  0  0  0  0
   11.6930    2.5120   21.9187 H   0  0  0  0  0  0  0  0  0  0  0  0
    8.6919   -2.3557   26.5813 H   0  0  0  0  0  0  0  0  0  0  0  0
    9.9267   -4.3907   22.9939 H   0  0  0  0  0  0  0  0  0  0  0  0
    4.4051    1.9733   17.4488 H   0  0  0  0  0  0  0  0  0  0  0  0
    8.9217   -0.1995   25.4231 H   0  0  0  0  0  0  0  0  0  0  0  0
   10.0653   -2.2339   21.8256 H   0  0  0  0  0  0  0  0  0  0  0  0
    8.4825   -0.7940   18.0623 H   0  0  0  0  0  0  0  0  0  0  0  0
    8.2503   -5.2678   25.5020 H   0  0  0  0  0  0  0  0  0  0  0  0
    9.9817   -5.5374   25.1845 H   0  0  0  0  0  0  0  0  0  0  0  0
    9.4841   -4.7043   26.6562 H   0  0  0  0  0  0  0  0  0  0  0  0
    9.3974    1.2912   24.5523 H   0  0  0  0  0  0  0  0  0  0  0  0
    9.5159    2.2168   23.0553 H   0  0  0  0  0  0  0  0  0  0  0  0
    6.7266    0.4930   16.8305 H   0  0  0  0  0  0  0  0  0  0  0  0
    8.2383   -1.5634   21.0944 H   0  0  0  0  0  0  0  0  0  0  0  0
  1  3  1  0  0  0  0
  1  4  2  0  0  0  0
  2  5  1  0  0  0  0
  2  6  2  0  0  0  0
  3  7  2  0  0  0  0
  4  8  1  0  0  0  0
  5 11  2  0  0  0  0
  6 15  1  0  0  0  0
  7 17  1  0  0  0  0
  8 17  2  0  0  0  0
  9 12  2  0  0  0  0
  9 16  1  0  0  0  0
 10 13  1  0  0  0  0
 10 16  2  0  0  0  0
 11 18  1  0  0  0  0
 12 19  1  0  0  0  0
 13 19  2  0  0  0  0
 14 20  2  0  0  0  0
 14 24  1  0  0  0  0
 15 18  2  0  0  0  0
 15 20  1  0  0  0  0
 16 22  1  0  0  0  0
 17 23  1  0  0  0  0
 18 24  1  0  0  0  0
 19 26  1  0  0  0  0
 20 25  1  0  0  0  0
 21 25  1  0  0  0  0
 21 26  1  0  0  0  0
 21 27  2  0  0  0  0
 23 26  1  0  0  0  0
  1 28  1  0  0  0  0
  2 29  1  0  0  0  0
  3 30  1  0  0  0  0
  4 31  1  0  0  0  0
  5 32  1  0  0  0  0
  6 33  1  0  0  0  0
  7 34  1  0  0  0  0
  8 35  1  0  0  0  0
  9 36  1  0  0  0  0
 10 37  1  0  0  0  0
 11 38  1  0  0  0  0
 12 39  1  0  0  0  0
 13 40  1  0  0  0  0
 14 41  1  0  0  0  0
 22 42  1  0  0  0  0
 22 43  1  0  0  0  0
 22 44  1  0  0  0  0
 23 45  1  0  0  0  0
 23 46  1  0  0  0  0
 24 47  1  0  0  0  0
 25 48  1  0  0  0  0
M  END
> <clash_score>
0

> <docking_score>
-8.277667999267578

> <overlap_score>
0.9394523501396179

$$$$
BENZO_124_1
  -OEChem-08222022173D

 45 48  0     0  0  0  0  0  0999 V2000
    4.2750    1.7050   20.8490 C   0  0  0  0  0  0  0  0  0  0  0  0
    3.9160    2.0630   19.5520 C   0  0  0  0  0  0  0  0  0  0  0  0
    5.4210    0.9600   21.0930 C   0  0  0  0  0  0  0  0  0  0  0  0
    8.9960   -2.3380   25.5320 C   0  0  0  0  0  0  0  0  0  0  0  0
    9.6730   -3.4710   23.5300 C   0  0  0  0  0  0  0  0  0  0  0  0
    4.6890    1.6810   18.4640 C   0  0  0  0  0  0  0  0  0  0  0  0
    9.0720   -1.1280   24.8640 C   0  0  0  0  0  0  0  0  0  0  0  0
    9.7200   -2.2600   22.8630 C   0  0  0  0  0  0  0  0  0  0  0  0
   12.2111    0.2208   23.7905 C   0  0  0  0  0  0  0  0  0  0  0  0
    7.6390   -0.2680   18.5410 C   0  0  0  0  0  0  0  0  0  0  0  0
   13.5412    0.5479   23.9364 C   0  0  0  0  0  0  0  0  0  0  0  0
   12.1057    2.5424   23.8305 C   0  0  0  0  0  0  0  0  0  0  0  0
    6.1790    0.5730   19.9990 C   0  0  0  0  0  0  0  0  0  0  0  0
    9.3070   -3.5340   24.8780 C   0  0  0  0  0  0  0  0  0  0  0  0
   11.3794    1.3761   23.7290 C   0  0  0  0  0  0  0  0  0  0  0  0
    5.8300    0.9190   18.6970 C   0  0  0  0  0  0  0  0  0  0  0  0
    9.3350   -1.0880   23.5010 C   0  0  0  0  0  0  0  0  0  0  0  0
    7.3170   -0.1610   19.8550 C   0  0  0  0  0  0  0  0  0  0  0  0
    9.0420    0.3700   21.5280 C   0  0  0  0  0  0  0  0  0  0  0  0
    9.2505   -4.8264   25.5904 C   0  0  0  0  0  0  0  0  0  0  0  0
    9.8870    1.3260   23.5730 C   0  0  0  0  0  0  0  0  0  0  0  0
    6.7580    0.3810   17.8350 N   0  0  0  0  0  0  0  0  0  0  0  0
    8.1890   -0.7180   20.8700 N   0  0  0  0  0  0  0  0  0  0  0  0
    9.4560    0.1560   22.8130 N   0  0  0  0  0  0  0  0  0  0  0  0
    9.2690    1.4140   20.9380 O   0  0  0  0  0  0  0  0  0  0  0  0
   13.7831    2.2420   23.9988 S   0  0  0  0  0  0  0  0  0  0  0  0
    3.6453    2.0152   21.6831 H   0  0  0  0  0  0  0  0  0  0  0  0
    3.0147    2.6520   19.3913 H   0  0  0  0  0  0  0  0  0  0  0  0
    5.6991    0.6995   22.1042 H   0  0  0  0  0  0  0  0  0  0  0  0
    8.6919   -2.3557   26.5813 H   0  0  0  0  0  0  0  0  0  0  0  0
    9.9267   -4.3907   22.9939 H   0  0  0  0  0  0  0  0  0  0  0  0
    4.4051    1.9733   17.4488 H   0  0  0  0  0  0  0  0  0  0  0  0
    8.9217   -0.1995   25.4231 H   0  0  0  0  0  0  0  0  0  0  0  0
   10.0653   -2.2339   21.8256 H   0  0  0  0  0  0  0  0  0  0  0  0
   11.8558   -0.8003   23.7315 H   0  0  0  0  0  0  0  0  0  0  0  0
    8.4825   -0.7940   18.0623 H   0  0  0  0  0  0  0  0  0  0  0  0
   14.3824   -0.1267   24.0100 H   0  0  0  0  0  0  0  0  0  0  0  0
   11.7354    3.5581   23.8155 H   0  0  0  0  0  0  0  0  0  0  0  0
    8.2503   -5.2678   25.5020 H   0  0  0  0  0  0  0  0  0  0  0  0
    9.9817   -5.5374   25.1845 H   0  0  0  0  0  0  0  0  0  0  0  0
    9.4841   -4.7043   26.6562 H   0  0  0  0  0  0  0  0  0  0  0  0
    9.3974    1.2912   24.5523 H   0  0  0  0  0  0  0  0  0  0  0  0
    9.5159    2.2168   23.0553 H   0  0  0  0  0  0  0  0  0  0  0  0
    6.7266    0.4930   16.8305 H   0  0  0  0  0  0  0  0  0  0  0  0
    8.2383   -1.5634   21.0944 H   0  0  0  0  0  0  0  0  0  0  0  0
  1  2  1  0  0  0  0
  1  3  2  0  0  0  0
  2  6  2  0  0  0  0
  3 13  1  0  0  0  0
  4  7  2  0  0  0  0
  4 14  1  0  0  0  0
  5  8  1  0  0  0  0
  5 14  2  0  0  0  0
  6 16  1  0  0  0  0
  7 17  1  0  0  0  0
  8 17  2  0  0  0  0
  9 11  2  0  0  0  0
  9 15  1  0  0  0  0
 10 18  2  0  0  0  0
 10 22  1  0  0  0  0
 11 26  1  0  0  0  0
 12 15  2  0  0  0  0
 12 26  1  0  0  0  0
 13 16  2  0  0  0  0
 13 18  1  0  0  0  0
 14 20  1  0  0  0  0
 15 21  1  0  0  0  0
 16 22  1  0  0  0  0
 17 24  1  0  0  0  0
 18 23  1  0  0  0  0
 19 23  1  0  0  0  0
 19 24  1  0  0  0  0
 19 25  2  0  0  0  0
 21 24  1  0  0  0  0
  1 27  1  0  0  0  0
  2 28  1  0  0  0  0
  3 29  1  0  0  0  0
  4 30  1  0  0  0  0
  5 31  1  0  0  0  0
  6 32  1  0  0  0  0
  7 33  1  0  0  0  0
  8 34  1  0  0  0  0
  9 35  1  0  0  0  0
 10 36  1  0  0  0  0
 11 37  1  0  0  0  0
 12 38  1  0  0  0  0
 20 39  1  0  0  0  0
 20 40  1  0  0  0  0
 20 41  1  0  0  0  0
 21 42  1  0  0  0  0
 21 43  1  0  0  0  0
 22 44  1  0  0  0  0
 23 45  1  0  0  0  0
M  END
> <clash_score>
0

> <docking_score>
-7.55084228515625

> <overlap_score>
0.9242712259292603

$$$$
BENZO_122_1
  -OEChem-08222022173D

 60 64  0     0  0  0  0  0  0999 V2000
    4.2750    1.7050   20.8490 C   0  0  0  0  0  0  0  0  0  0  0  0
    3.9160    2.0630   19.5520 C   0  0  0  0  0  0  0  0  0  0  0  0
   13.4007    0.5725   24.7805 C   0  0  0  0  0  0  0  0  0  0  0  0
    5.4210    0.9600   21.0930 C   0  0  0  0  0  0  0  0  0  0  0  0
   12.0141    0.5273   24.6359 C   0  0  0  0  0  0  0  0  0  0  0  0
    4.6890    1.6810   18.4640 C   0  0  0  0  0  0  0  0  0  0  0  0
    8.9960   -2.3380   25.5320 C   0  0  0  0  0  0  0  0  0  0  0  0
    9.6730   -3.4710   23.5300 C   0  0  0  0  0  0  0  0  0  0  0  0
    9.0720   -1.1280   24.8640 C   0  0  0  0  0  0  0  0  0  0  0  0
    9.7200   -2.2600   22.8630 C   0  0  0  0  0  0  0  0  0  0  0  0
   14.1526    1.4666   24.0184 C   0  0  0  0  0  0  0  0  0  0  0  0
   12.1314    2.2702   22.9668 C   0  0  0  0  0  0  0  0  0  0  0  0
    7.6390   -0.2680   18.5410 C   0  0  0  0  0  0  0  0  0  0  0  0
    6.1790    0.5730   19.9990 C   0  0  0  0  0  0  0  0  0  0  0  0
   11.3794    1.3761   23.7290 C   0  0  0  0  0  0  0  0  0  0  0  0
    5.8300    0.9190   18.6970 C   0  0  0  0  0  0  0  0  0  0  0  0
    9.3070   -3.5340   24.8780 C   0  0  0  0  0  0  0  0  0  0  0  0
    9.3350   -1.0880   23.5010 C   0  0  0  0  0  0  0  0  0  0  0  0
    7.3170   -0.1610   19.8550 C   0  0  0  0  0  0  0  0  0  0  0  0
   13.5180    2.3154   23.1115 C   0  0  0  0  0  0  0  0  0  0  0  0
    9.0420    0.3700   21.5280 C   0  0  0  0  0  0  0  0  0  0  0  0
    7.3635   -6.1361   27.1888 C   0  0  0  0  0  0  0  0  0  0  0  0
    8.1961   -4.9735   27.7341 C   0  0  0  0  0  0  0  0  0  0  0  0
    7.1942   -6.0394   25.6709 C   0  0  0  0  0  0  0  0  0  0  0  0
    9.5196   -4.8490   26.9797 C   0  0  0  0  0  0  0  0  0  0  0  0
    8.5442   -5.8838   24.9639 C   0  0  0  0  0  0  0  0  0  0  0  0
    9.8870    1.3260   23.5730 C   0  0  0  0  0  0  0  0  0  0  0  0
    6.7580    0.3810   17.8350 N   0  0  0  0  0  0  0  0  0  0  0  0
    9.2562   -4.7384   25.5422 N   0  0  0  0  0  0  0  0  0  0  0  0
    8.1890   -0.7180   20.8700 N   0  0  0  0  0  0  0  0  0  0  0  0
    9.4560    0.1560   22.8130 N   0  0  0  0  0  0  0  0  0  0  0  0
    9.2690    1.4140   20.9380 O   0  0  0  0  0  0  0  0  0  0  0  0
   14.4463    3.4175   22.1707 Cl  0  0  0  0  0  0  0  0  0  0  0  0
    3.6453    2.0152   21.6831 H   0  0  0  0  0  0  0  0  0  0  0  0
    3.0147    2.6520   19.3913 H   0  0  0  0  0  0  0  0  0  0  0  0
   13.8945   -0.0888   25.4867 H   0  0  0  0  0  0  0  0  0  0  0  0
    5.6991    0.6995   22.1042 H   0  0  0  0  0  0  0  0  0  0  0  0
   11.4361   -0.1726   25.2338 H   0  0  0  0  0  0  0  0  0  0  0  0
    4.4051    1.9733   17.4488 H   0  0  0  0  0  0  0  0  0  0  0  0
    8.6905   -2.3533   26.5810 H   0  0  0  0  0  0  0  0  0  0  0  0
    9.9266   -4.3896   22.9917 H   0  0  0  0  0  0  0  0  0  0  0  0
    8.9233   -0.1992   25.4231 H   0  0  0  0  0  0  0  0  0  0  0  0
   10.0650   -2.2330   21.8256 H   0  0  0  0  0  0  0  0  0  0  0  0
   15.2326    1.4907   24.1414 H   0  0  0  0  0  0  0  0  0  0  0  0
   11.6317    2.9303   22.2615 H   0  0  0  0  0  0  0  0  0  0  0  0
    8.4825   -0.7940   18.0623 H   0  0  0  0  0  0  0  0  0  0  0  0
    7.8482   -7.0901   27.4469 H   0  0  0  0  0  0  0  0  0  0  0  0
    6.3760   -6.1438   27.6724 H   0  0  0  0  0  0  0  0  0  0  0  0
    7.6307   -4.0424   27.6403 H   0  0  0  0  0  0  0  0  0  0  0  0
    8.3915   -5.1310   28.7968 H   0  0  0  0  0  0  0  0  0  0  0  0
    6.6888   -6.9376   25.3010 H   0  0  0  0  0  0  0  0  0  0  0  0
    6.5515   -5.1859   25.4257 H   0  0  0  0  0  0  0  0  0  0  0  0
   10.0492   -3.9640   27.3414 H   0  0  0  0  0  0  0  0  0  0  0  0
   10.1431   -5.7254   27.1778 H   0  0  0  0  0  0  0  0  0  0  0  0
    9.1338   -6.7931   25.0868 H   0  0  0  0  0  0  0  0  0  0  0  0
    8.3656   -5.7264   23.8998 H   0  0  0  0  0  0  0  0  0  0  0  0
    9.3974    1.2912   24.5523 H   0  0  0  0  0  0  0  0  0  0  0  0
    9.5159    2.2168   23.0553 H   0  0  0  0  0  0  0  0  0  0  0  0
    6.7266    0.4930   16.8305 H   0  0  0  0  0  0  0  0  0  0  0  0
    8.2565   -1.5523   21.1108 H   0  0  0  0  0  0  0  0  0  0  0  0
  1  2  1  0  0  0  0
  1  4  2  0  0  0  0
  2  6  2  0  0  0  0
  3  5  2  0  0  0  0
  3 11  1  0  0  0  0
  4 14  1  0  0  0  0
  5 15  1  0  0  0  0
  6 16  1  0  0  0  0
  7  9  2  0  0  0  0
  7 17  1  0  0  0  0
  8 10  1  0  0  0  0
  8 17  2  0  0  0  0
  9 18  1  0  0  0  0
 10 18  2  0  0  0  0
 11 20  2  0  0  0  0
 12 15  2  0  0  0  0
 12 20  1  0  0  0  0
 13 19  2  0  0  0  0
 13 28  1  0  0  0  0
 14 16  2  0  0  0  0
 14 19  1  0  0  0  0
 15 27  1  0  0  0  0
 16 28  1  0  0  0  0
 17 29  1  0  0  0  0
 18 31  1  0  0  0  0
 19 30  1  0  0  0  0
 20 33  1  0  0  0  0
 21 30  1  0  0  0  0
 21 31  1  0  0  0  0
 21 32  2  0  0  0  0
 22 23  1  0  0  0  0
 22 24  1  0  0  0  0
 23 25  1  0  0  0  0
 24 26  1  0  0  0  0
 25 29  1  0  0  0  0
 26 29  1  0  0  0  0
 27 31  1  0  0  0  0
  1 34  1  0  0  0  0
  2 35  1  0  0  0  0
  3 36  1  0  0  0  0
  4 37  1  0  0  0  0
  5 38  1  0  0  0  0
  6 39  1  0  0  0  0
  7 40  1  0  0  0  0
  8 41  1  0  0  0  0
  9 42  1  0  0  0  0
 10 43  1  0  0  0  0
 11 44  1  0  0  0  0
 12 45  1  0  0  0  0
 13 46  1  0  0  0  0
 22 47  1  0  0  0  0
 22 48  1  0  0  0  0
 23 49  1  0  0  0  0
 23 50  1  0  0  0  0
 24 51  1  0  0  0  0
 24 52  1  0  0  0  0
 25 53  1  0  0  0  0
 25 54  1  0  0  0  0
 26 55  1  0  0  0  0
 26 56  1  0  0  0  0
 27 57  1  0  0  0  0
 27 58  1  0  0  0  0
 28 59  1  0  0  0  0
 30 60  1  0  0  0  0
M  END
> <clash_score>
0

> <docking_score>
-7.169628143310547

> <overlap_score>
1.0042749643325806

$$$$
BENZO_123_1
  -OEChem-08222022173D

 60 64  0     0  0  0  0  0  0999 V2000
    4.2750    1.7050   20.8490 C   0  0  0  0  0  0  0  0  0  0  0  0
    3.9160    2.0630   19.5520 C   0  0  0  0  0  0  0  0  0  0  0  0
    5.4210    0.9600   21.0930 C   0  0  0  0  0  0  0  0  0  0  0  0
    4.6890    1.6810   18.4640 C   0  0  0  0  0  0  0  0  0  0  0  0
    8.9960   -2.3380   25.5320 C   0  0  0  0  0  0  0  0  0  0  0  0
    9.6730   -3.4710   23.5300 C   0  0  0  0  0  0  0  0  0  0  0  0
    9.0720   -1.1280   24.8640 C   0  0  0  0  0  0  0  0  0  0  0  0
    9.7200   -2.2600   22.8630 C   0  0  0  0  0  0  0  0  0  0  0  0
   12.1233    1.3811   24.9242 C   0  0  0  0  0  0  0  0  0  0  0  0
   12.3261    1.4247   22.7351 C   0  0  0  0  0  0  0  0  0  0  0  0
    7.6390   -0.2680   18.5410 C   0  0  0  0  0  0  0  0  0  0  0  0
    6.1790    0.5730   19.9990 C   0  0  0  0  0  0  0  0  0  0  0  0
   11.3794    1.3761   23.7290 C   0  0  0  0  0  0  0  0  0  0  0  0
    5.8300    0.9190   18.6970 C   0  0  0  0  0  0  0  0  0  0  0  0
    9.3070   -3.5340   24.8780 C   0  0  0  0  0  0  0  0  0  0  0  0
    9.3350   -1.0880   23.5010 C   0  0  0  0  0  0  0  0  0  0  0  0
    7.3170   -0.1610   19.8550 C   0  0  0  0  0  0  0  0  0  0  0  0
    9.0420    0.3700   21.5280 C   0  0  0  0  0  0  0  0  0  0  0  0
    7.3635   -6.1361   27.1888 C   0  0  0  0  0  0  0  0  0  0  0  0
    8.1961   -4.9735   27.7341 C   0  0  0  0  0  0  0  0  0  0  0  0
    7.1942   -6.0394   25.6709 C   0  0  0  0  0  0  0  0  0  0  0  0
    9.5196   -4.8490   26.9797 C   0  0  0  0  0  0  0  0  0  0  0  0
    8.5442   -5.8838   24.9639 C   0  0  0  0  0  0  0  0  0  0  0  0
   14.8305    1.5084   22.7418 C   0  0  0  0  0  0  0  0  0  0  0  0
    9.8870    1.3260   23.5730 C   0  0  0  0  0  0  0  0  0  0  0  0
   13.4410    1.4289   24.7112 N   0  0  0  0  0  0  0  0  0  0  0  0
    6.7580    0.3810   17.8350 N   0  0  0  0  0  0  0  0  0  0  0  0
   13.5326    1.4543   23.3706 N   0  0  0  0  0  0  0  0  0  0  0  0
    9.2562   -4.7384   25.5422 N   0  0  0  0  0  0  0  0  0  0  0  0
    8.1890   -0.7180   20.8700 N   0  0  0  0  0  0  0  0  0  0  0  0
    9.4560    0.1560   22.8130 N   0  0  0  0  0  0  0  0  0  0  0  0
    9.2690    1.4140   20.9380 O   0  0  0  0  0  0  0  0  0  0  0  0
    3.6453    2.0152   21.6831 H   0  0  0  0  0  0  0  0  0  0  0  0
    3.0147    2.6520   19.3913 H   0  0  0  0  0  0  0  0  0  0  0  0
    5.6991    0.6995   22.1042 H   0  0  0  0  0  0  0  0  0  0  0  0
    4.4051    1.9733   17.4488 H   0  0  0  0  0  0  0  0  0  0  0  0
    8.6905   -2.3533   26.5810 H   0  0  0  0  0  0  0  0  0  0  0  0
    9.9266   -4.3896   22.9917 H   0  0  0  0  0  0  0  0  0  0  0  0
    8.9233   -0.1992   25.4231 H   0  0  0  0  0  0  0  0  0  0  0  0
   10.0650   -2.2330   21.8256 H   0  0  0  0  0  0  0  0  0  0  0  0
   11.7624    1.3510   25.9426 H   0  0  0  0  0  0  0  0  0  0  0  0
   12.2462    1.4390   21.6566 H   0  0  0  0  0  0  0  0  0  0  0  0
    8.4825   -0.7940   18.0623 H   0  0  0  0  0  0  0  0  0  0  0  0
    7.8482   -7.0901   27.4469 H   0  0  0  0  0  0  0  0  0  0  0  0
    6.3760   -6.1438   27.6724 H   0  0  0  0  0  0  0  0  0  0  0  0
    7.6307   -4.0424   27.6403 H   0  0  0  0  0  0  0  0  0  0  0  0
    8.3915   -5.1310   28.7968 H   0  0  0  0  0  0  0  0  0  0  0  0
    6.6888   -6.9376   25.3010 H   0  0  0  0  0  0  0  0  0  0  0  0
    6.5515   -5.1859   25.4257 H   0  0  0  0  0  0  0  0  0  0  0  0
   10.0492   -3.9640   27.3414 H   0  0  0  0  0  0  0  0  0  0  0  0
   10.1431   -5.7254   27.1778 H   0  0  0  0  0  0  0  0  0  0  0  0
    9.1338   -6.7931   25.0868 H   0  0  0  0  0  0  0  0  0  0  0  0
    8.3656   -5.7264   23.8998 H   0  0  0  0  0  0  0  0  0  0  0  0
   15.0990    2.5601   22.6124 H   0  0  0  0  0  0  0  0  0  0  0  0
   15.5636    1.0018   23.3756 H   0  0  0  0  0  0  0  0  0  0  0  0
   14.7841    1.0025   21.7733 H   0  0  0  0  0  0  0  0  0  0  0  0
    9.3974    1.2912   24.5523 H   0  0  0  0  0  0  0  0  0  0  0  0
    9.5159    2.2168   23.0553 H   0  0  0  0  0  0  0  0  0  0  0  0
    6.7266    0.4930   16.8305 H   0  0  0  0  0  0  0  0  0  0  0  0
    8.2565   -1.5523   21.1108 H   0  0  0  0  0  0  0  0  0  0  0  0
  1  2  1  0  0  0  0
  1  3  2  0  0  0  0
  2  4  2  0  0  0  0
  3 12  1  0  0  0  0
  4 14  1  0  0  0  0
  5  7  2  0  0  0  0
  5 15  1  0  0  0  0
  6  8  1  0  0  0  0
  6 15  2  0  0  0  0
  7 16  1  0  0  0  0
  8 16  2  0  0  0  0
  9 13  1  0  0  0  0
  9 26  2  0  0  0  0
 10 13  2  0  0  0  0
 10 28  1  0  0  0  0
 11 17  2  0  0  0  0
 11 27  1  0  0  0  0
 12 14  2  0  0  0  0
 12 17  1  0  0  0  0
 13 25  1  0  0  0  0
 14 27  1  0  0  0  0
 15 29  1  0  0  0  0
 16 31  1  0  0  0  0
 17 30  1  0  0  0  0
 18 30  1  0  0  0  0
 18 31  1  0  0  0  0
 18 32  2  0  0  0  0
 19 20  1  0  0  0  0
 19 21  1  0  0  0  0
 20 22  1  0  0  0  0
 21 23  1  0  0  0  0
 22 29  1  0  0  0  0
 23 29  1  0  0  0  0
 24 28  1  0  0  0  0
 25 31  1  0  0  0  0
 26 28  1  0  0  0  0
  1 33  1  0  0  0  0
  2 34  1  0  0  0  0
  3 35  1  0  0  0  0
  4 36  1  0  0  0  0
  5 37  1  0  0  0  0
  6 38  1  0  0  0  0
  7 39  1  0  0  0  0
  8 40  1  0  0  0  0
  9 41  1  0  0  0  0
 10 42  1  0  0  0  0
 11 43  1  0  0  0  0
 19 44  1  0  0  0  0
 19 45  1  0  0  0  0
 20 46  1  0  0  0  0
 20 47  1  0  0  0  0
 21 48  1  0  0  0  0
 21 49  1  0  0  0  0
 22 50  1  0  0  0  0
 22 51  1  0  0  0  0
 23 52  1  0  0  0  0
 23 53  1  0  0  0  0
 24 54  1  0  0  0  0
 24 55  1  0  0  0  0
 24 56  1  0  0  0  0
 25 57  1  0  0  0  0
 25 58  1  0  0  0  0
 27 59  1  0  0  0  0
 30 60  1  0  0  0  0
M  END
> <clash_score>
0

> <docking_score>
-7.74876594543457

> <overlap_score>
0.9881091713905334

$$$$
BENZO_126_1
  -OEChem-08222022173D

 48 51  0     0  0  0  0  0  0999 V2000
    4.2750    1.7050   20.8490 C   0  0  0  0  0  0  0  0  0  0  0  0
    3.9160    2.0630   19.5520 C   0  0  0  0  0  0  0  0  0  0  0  0
   13.4006    0.5725   24.7805 C   0  0  0  0  0  0  0  0  0  0  0  0
    5.4210    0.9600   21.0930 C   0  0  0  0  0  0  0  0  0  0  0  0
   12.0141    0.5273   24.6359 C   0  0  0  0  0  0  0  0  0  0  0  0
    8.9960   -2.3380   25.5320 C   0  0  0  0  0  0  0  0  0  0  0  0
    9.6730   -3.4710   23.5300 C   0  0  0  0  0  0  0  0  0  0  0  0
    4.6890    1.6810   18.4640 C   0  0  0  0  0  0  0  0  0  0  0  0
    9.0720   -1.1280   24.8640 C   0  0  0  0  0  0  0  0  0  0  0  0
    9.7200   -2.2600   22.8630 C   0  0  0  0  0  0  0  0  0  0  0  0
   14.1526    1.4666   24.0184 C   0  0  0  0  0  0  0  0  0  0  0  0
   12.1314    2.2702   22.9668 C   0  0  0  0  0  0  0  0  0  0  0  0
    7.6390   -0.2680   18.5410 C   0  0  0  0  0  0  0  0  0  0  0  0
    6.1790    0.5730   19.9990 C   0  0  0  0  0  0  0  0  0  0  0  0
    9.3070   -3.5340   24.8780 C   0  0  0  0  0  0  0  0  0  0  0  0
   11.3794    1.3761   23.7290 C   0  0  0  0  0  0  0  0  0  0  0  0
    5.8300    0.9190   18.6970 C   0  0  0  0  0  0  0  0  0  0  0  0
    9.3350   -1.0880   23.5010 C   0  0  0  0  0  0  0  0  0  0  0  0
    7.3170   -0.1610   19.8550 C   0  0  0  0  0  0  0  0  0  0  0  0
   13.5180    2.3154   23.1115 C   0  0  0  0  0  0  0  0  0  0  0  0
    9.0420    0.3700   21.5280 C   0  0  0  0  0  0  0  0  0  0  0  0
    9.2505   -4.8264   25.5904 C   0  0  0  0  0  0  0  0  0  0  0  0
    9.8870    1.3260   23.5730 C   0  0  0  0  0  0  0  0  0  0  0  0
    6.7580    0.3810   17.8350 N   0  0  0  0  0  0  0  0  0  0  0  0
    8.1890   -0.7180   20.8700 N   0  0  0  0  0  0  0  0  0  0  0  0
    9.4560    0.1560   22.8130 N   0  0  0  0  0  0  0  0  0  0  0  0
    9.2690    1.4140   20.9380 O   0  0  0  0  0  0  0  0  0  0  0  0
   14.4463    3.4175   22.1707 Cl  0  0  0  0  0  0  0  0  0  0  0  0
    3.6453    2.0152   21.6831 H   0  0  0  0  0  0  0  0  0  0  0  0
    3.0147    2.6520   19.3913 H   0  0  0  0  0  0  0  0  0  0  0  0
   13.8945   -0.0888   25.4867 H   0  0  0  0  0  0  0  0  0  0  0  0
    5.6991    0.6995   22.1042 H   0  0  0  0  0  0  0  0  0  0  0  0
   11.4361   -0.1726   25.2338 H   0  0  0  0  0  0  0  0  0  0  0  0
    8.6919   -2.3557   26.5813 H   0  0  0  0  0  0  0  0  0  0  0  0
    9.9267   -4.3907   22.9939 H   0  0  0  0  0  0  0  0  0  0  0  0
    4.4051    1.9733   17.4488 H   0  0  0  0  0  0  0  0  0  0  0  0
    8.9217   -0.1995   25.4231 H   0  0  0  0  0  0  0  0  0  0  0  0
   10.0653   -2.2339   21.8256 H   0  0  0  0  0  0  0  0  0  0  0  0
   15.2326    1.4907   24.1414 H   0  0  0  0  0  0  0  0  0  0  0  0
   11.6318    2.9303   22.2615 H   0  0  0  0  0  0  0  0  0  0  0  0
    8.4825   -0.7940   18.0623 H   0  0  0  0  0  0  0  0  0  0  0  0
    8.2503   -5.2678   25.5020 H   0  0  0  0  0  0  0  0  0  0  0  0
    9.9817   -5.5374   25.1845 H   0  0  0  0  0  0  0  0  0  0  0  0
    9.4841   -4.7043   26.6562 H   0  0  0  0  0  0  0  0  0  0  0  0
    9.3974    1.2912   24.5523 H   0  0  0  0  0  0  0  0  0  0  0  0
    9.5159    2.2168   23.0553 H   0  0  0  0  0  0  0  0  0  0  0  0
    6.7266    0.4930   16.8305 H   0  0  0  0  0  0  0  0  0  0  0  0
    8.2383   -1.5634   21.0944 H   0  0  0  0  0  0  0  0  0  0  0  0
  1  2  1  0  0  0  0
  1  4  2  0  0  0  0
  2  8  2  0  0  0  0
  3  5  2  0  0  0  0
  3 11  1  0  0  0  0
  4 14  1  0  0  0  0
  5 16  1  0  0  0  0
  6  9  2  0  0  0  0
  6 15  1  0  0  0  0
  7 10  1  0  0  0  0
  7 15  2  0  0  0  0
  8 17  1  0  0  0  0
  9 18  1  0  0  0  0
 10 18  2  0  0  0  0
 11 20  2  0  0  0  0
 12 16  2  0  0  0  0
 12 20  1  0  0  0  0
 13 19  2  0  0  0  0
 13 24  1  0  0  0  0
 14 17  2  0  0  0  0
 14 19  1  0  0  0  0
 15 22  1  0  0  0  0
 16 23  1  0  0  0  0
 17 24  1  0  0  0  0
 18 26  1  0  0  0  0
 19 25  1  0  0  0  0
 20 28  1  0  0  0  0
 21 25  1  0  0  0  0
 21 26  1  0  0  0  0
 21 27  2  0  0  0  0
 23 26  1  0  0  0  0
  1 29  1  0  0  0  0
  2 30  1  0  0  0  0
  3 31  1  0  0  0  0
  4 32  1  0  0  0  0
  5 33  1  0  0  0  0
  6 34  1  0  0  0  0
  7 35  1  0  0  0  0
  8 36  1  0  0  0  0
  9 37  1  0  0  0  0
 10 38  1  0  0  0  0
 11 39  1  0  0  0  0
 12 40  1  0  0  0  0
 13 41  1  0  0  0  0
 22 42  1  0  0  0  0
 22 43  1  0  0  0  0
 22 44  1  0  0  0  0
 23 45  1  0  0  0  0
 23 46  1  0  0  0  0
 24 47  1  0  0  0  0
 25 48  1  0  0  0  0
M  END
> <clash_score>
0

> <docking_score>
-7.414644241333008

> <overlap_score>
0.9507184624671936

$$$$
BENZO_129_1
  -OEChem-08222022173D

 49 52  0     0  0  0  0  0  0999 V2000
   14.1526    1.4694   24.0176 C   0  0  0  0  0  0  0  0  0  0  0  0
    4.2750    1.7050   20.8490 C   0  0  0  0  0  0  0  0  0  0  0  0
   13.3741    0.8121   24.9701 C   0  0  0  0  0  0  0  0  0  0  0  0
   13.5446    2.0802   22.9208 C   0  0  0  0  0  0  0  0  0  0  0  0
    3.9160    2.0630   19.5520 C   0  0  0  0  0  0  0  0  0  0  0  0
    5.4210    0.9600   21.0930 C   0  0  0  0  0  0  0  0  0  0  0  0
   11.9875    0.7654   24.8258 C   0  0  0  0  0  0  0  0  0  0  0  0
   12.1580    2.0335   22.7765 C   0  0  0  0  0  0  0  0  0  0  0  0
    4.6890    1.6810   18.4640 C   0  0  0  0  0  0  0  0  0  0  0  0
    9.0720   -1.1280   24.8640 C   0  0  0  0  0  0  0  0  0  0  0  0
    9.7200   -2.2600   22.8630 C   0  0  0  0  0  0  0  0  0  0  0  0
    8.9960   -2.3380   25.5320 C   0  0  0  0  0  0  0  0  0  0  0  0
    9.6730   -3.4710   23.5300 C   0  0  0  0  0  0  0  0  0  0  0  0
    7.6390   -0.2680   18.5410 C   0  0  0  0  0  0  0  0  0  0  0  0
    6.1790    0.5730   19.9990 C   0  0  0  0  0  0  0  0  0  0  0  0
   11.3794    1.3761   23.7290 C   0  0  0  0  0  0  0  0  0  0  0  0
    5.8300    0.9190   18.6970 C   0  0  0  0  0  0  0  0  0  0  0  0
    9.3350   -1.0880   23.5010 C   0  0  0  0  0  0  0  0  0  0  0  0
    7.3170   -0.1610   19.8550 C   0  0  0  0  0  0  0  0  0  0  0  0
    9.3070   -3.5340   24.8780 C   0  0  0  0  0  0  0  0  0  0  0  0
    9.0420    0.3700   21.5280 C   0  0  0  0  0  0  0  0  0  0  0  0
    9.5894   -5.8809   24.7798 C   0  0  0  0  0  0  0  0  0  0  0  0
    9.8870    1.3260   23.5730 C   0  0  0  0  0  0  0  0  0  0  0  0
    6.7580    0.3810   17.8350 N   0  0  0  0  0  0  0  0  0  0  0  0
    8.1890   -0.7180   20.8700 N   0  0  0  0  0  0  0  0  0  0  0  0
    9.4560    0.1560   22.8130 N   0  0  0  0  0  0  0  0  0  0  0  0
    9.2690    1.4140   20.9380 O   0  0  0  0  0  0  0  0  0  0  0  0
    9.2555   -4.7124   25.5274 O   0  0  0  0  0  0  0  0  0  0  0  0
   15.2322    1.5068   24.1308 H   0  0  0  0  0  0  0  0  0  0  0  0
    3.6453    2.0152   21.6831 H   0  0  0  0  0  0  0  0  0  0  0  0
   13.8473    0.3374   25.8248 H   0  0  0  0  0  0  0  0  0  0  0  0
   14.1503    2.5930   22.1795 H   0  0  0  0  0  0  0  0  0  0  0  0
    3.0147    2.6520   19.3913 H   0  0  0  0  0  0  0  0  0  0  0  0
    5.6991    0.6995   22.1042 H   0  0  0  0  0  0  0  0  0  0  0  0
   11.3889    0.2508   25.5729 H   0  0  0  0  0  0  0  0  0  0  0  0
   11.6930    2.5120   21.9187 H   0  0  0  0  0  0  0  0  0  0  0  0
    4.4051    1.9733   17.4488 H   0  0  0  0  0  0  0  0  0  0  0  0
    8.9221   -0.1995   25.4231 H   0  0  0  0  0  0  0  0  0  0  0  0
   10.0642   -2.2347   21.8253 H   0  0  0  0  0  0  0  0  0  0  0  0
    8.6902   -2.3588   26.5805 H   0  0  0  0  0  0  0  0  0  0  0  0
    9.9254   -4.3921   22.9961 H   0  0  0  0  0  0  0  0  0  0  0  0
    8.4825   -0.7940   18.0623 H   0  0  0  0  0  0  0  0  0  0  0  0
    9.5074   -6.7611   25.4222 H   0  0  0  0  0  0  0  0  0  0  0  0
   10.6088   -5.7902   24.3963 H   0  0  0  0  0  0  0  0  0  0  0  0
    8.8944   -5.9778   23.9424 H   0  0  0  0  0  0  0  0  0  0  0  0
    9.3974    1.2912   24.5523 H   0  0  0  0  0  0  0  0  0  0  0  0
    9.5159    2.2168   23.0553 H   0  0  0  0  0  0  0  0  0  0  0  0
    6.7266    0.4930   16.8305 H   0  0  0  0  0  0  0  0  0  0  0  0
    8.2383   -1.5634   21.0944 H   0  0  0  0  0  0  0  0  0  0  0  0
  1  3  1  0  0  0  0
  1  4  2  0  0  0  0
  2  5  1  0  0  0  0
  2  6  2  0  0  0  0
  3  7  2  0  0  0  0
  4  8  1  0  0  0  0
  5  9  2  0  0  0  0
  6 15  1  0  0  0  0
  7 16  1  0  0  0  0
  8 16  2  0  0  0  0
  9 17  1  0  0  0  0
 10 12  2  0  0  0  0
 10 18  1  0  0  0  0
 11 13  1  0  0  0  0
 11 18  2  0  0  0  0
 12 20  1  0  0  0  0
 13 20  2  0  0  0  0
 14 19  2  0  0  0  0
 14 24  1  0  0  0  0
 15 17  2  0  0  0  0
 15 19  1  0  0  0  0
 16 23  1  0  0  0  0
 17 24  1  0  0  0  0
 18 26  1  0  0  0  0
 19 25  1  0  0  0  0
 20 28  1  0  0  0  0
 21 25  1  0  0  0  0
 21 26  1  0  0  0  0
 21 27  2  0  0  0  0
 22 28  1  0  0  0  0
 23 26  1  0  0  0  0
  1 29  1  0  0  0  0
  2 30  1  0  0  0  0
  3 31  1  0  0  0  0
  4 32  1  0  0  0  0
  5 33  1  0  0  0  0
  6 34  1  0  0  0  0
  7 35  1  0  0  0  0
  8 36  1  0  0  0  0
  9 37  1  0  0  0  0
 10 38  1  0  0  0  0
 11 39  1  0  0  0  0
 12 40  1  0  0  0  0
 13 41  1  0  0  0  0
 14 42  1  0  0  0  0
 22 43  1  0  0  0  0
 22 44  1  0  0  0  0
 22 45  1  0  0  0  0
 23 46  1  0  0  0  0
 23 47  1  0  0  0  0
 24 48  1  0  0  0  0
 25 49  1  0  0  0  0
M  END
> <clash_score>
0

> <docking_score>
-7.983781814575195

> <overlap_score>
0.9642544984817505

$$$$
BENZO_127_1
  -OEChem-08222022173D

 48 51  0     0  0  0  0  0  0999 V2000
    4.2750    1.7050   20.8490 C   0  0  0  0  0  0  0  0  0  0  0  0
    3.9160    2.0630   19.5520 C   0  0  0  0  0  0  0  0  0  0  0  0
    5.4210    0.9600   21.0930 C   0  0  0  0  0  0  0  0  0  0  0  0
    8.9960   -2.3380   25.5320 C   0  0  0  0  0  0  0  0  0  0  0  0
    9.6730   -3.4710   23.5300 C   0  0  0  0  0  0  0  0  0  0  0  0
    4.6890    1.6810   18.4640 C   0  0  0  0  0  0  0  0  0  0  0  0
    9.0720   -1.1280   24.8640 C   0  0  0  0  0  0  0  0  0  0  0  0
    9.7200   -2.2600   22.8630 C   0  0  0  0  0  0  0  0  0  0  0  0
   12.2914    2.2071   23.0512 C   0  0  0  0  0  0  0  0  0  0  0  0
   12.1614    0.6214   24.5689 C   0  0  0  0  0  0  0  0  0  0  0  0
    7.6390   -0.2680   18.5410 C   0  0  0  0  0  0  0  0  0  0  0  0
    6.1790    0.5730   19.9990 C   0  0  0  0  0  0  0  0  0  0  0  0
    9.3070   -3.5340   24.8780 C   0  0  0  0  0  0  0  0  0  0  0  0
   11.3794    1.3761   23.7290 C   0  0  0  0  0  0  0  0  0  0  0  0
    5.8300    0.9190   18.6970 C   0  0  0  0  0  0  0  0  0  0  0  0
    9.3350   -1.0880   23.5010 C   0  0  0  0  0  0  0  0  0  0  0  0
    7.3170   -0.1610   19.8550 C   0  0  0  0  0  0  0  0  0  0  0  0
    9.0420    0.3700   21.5280 C   0  0  0  0  0  0  0  0  0  0  0  0
    9.2505   -4.8264   25.5904 C   0  0  0  0  0  0  0  0  0  0  0  0
   14.6267    0.5248   25.0067 C   0  0  0  0  0  0  0  0  0  0  0  0
    9.8870    1.3260   23.5730 C   0  0  0  0  0  0  0  0  0  0  0  0
   13.5560    2.0002   23.4280 N   0  0  0  0  0  0  0  0  0  0  0  0
    6.7580    0.3810   17.8350 N   0  0  0  0  0  0  0  0  0  0  0  0
   13.4442    1.0306   24.3518 N   0  0  0  0  0  0  0  0  0  0  0  0
    8.1890   -0.7180   20.8700 N   0  0  0  0  0  0  0  0  0  0  0  0
    9.4560    0.1560   22.8130 N   0  0  0  0  0  0  0  0  0  0  0  0
    9.2690    1.4140   20.9380 O   0  0  0  0  0  0  0  0  0  0  0  0
    3.6453    2.0152   21.6831 H   0  0  0  0  0  0  0  0  0  0  0  0
    3.0147    2.6520   19.3913 H   0  0  0  0  0  0  0  0  0  0  0  0
    5.6991    0.6995   22.1042 H   0  0  0  0  0  0  0  0  0  0  0  0
    8.6919   -2.3557   26.5813 H   0  0  0  0  0  0  0  0  0  0  0  0
    9.9267   -4.3907   22.9939 H   0  0  0  0  0  0  0  0  0  0  0  0
    4.4051    1.9733   17.4488 H   0  0  0  0  0  0  0  0  0  0  0  0
    8.9217   -0.1995   25.4231 H   0  0  0  0  0  0  0  0  0  0  0  0
   10.0653   -2.2339   21.8256 H   0  0  0  0  0  0  0  0  0  0  0  0
   12.0895    2.9562   22.2987 H   0  0  0  0  0  0  0  0  0  0  0  0
   11.9201   -0.1519   25.2857 H   0  0  0  0  0  0  0  0  0  0  0  0
    8.4825   -0.7940   18.0623 H   0  0  0  0  0  0  0  0  0  0  0  0
    8.2503   -5.2678   25.5020 H   0  0  0  0  0  0  0  0  0  0  0  0
    9.9817   -5.5374   25.1845 H   0  0  0  0  0  0  0  0  0  0  0  0
    9.4841   -4.7043   26.6562 H   0  0  0  0  0  0  0  0  0  0  0  0
   15.0068   -0.3132   24.4165 H   0  0  0  0  0  0  0  0  0  0  0  0
   15.3758    1.3189   25.0698 H   0  0  0  0  0  0  0  0  0  0  0  0
   14.3676    0.1958   26.0170 H   0  0  0  0  0  0  0  0  0  0  0  0
    9.3974    1.2912   24.5523 H   0  0  0  0  0  0  0  0  0  0  0  0
    9.5159    2.2168   23.0553 H   0  0  0  0  0  0  0  0  0  0  0  0
    6.7266    0.4930   16.8305 H   0  0  0  0  0  0  0  0  0  0  0  0
    8.2383   -1.5634   21.0944 H   0  0  0  0  0  0  0  0  0  0  0  0
  1  2  1  0  0  0  0
  1  3  2  0  0  0  0
  2  6  2  0  0  0  0
  3 12  1  0  0  0  0
  4  7  2  0  0  0  0
  4 13  1  0  0  0  0
  5  8  1  0  0  0  0
  5 13  2  0  0  0  0
  6 15  1  0  0  0  0
  7 16  1  0  0  0  0
  8 16  2  0  0  0  0
  9 14  1  0  0  0  0
  9 22  2  0  0  0  0
 10 14  2  0  0  0  0
 10 24  1  0  0  0  0
 11 17  2  0  0  0  0
 11 23  1  0  0  0  0
 12 15  2  0  0  0  0
 12 17  1  0  0  0  0
 13 19  1  0  0  0  0
 14 21  1  0  0  0  0
 15 23  1  0  0  0  0
 16 26  1  0  0  0  0
 17 25  1  0  0  0  0
 18 25  1  0  0  0  0
 18 26  1  0  0  0  0
 18 27  2  0  0  0  0
 20 24  1  0  0  0  0
 21 26  1  0  0  0  0
 22 24  1  0  0  0  0
  1 28  1  0  0  0  0
  2 29  1  0  0  0  0
  3 30  1  0  0  0  0
  4 31  1  0  0  0  0
  5 32  1  0  0  0  0
  6 33  1  0  0  0  0
  7 34  1  0  0  0  0
  8 35  1  0  0  0  0
  9 36  1  0  0  0  0
 10 37  1  0  0  0  0
 11 38  1  0  0  0  0
 19 39  1  0  0  0  0
 19 40  1  0  0  0  0
 19 41  1  0  0  0  0
 20 42  1  0  0  0  0
 20 43  1  0  0  0  0
 20 44  1  0  0  0  0
 21 45  1  0  0  0  0
 21 46  1  0  0  0  0
 23 47  1  0  0  0  0
 25 48  1  0  0  0  0
M  END
> <clash_score>
0.6199394578048671

> <docking_score>
-7.9856791496276855

> <overlap_score>
0.9382388591766357

$$$$
BENZO_128_1
  -OEChem-08222022173D

 46 49  0     0  0  0  0  0  0999 V2000
    4.2750    1.7050   20.8490 C   0  0  0  0  0  0  0  0  0  0  0  0
    3.9160    2.0630   19.5520 C   0  0  0  0  0  0  0  0  0  0  0  0
    5.4210    0.9600   21.0930 C   0  0  0  0  0  0  0  0  0  0  0  0
    4.6890    1.6810   18.4640 C   0  0  0  0  0  0  0  0  0  0  0  0
    9.0720   -1.1280   24.8640 C   0  0  0  0  0  0  0  0  0  0  0  0
    9.7200   -2.2600   22.8630 C   0  0  0  0  0  0  0  0  0  0  0  0
    8.9960   -2.3380   25.5320 C   0  0  0  0  0  0  0  0  0  0  0  0
    9.6730   -3.4710   23.5300 C   0  0  0  0  0  0  0  0  0  0  0  0
   12.2111    0.2208   23.7905 C   0  0  0  0  0  0  0  0  0  0  0  0
    7.6390   -0.2680   18.5410 C   0  0  0  0  0  0  0  0  0  0  0  0
   13.5412    0.5479   23.9364 C   0  0  0  0  0  0  0  0  0  0  0  0
   12.1057    2.5424   23.8305 C   0  0  0  0  0  0  0  0  0  0  0  0
    6.1790    0.5730   19.9990 C   0  0  0  0  0  0  0  0  0  0  0  0
   11.3794    1.3761   23.7290 C   0  0  0  0  0  0  0  0  0  0  0  0
    5.8300    0.9190   18.6970 C   0  0  0  0  0  0  0  0  0  0  0  0
    9.3350   -1.0880   23.5010 C   0  0  0  0  0  0  0  0  0  0  0  0
    7.3170   -0.1610   19.8550 C   0  0  0  0  0  0  0  0  0  0  0  0
    9.3070   -3.5340   24.8780 C   0  0  0  0  0  0  0  0  0  0  0  0
    9.0420    0.3700   21.5280 C   0  0  0  0  0  0  0  0  0  0  0  0
    9.5894   -5.8809   24.7798 C   0  0  0  0  0  0  0  0  0  0  0  0
    9.8870    1.3260   23.5730 C   0  0  0  0  0  0  0  0  0  0  0  0
    6.7580    0.3810   17.8350 N   0  0  0  0  0  0  0  0  0  0  0  0
    8.1890   -0.7180   20.8700 N   0  0  0  0  0  0  0  0  0  0  0  0
    9.4560    0.1560   22.8130 N   0  0  0  0  0  0  0  0  0  0  0  0
    9.2690    1.4140   20.9380 O   0  0  0  0  0  0  0  0  0  0  0  0
    9.2555   -4.7124   25.5274 O   0  0  0  0  0  0  0  0  0  0  0  0
   13.7831    2.2420   23.9988 S   0  0  0  0  0  0  0  0  0  0  0  0
    3.6453    2.0152   21.6831 H   0  0  0  0  0  0  0  0  0  0  0  0
    3.0147    2.6520   19.3913 H   0  0  0  0  0  0  0  0  0  0  0  0
    5.6991    0.6995   22.1042 H   0  0  0  0  0  0  0  0  0  0  0  0
    4.4051    1.9733   17.4488 H   0  0  0  0  0  0  0  0  0  0  0  0
    8.9221   -0.1995   25.4231 H   0  0  0  0  0  0  0  0  0  0  0  0
   10.0642   -2.2347   21.8253 H   0  0  0  0  0  0  0  0  0  0  0  0
    8.6902   -2.3588   26.5805 H   0  0  0  0  0  0  0  0  0  0  0  0
    9.9254   -4.3921   22.9961 H   0  0  0  0  0  0  0  0  0  0  0  0
   11.8558   -0.8003   23.7315 H   0  0  0  0  0  0  0  0  0  0  0  0
    8.4825   -0.7940   18.0623 H   0  0  0  0  0  0  0  0  0  0  0  0
   14.3824   -0.1267   24.0100 H   0  0  0  0  0  0  0  0  0  0  0  0
   11.7354    3.5581   23.8155 H   0  0  0  0  0  0  0  0  0  0  0  0
    9.5074   -6.7611   25.4222 H   0  0  0  0  0  0  0  0  0  0  0  0
   10.6088   -5.7902   24.3963 H   0  0  0  0  0  0  0  0  0  0  0  0
    8.8944   -5.9778   23.9424 H   0  0  0  0  0  0  0  0  0  0  0  0
    9.3974    1.2912   24.5523 H   0  0  0  0  0  0  0  0  0  0  0  0
    9.5159    2.2168   23.0553 H   0  0  0  0  0  0  0  0  0  0  0  0
    6.7266    0.4930   16.8305 H   0  0  0  0  0  0  0  0  0  0  0  0
    8.2383   -1.5634   21.0944 H   0  0  0  0  0  0  0  0  0  0  0  0
  1  2  1  0  0  0  0
  1  3  2  0  0  0  0
  2  4  2  0  0  0  0
  3 13  1  0  0  0  0
  4 15  1  0  0  0  0
  5  7  2  0  0  0  0
  5 16  1  0  0  0  0
  6  8  1  0  0  0  0
  6 16  2  0  0  0  0
  7 18  1  0  0  0  0
  8 18  2  0  0  0  0
  9 11  2  0  0  0  0
  9 14  1  0  0  0  0
 10 17  2  0  0  0  0
 10 22  1  0  0  0  0
 11 27  1  0  0  0  0
 12 14  2  0  0  0  0
 12 27  1  0  0  0  0
 13 15  2  0  0  0  0
 13 17  1  0  0  0  0
 14 21  1  0  0  0  0
 15 22  1  0  0  0  0
 16 24  1  0  0  0  0
 17 23  1  0  0  0  0
 18 26  1  0  0  0  0
 19 23  1  0  0  0  0
 19 24  1  0  0  0  0
 19 25  2  0  0  0  0
 20 26  1  0  0  0  0
 21 24  1  0  0  0  0
  1 28  1  0  0  0  0
  2 29  1  0  0  0  0
  3 30  1  0  0  0  0
  4 31  1  0  0  0  0
  5 32  1  0  0  0  0
  6 33  1  0  0  0  0
  7 34  1  0  0  0  0
  8 35  1  0  0  0  0
  9 36  1  0  0  0  0
 10 37  1  0  0  0  0
 11 38  1  0  0  0  0
 12 39  1  0  0  0  0
 20 40  1  0  0  0  0
 20 41  1  0  0  0  0
 20 42  1  0  0  0  0
 21 43  1  0  0  0  0
 21 44  1  0  0  0  0
 22 45  1  0  0  0  0
 23 46  1  0  0  0  0
M  END
> <clash_score>
0

> <docking_score>
-7.256956100463867

> <overlap_score>
0.9491581916809082

$$$$
BENZO_130_1
  -OEChem-08222022173D

 49 52  0     0  0  0  0  0  0999 V2000
    4.2750    1.7050   20.8490 C   0  0  0  0  0  0  0  0  0  0  0  0
    3.9160    2.0630   19.5520 C   0  0  0  0  0  0  0  0  0  0  0  0
   13.4006    0.5725   24.7805 C   0  0  0  0  0  0  0  0  0  0  0  0
    5.4210    0.9600   21.0930 C   0  0  0  0  0  0  0  0  0  0  0  0
   12.0141    0.5273   24.6359 C   0  0  0  0  0  0  0  0  0  0  0  0
    4.6890    1.6810   18.4640 C   0  0  0  0  0  0  0  0  0  0  0  0
    9.0720   -1.1280   24.8640 C   0  0  0  0  0  0  0  0  0  0  0  0
    9.7200   -2.2600   22.8630 C   0  0  0  0  0  0  0  0  0  0  0  0
    8.9960   -2.3380   25.5320 C   0  0  0  0  0  0  0  0  0  0  0  0
    9.6730   -3.4710   23.5300 C   0  0  0  0  0  0  0  0  0  0  0  0
   14.1526    1.4666   24.0184 C   0  0  0  0  0  0  0  0  0  0  0  0
   12.1314    2.2702   22.9668 C   0  0  0  0  0  0  0  0  0  0  0  0
    7.6390   -0.2680   18.5410 C   0  0  0  0  0  0  0  0  0  0  0  0
    6.1790    0.5730   19.9990 C   0  0  0  0  0  0  0  0  0  0  0  0
   11.3794    1.3761   23.7290 C   0  0  0  0  0  0  0  0  0  0  0  0
    5.8300    0.9190   18.6970 C   0  0  0  0  0  0  0  0  0  0  0  0
    9.3350   -1.0880   23.5010 C   0  0  0  0  0  0  0  0  0  0  0  0
    7.3170   -0.1610   19.8550 C   0  0  0  0  0  0  0  0  0  0  0  0
    9.3070   -3.5340   24.8780 C   0  0  0  0  0  0  0  0  0  0  0  0
   13.5180    2.3154   23.1115 C   0  0  0  0  0  0  0  0  0  0  0  0
    9.0420    0.3700   21.5280 C   0  0  0  0  0  0  0  0  0  0  0  0
    8.8720   -4.6805   26.9013 C   0  0  0  0  0  0  0  0  0  0  0  0
    9.8870    1.3260   23.5730 C   0  0  0  0  0  0  0  0  0  0  0  0
    6.7580    0.3810   17.8350 N   0  0  0  0  0  0  0  0  0  0  0  0
    8.1890   -0.7180   20.8700 N   0  0  0  0  0  0  0  0  0  0  0  0
    9.4560    0.1560   22.8130 N   0  0  0  0  0  0  0  0  0  0  0  0
    9.2690    1.4140   20.9380 O   0  0  0  0  0  0  0  0  0  0  0  0
    9.2555   -4.7124   25.5274 O   0  0  0  0  0  0  0  0  0  0  0  0
   14.4463    3.4175   22.1707 Cl  0  0  0  0  0  0  0  0  0  0  0  0
    3.6453    2.0152   21.6831 H   0  0  0  0  0  0  0  0  0  0  0  0
    3.0147    2.6520   19.3913 H   0  0  0  0  0  0  0  0  0  0  0  0
   13.8945   -0.0888   25.4867 H   0  0  0  0  0  0  0  0  0  0  0  0
    5.6991    0.6995   22.1042 H   0  0  0  0  0  0  0  0  0  0  0  0
   11.4361   -0.1726   25.2338 H   0  0  0  0  0  0  0  0  0  0  0  0
    4.4051    1.9733   17.4488 H   0  0  0  0  0  0  0  0  0  0  0  0
    8.9221   -0.1995   25.4231 H   0  0  0  0  0  0  0  0  0  0  0  0
   10.0642   -2.2347   21.8253 H   0  0  0  0  0  0  0  0  0  0  0  0
    8.6902   -2.3588   26.5805 H   0  0  0  0  0  0  0  0  0  0  0  0
    9.9254   -4.3921   22.9961 H   0  0  0  0  0  0  0  0  0  0  0  0
   15.2326    1.4907   24.1414 H   0  0  0  0  0  0  0  0  0  0  0  0
   11.6318    2.9303   22.2615 H   0  0  0  0  0  0  0  0  0  0  0  0
    8.4825   -0.7940   18.0623 H   0  0  0  0  0  0  0  0  0  0  0  0
    8.8711   -5.6964   27.3038 H   0  0  0  0  0  0  0  0  0  0  0  0
    7.8758   -4.2402   26.9923 H   0  0  0  0  0  0  0  0  0  0  0  0
    9.5894   -4.0716   27.4566 H   0  0  0  0  0  0  0  0  0  0  0  0
    9.3974    1.2912   24.5523 H   0  0  0  0  0  0  0  0  0  0  0  0
    9.5159    2.2168   23.0553 H   0  0  0  0  0  0  0  0  0  0  0  0
    6.7266    0.4930   16.8305 H   0  0  0  0  0  0  0  0  0  0  0  0
    8.2383   -1.5634   21.0944 H   0  0  0  0  0  0  0  0  0  0  0  0
  1  2  1  0  0  0  0
  1  4  2  0  0  0  0
  2  6  2  0  0  0  0
  3  5  2  0  0  0  0
  3 11  1  0  0  0  0
  4 14  1  0  0  0  0
  5 15  1  0  0  0  0
  6 16  1  0  0  0  0
  7  9  2  0  0  0  0
  7 17  1  0  0  0  0
  8 10  1  0  0  0  0
  8 17  2  0  0  0  0
  9 19  1  0  0  0  0
 10 19  2  0  0  0  0
 11 20  2  0  0  0  0
 12 15  2  0  0  0  0
 12 20  1  0  0  0  0
 13 18  2  0  0  0  0
 13 24  1  0  0  0  0
 14 16  2  0  0  0  0
 14 18  1  0  0  0  0
 15 23  1  0  0  0  0
 16 24  1  0  0  0  0
 17 26  1  0  0  0  0
 18 25  1  0  0  0  0
 19 28  1  0  0  0  0
 20 29  1  0  0  0  0
 21 25  1  0  0  0  0
 21 26  1  0  0  0  0
 21 27  2  0  0  0  0
 22 28  1  0  0  0  0
 23 26  1  0  0  0  0
  1 30  1  0  0  0  0
  2 31  1  0  0  0  0
  3 32  1  0  0  0  0
  4 33  1  0  0  0  0
  5 34  1  0  0  0  0
  6 35  1  0  0  0  0
  7 36  1  0  0  0  0
  8 37  1  0  0  0  0
  9 38  1  0  0  0  0
 10 39  1  0  0  0  0
 11 40  1  0  0  0  0
 12 41  1  0  0  0  0
 13 42  1  0  0  0  0
 22 43  1  0  0  0  0
 22 44  1  0  0  0  0
 22 45  1  0  0  0  0
 23 46  1  0  0  0  0
 23 47  1  0  0  0  0
 24 48  1  0  0  0  0
 25 49  1  0  0  0  0
M  END
> <clash_score>
0

> <docking_score>
-7.1509504318237305

> <overlap_score>
0.9730233550071716

$$$$
BENZO_131_1
  -OEChem-08222022173D

 49 52  0     0  0  0  0  0  0999 V2000
    4.2750    1.7050   20.8490 C   0  0  0  0  0  0  0  0  0  0  0  0
    3.9160    2.0630   19.5520 C   0  0  0  0  0  0  0  0  0  0  0  0
    5.4210    0.9600   21.0930 C   0  0  0  0  0  0  0  0  0  0  0  0
    4.6890    1.6810   18.4640 C   0  0  0  0  0  0  0  0  0  0  0  0
    9.0720   -1.1280   24.8640 C   0  0  0  0  0  0  0  0  0  0  0  0
    9.7200   -2.2600   22.8630 C   0  0  0  0  0  0  0  0  0  0  0  0
    8.9960   -2.3380   25.5320 C   0  0  0  0  0  0  0  0  0  0  0  0
    9.6730   -3.4710   23.5300 C   0  0  0  0  0  0  0  0  0  0  0  0
   12.2914    2.2071   23.0512 C   0  0  0  0  0  0  0  0  0  0  0  0
   12.1614    0.6214   24.5689 C   0  0  0  0  0  0  0  0  0  0  0  0
    7.6390   -0.2680   18.5410 C   0  0  0  0  0  0  0  0  0  0  0  0
    6.1790    0.5730   19.9990 C   0  0  0  0  0  0  0  0  0  0  0  0
   11.3794    1.3761   23.7290 C   0  0  0  0  0  0  0  0  0  0  0  0
    5.8300    0.9190   18.6970 C   0  0  0  0  0  0  0  0  0  0  0  0
    9.3350   -1.0880   23.5010 C   0  0  0  0  0  0  0  0  0  0  0  0
    7.3170   -0.1610   19.8550 C   0  0  0  0  0  0  0  0  0  0  0  0
    9.3070   -3.5340   24.8780 C   0  0  0  0  0  0  0  0  0  0  0  0
    9.0420    0.3700   21.5280 C   0  0  0  0  0  0  0  0  0  0  0  0
   14.6267    0.5248   25.0067 C   0  0  0  0  0  0  0  0  0  0  0  0
    8.8720   -4.6805   26.9013 C   0  0  0  0  0  0  0  0  0  0  0  0
    9.8870    1.3260   23.5730 C   0  0  0  0  0  0  0  0  0  0  0  0
   13.5560    2.0002   23.4280 N   0  0  0  0  0  0  0  0  0  0  0  0
    6.7580    0.3810   17.8350 N   0  0  0  0  0  0  0  0  0  0  0  0
   13.4442    1.0306   24.3518 N   0  0  0  0  0  0  0  0  0  0  0  0
    8.1890   -0.7180   20.8700 N   0  0  0  0  0  0  0  0  0  0  0  0
    9.4560    0.1560   22.8130 N   0  0  0  0  0  0  0  0  0  0  0  0
    9.2690    1.4140   20.9380 O   0  0  0  0  0  0  0  0  0  0  0  0
    9.2555   -4.7124   25.5274 O   0  0  0  0  0  0  0  0  0  0  0  0
    3.6453    2.0152   21.6831 H   0  0  0  0  0  0  0  0  0  0  0  0
    3.0147    2.6520   19.3913 H   0  0  0  0  0  0  0  0  0  0  0  0
    5.6991    0.6995   22.1042 H   0  0  0  0  0  0  0  0  0  0  0  0
    4.4051    1.9733   17.4488 H   0  0  0  0  0  0  0  0  0  0  0  0
    8.9221   -0.1995   25.4231 H   0  0  0  0  0  0  0  0  0  0  0  0
   10.0642   -2.2347   21.8253 H   0  0  0  0  0  0  0  0  0  0  0  0
    8.6902   -2.3588   26.5805 H   0  0  0  0  0  0  0  0  0  0  0  0
    9.9254   -4.3921   22.9961 H   0  0  0  0  0  0  0  0  0  0  0  0
   12.0895    2.9562   22.2987 H   0  0  0  0  0  0  0  0  0  0  0  0
   11.9201   -0.1519   25.2857 H   0  0  0  0  0  0  0  0  0  0  0  0
    8.4825   -0.7940   18.0623 H   0  0  0  0  0  0  0  0  0  0  0  0
   15.0068   -0.3132   24.4165 H   0  0  0  0  0  0  0  0  0  0  0  0
   15.3758    1.3189   25.0698 H   0  0  0  0  0  0  0  0  0  0  0  0
   14.3676    0.1958   26.0170 H   0  0  0  0  0  0  0  0  0  0  0  0
    8.8711   -5.6964   27.3038 H   0  0  0  0  0  0  0  0  0  0  0  0
    7.8758   -4.2402   26.9923 H   0  0  0  0  0  0  0  0  0  0  0  0
    9.5894   -4.0716   27.4566 H   0  0  0  0  0  0  0  0  0  0  0  0
    9.3974    1.2912   24.5523 H   0  0  0  0  0  0  0  0  0  0  0  0
    9.5159    2.2168   23.0553 H   0  0  0  0  0  0  0  0  0  0  0  0
    6.7266    0.4930   16.8305 H   0  0  0  0  0  0  0  0  0  0  0  0
    8.2383   -1.5634   21.0944 H   0  0  0  0  0  0  0  0  0  0  0  0
  1  2  1  0  0  0  0
  1  3  2  0  0  0  0
  2  4  2  0  0  0  0
  3 12  1  0  0  0  0
  4 14  1  0  0  0  0
  5  7  2  0  0  0  0
  5 15  1  0  0  0  0
  6  8  1  0  0  0  0
  6 15  2  0  0  0  0
  7 17  1  0  0  0  0
  8 17  2  0  0  0  0
  9 13  1  0  0  0  0
  9 22  2  0  0  0  0
 10 13  2  0  0  0  0
 10 24  1  0  0  0  0
 11 16  2  0  0  0  0
 11 23  1  0  0  0  0
 12 14  2  0  0  0  0
 12 16  1  0  0  0  0
 13 21  1  0  0  0  0
 14 23  1  0  0  0  0
 15 26  1  0  0  0  0
 16 25  1  0  0  0  0
 17 28  1  0  0  0  0
 18 25  1  0  0  0  0
 18 26  1  0  0  0  0
 18 27  2  0  0  0  0
 19 24  1  0  0  0  0
 20 28  1  0  0  0  0
 21 26  1  0  0  0  0
 22 24  1  0  0  0  0
  1 29  1  0  0  0  0
  2 30  1  0  0  0  0
  3 31  1  0  0  0  0
  4 32  1  0  0  0  0
  5 33  1  0  0  0  0
  6 34  1  0  0  0  0
  7 35  1  0  0  0  0
  8 36  1  0  0  0  0
  9 37  1  0  0  0  0
 10 38  1  0  0  0  0
 11 39  1  0  0  0  0
 19 40  1  0  0  0  0
 19 41  1  0  0  0  0
 19 42  1  0  0  0  0
 20 43  1  0  0  0  0
 20 44  1  0  0  0  0
 20 45  1  0  0  0  0
 21 46  1  0  0  0  0
 21 47  1  0  0  0  0
 23 48  1  0  0  0  0
 25 49  1  0  0  0  0
M  END
> <clash_score>
0.6199394578048671

> <docking_score>
-7.721983909606934

> <overlap_score>
0.9605907201766968

$$$$
BENZO_133_1
  -OEChem-08222022173D

 59 63  0     0  0  0  0  0  0999 V2000
   14.1526    1.4694   24.0176 C   0  0  0  0  0  0  0  0  0  0  0  0
    4.2750    1.7050   20.8490 C   0  0  0  0  0  0  0  0  0  0  0  0
   13.3741    0.8121   24.9701 C   0  0  0  0  0  0  0  0  0  0  0  0
   13.5446    2.0802   22.9208 C   0  0  0  0  0  0  0  0  0  0  0  0
    3.9160    2.0630   19.5520 C   0  0  0  0  0  0  0  0  0  0  0  0
    5.4210    0.9600   21.0930 C   0  0  0  0  0  0  0  0  0  0  0  0
   11.9875    0.7654   24.8259 C   0  0  0  0  0  0  0  0  0  0  0  0
   12.1580    2.0335   22.7765 C   0  0  0  0  0  0  0  0  0  0  0  0
    4.6890    1.6810   18.4640 C   0  0  0  0  0  0  0  0  0  0  0  0
    8.9960   -2.3380   25.5320 C   0  0  0  0  0  0  0  0  0  0  0  0
    9.6730   -3.4710   23.5300 C   0  0  0  0  0  0  0  0  0  0  0  0
    9.0720   -1.1280   24.8640 C   0  0  0  0  0  0  0  0  0  0  0  0
    9.7200   -2.2600   22.8630 C   0  0  0  0  0  0  0  0  0  0  0  0
    7.6390   -0.2680   18.5410 C   0  0  0  0  0  0  0  0  0  0  0  0
    6.1790    0.5730   19.9990 C   0  0  0  0  0  0  0  0  0  0  0  0
   11.3794    1.3761   23.7290 C   0  0  0  0  0  0  0  0  0  0  0  0
    5.8300    0.9190   18.6970 C   0  0  0  0  0  0  0  0  0  0  0  0
    9.3070   -3.5340   24.8780 C   0  0  0  0  0  0  0  0  0  0  0  0
    9.3350   -1.0880   23.5010 C   0  0  0  0  0  0  0  0  0  0  0  0
    7.3170   -0.1610   19.8550 C   0  0  0  0  0  0  0  0  0  0  0  0
    8.3597   -5.0073   26.6307 C   0  0  0  0  0  0  0  0  0  0  0  0
    9.0420    0.3700   21.5280 C   0  0  0  0  0  0  0  0  0  0  0  0
    8.4720   -6.3981   27.2296 C   0  0  0  0  0  0  0  0  0  0  0  0
    9.9252   -6.7605   27.4803 C   0  0  0  0  0  0  0  0  0  0  0  0
   10.7833   -6.6094   26.2282 C   0  0  0  0  0  0  0  0  0  0  0  0
   10.0539   -5.9099   25.0823 C   0  0  0  0  0  0  0  0  0  0  0  0
    9.8870    1.3260   23.5730 C   0  0  0  0  0  0  0  0  0  0  0  0
    6.7580    0.3810   17.8350 N   0  0  0  0  0  0  0  0  0  0  0  0
    9.2529   -4.7797   25.5644 N   0  0  0  0  0  0  0  0  0  0  0  0
    8.1890   -0.7180   20.8700 N   0  0  0  0  0  0  0  0  0  0  0  0
    9.4560    0.1560   22.8130 N   0  0  0  0  0  0  0  0  0  0  0  0
    7.4954   -4.2356   27.0449 O   0  0  0  0  0  0  0  0  0  0  0  0
    9.2690    1.4140   20.9380 O   0  0  0  0  0  0  0  0  0  0  0  0
   15.2322    1.5068   24.1308 H   0  0  0  0  0  0  0  0  0  0  0  0
    3.6453    2.0152   21.6831 H   0  0  0  0  0  0  0  0  0  0  0  0
   13.8473    0.3374   25.8248 H   0  0  0  0  0  0  0  0  0  0  0  0
   14.1503    2.5930   22.1795 H   0  0  0  0  0  0  0  0  0  0  0  0
    3.0147    2.6520   19.3913 H   0  0  0  0  0  0  0  0  0  0  0  0
    5.6991    0.6995   22.1042 H   0  0  0  0  0  0  0  0  0  0  0  0
   11.3889    0.2508   25.5729 H   0  0  0  0  0  0  0  0  0  0  0  0
   11.6930    2.5120   21.9187 H   0  0  0  0  0  0  0  0  0  0  0  0
    4.4051    1.9733   17.4488 H   0  0  0  0  0  0  0  0  0  0  0  0
    8.6895   -2.3529   26.5807 H   0  0  0  0  0  0  0  0  0  0  0  0
    9.9262   -4.3897   22.9916 H   0  0  0  0  0  0  0  0  0  0  0  0
    8.9224   -0.1998   25.4238 H   0  0  0  0  0  0  0  0  0  0  0  0
   10.0649   -2.2343   21.8258 H   0  0  0  0  0  0  0  0  0  0  0  0
    8.4825   -0.7940   18.0623 H   0  0  0  0  0  0  0  0  0  0  0  0
    7.9325   -6.4148   28.1641 H   0  0  0  0  0  0  0  0  0  0  0  0
    8.0254   -7.0920   26.5333 H   0  0  0  0  0  0  0  0  0  0  0  0
   10.3387   -6.1267   28.2923 H   0  0  0  0  0  0  0  0  0  0  0  0
    9.9904   -7.8023   27.8537 H   0  0  0  0  0  0  0  0  0  0  0  0
   11.7037   -6.0404   26.4771 H   0  0  0  0  0  0  0  0  0  0  0  0
   11.1411   -7.6068   25.8918 H   0  0  0  0  0  0  0  0  0  0  0  0
   10.7782   -5.5162   24.3756 H   0  0  0  0  0  0  0  0  0  0  0  0
    9.4042   -6.6189   24.5807 H   0  0  0  0  0  0  0  0  0  0  0  0
    9.3974    1.2912   24.5523 H   0  0  0  0  0  0  0  0  0  0  0  0
    9.5159    2.2168   23.0553 H   0  0  0  0  0  0  0  0  0  0  0  0
    6.7266    0.4930   16.8305 H   0  0  0  0  0  0  0  0  0  0  0  0
    8.2565   -1.5523   21.1108 H   0  0  0  0  0  0  0  0  0  0  0  0
  1  3  1  0  0  0  0
  1  4  2  0  0  0  0
  2  5  1  0  0  0  0
  2  6  2  0  0  0  0
  3  7  2  0  0  0  0
  4  8  1  0  0  0  0
  5  9  2  0  0  0  0
  6 15  1  0  0  0  0
  7 16  1  0  0  0  0
  8 16  2  0  0  0  0
  9 17  1  0  0  0  0
 10 12  2  0  0  0  0
 10 18  1  0  0  0  0
 11 13  1  0  0  0  0
 11 18  2  0  0  0  0
 12 19  1  0  0  0  0
 13 19  2  0  0  0  0
 14 20  2  0  0  0  0
 14 28  1  0  0  0  0
 15 17  2  0  0  0  0
 15 20  1  0  0  0  0
 16 27  1  0  0  0  0
 17 28  1  0  0  0  0
 18 29  1  0  0  0  0
 19 31  1  0  0  0  0
 20 30  1  0  0  0  0
 21 23  1  0  0  0  0
 21 29  1  0  0  0  0
 21 32  2  0  0  0  0
 22 30  1  0  0  0  0
 22 31  1  0  0  0  0
 22 33  2  0  0  0  0
 23 24  1  0  0  0  0
 24 25  1  0  0  0  0
 25 26  1  0  0  0  0
 26 29  1  0  0  0  0
 27 31  1  0  0  0  0
  1 34  1  0  0  0  0
  2 35  1  0  0  0  0
  3 36  1  0  0  0  0
  4 37  1  0  0  0  0
  5 38  1  0  0  0  0
  6 39  1  0  0  0  0
  7 40  1  0  0  0  0
  8 41  1  0  0  0  0
  9 42  1  0  0  0  0
 10 43  1  0  0  0  0
 11 44  1  0  0  0  0
 12 45  1  0  0  0  0
 13 46  1  0  0  0  0
 14 47  1  0  0  0  0
 23 48  1  0  0  0  0
 23 49  1  0  0  0  0
 24 50  1  0  0  0  0
 24 51  1  0  0  0  0
 25 52  1  0  0  0  0
 25 53  1  0  0  0  0
 26 54  1  0  0  0  0
 26 55  1  0  0  0  0
 27 56  1  0  0  0  0
 27 57  1  0  0  0  0
 28 58  1  0  0  0  0
 30 59  1  0  0  0  0
M  END
> <clash_score>
0.7790751876189459

> <docking_score>
-7.373590469360352

> <overlap_score>
1.004102349281311

$$$$
BENZO_132_1
  -OEChem-08222022173D

 56 60  0     0  0  0  0  0  0999 V2000
    4.2750    1.7050   20.8490 C   0  0  0  0  0  0  0  0  0  0  0  0
    3.9160    2.0630   19.5520 C   0  0  0  0  0  0  0  0  0  0  0  0
    5.4210    0.9600   21.0930 C   0  0  0  0  0  0  0  0  0  0  0  0
    4.6890    1.6810   18.4640 C   0  0  0  0  0  0  0  0  0  0  0  0
    8.9960   -2.3380   25.5320 C   0  0  0  0  0  0  0  0  0  0  0  0
    9.6730   -3.4710   23.5300 C   0  0  0  0  0  0  0  0  0  0  0  0
    9.0720   -1.1280   24.8640 C   0  0  0  0  0  0  0  0  0  0  0  0
    9.7200   -2.2600   22.8630 C   0  0  0  0  0  0  0  0  0  0  0  0
   12.2913    1.4279   22.6355 C   0  0  0  0  0  0  0  0  0  0  0  0
    7.6390   -0.2680   18.5410 C   0  0  0  0  0  0  0  0  0  0  0  0
   13.6024    1.4662   23.0564 C   0  0  0  0  0  0  0  0  0  0  0  0
   12.0284    1.3764   24.9443 C   0  0  0  0  0  0  0  0  0  0  0  0
    6.1790    0.5730   19.9990 C   0  0  0  0  0  0  0  0  0  0  0  0
   11.3794    1.3761   23.7290 C   0  0  0  0  0  0  0  0  0  0  0  0
    5.8300    0.9190   18.6970 C   0  0  0  0  0  0  0  0  0  0  0  0
    9.3070   -3.5340   24.8780 C   0  0  0  0  0  0  0  0  0  0  0  0
    9.3350   -1.0880   23.5010 C   0  0  0  0  0  0  0  0  0  0  0  0
    7.3170   -0.1610   19.8550 C   0  0  0  0  0  0  0  0  0  0  0  0
    8.3596   -5.0074   26.6308 C   0  0  0  0  0  0  0  0  0  0  0  0
    9.0420    0.3700   21.5280 C   0  0  0  0  0  0  0  0  0  0  0  0
    8.4579   -6.4047   27.2169 C   0  0  0  0  0  0  0  0  0  0  0  0
    8.4717   -7.4504   26.1159 C   0  0  0  0  0  0  0  0  0  0  0  0
    9.5645   -7.1893   25.0842 C   0  0  0  0  0  0  0  0  0  0  0  0
   10.2327   -5.8252   25.2501 C   0  0  0  0  0  0  0  0  0  0  0  0
    9.8870    1.3260   23.5730 C   0  0  0  0  0  0  0  0  0  0  0  0
    6.7580    0.3810   17.8350 N   0  0  0  0  0  0  0  0  0  0  0  0
    9.2529   -4.7798   25.5645 N   0  0  0  0  0  0  0  0  0  0  0  0
    8.1890   -0.7180   20.8700 N   0  0  0  0  0  0  0  0  0  0  0  0
    9.4560    0.1560   22.8130 N   0  0  0  0  0  0  0  0  0  0  0  0
    7.5990   -4.1865   27.1424 O   0  0  0  0  0  0  0  0  0  0  0  0
    9.2690    1.4140   20.9380 O   0  0  0  0  0  0  0  0  0  0  0  0
   13.7301    1.4394   24.7638 S   0  0  0  0  0  0  0  0  0  0  0  0
    3.6453    2.0152   21.6831 H   0  0  0  0  0  0  0  0  0  0  0  0
    3.0147    2.6520   19.3913 H   0  0  0  0  0  0  0  0  0  0  0  0
    5.6991    0.6995   22.1042 H   0  0  0  0  0  0  0  0  0  0  0  0
    4.4051    1.9733   17.4488 H   0  0  0  0  0  0  0  0  0  0  0  0
    8.6895   -2.3529   26.5807 H   0  0  0  0  0  0  0  0  0  0  0  0
    9.9262   -4.3897   22.9916 H   0  0  0  0  0  0  0  0  0  0  0  0
    8.9224   -0.1998   25.4238 H   0  0  0  0  0  0  0  0  0  0  0  0
   10.0649   -2.2343   21.8258 H   0  0  0  0  0  0  0  0  0  0  0  0
   12.0045    1.4365   21.5915 H   0  0  0  0  0  0  0  0  0  0  0  0
    8.4825   -0.7940   18.0623 H   0  0  0  0  0  0  0  0  0  0  0  0
   14.4914    1.5078   22.4431 H   0  0  0  0  0  0  0  0  0  0  0  0
   11.5886    1.3416   25.9314 H   0  0  0  0  0  0  0  0  0  0  0  0
    9.3706   -6.4745   27.7885 H   0  0  0  0  0  0  0  0  0  0  0  0
    7.6055   -6.5497   27.8636 H   0  0  0  0  0  0  0  0  0  0  0  0
    8.6095   -8.4604   26.5550 H   0  0  0  0  0  0  0  0  0  0  0  0
    7.4835   -7.4763   25.6142 H   0  0  0  0  0  0  0  0  0  0  0  0
   10.3359   -7.9850   25.1531 H   0  0  0  0  0  0  0  0  0  0  0  0
    9.1458   -7.2796   24.0582 H   0  0  0  0  0  0  0  0  0  0  0  0
   10.9408   -5.8640   26.0725 H   0  0  0  0  0  0  0  0  0  0  0  0
   10.7521   -5.5631   24.3347 H   0  0  0  0  0  0  0  0  0  0  0  0
    9.3974    1.2912   24.5523 H   0  0  0  0  0  0  0  0  0  0  0  0
    9.5159    2.2168   23.0553 H   0  0  0  0  0  0  0  0  0  0  0  0
    6.7266    0.4930   16.8305 H   0  0  0  0  0  0  0  0  0  0  0  0
    8.2565   -1.5523   21.1108 H   0  0  0  0  0  0  0  0  0  0  0  0
  1  2  1  0  0  0  0
  1  3  2  0  0  0  0
  2  4  2  0  0  0  0
  3 13  1  0  0  0  0
  4 15  1  0  0  0  0
  5  7  2  0  0  0  0
  5 16  1  0  0  0  0
  6  8  1  0  0  0  0
  6 16  2  0  0  0  0
  7 17  1  0  0  0  0
  8 17  2  0  0  0  0
  9 11  2  0  0  0  0
  9 14  1  0  0  0  0
 10 18  2  0  0  0  0
 10 26  1  0  0  0  0
 11 32  1  0  0  0  0
 12 14  2  0  0  0  0
 12 32  1  0  0  0  0
 13 15  2  0  0  0  0
 13 18  1  0  0  0  0
 14 25  1  0  0  0  0
 15 26  1  0  0  0  0
 16 27  1  0  0  0  0
 17 29  1  0  0  0  0
 18 28  1  0  0  0  0
 19 21  1  0  0  0  0
 19 27  1  0  0  0  0
 19 30  2  0  0  0  0
 20 28  1  0  0  0  0
 20 29  1  0  0  0  0
 20 31  2  0  0  0  0
 21 22  1  0  0  0  0
 22 23  1  0  0  0  0
 23 24  1  0  0  0  0
 24 27  1  0  0  0  0
 25 29  1  0  0  0  0
  1 33  1  0  0  0  0
  2 34  1  0  0  0  0
  3 35  1  0  0  0  0
  4 36  1  0  0  0  0
  5 37  1  0  0  0  0
  6 38  1  0  0  0  0
  7 39  1  0  0  0  0
  8 40  1  0  0  0  0
  9 41  1  0  0  0  0
 10 42  1  0  0  0  0
 11 43  1  0  0  0  0
 12 44  1  0  0  0  0
 21 45  1  0  0  0  0
 21 46  1  0  0  0  0
 22 47  1  0  0  0  0
 22 48  1  0  0  0  0
 23 49  1  0  0  0  0
 23 50  1  0  0  0  0
 24 51  1  0  0  0  0
 24 52  1  0  0  0  0
 25 53  1  0  0  0  0
 25 54  1  0  0  0  0
 26 55  1  0  0  0  0
 28 56  1  0  0  0  0
M  END
> <clash_score>
0.6354466317061015

> <docking_score>
-7.288902282714844

> <overlap_score>
0.9878003001213074

$$$$
BENZO_137_1
  -OEChem-08222022173D

 58 62  0     0  0  0  0  0  0999 V2000
   14.1526    1.4694   24.0176 C   0  0  0  0  0  0  0  0  0  0  0  0
    4.2750    1.7050   20.8490 C   0  0  0  0  0  0  0  0  0  0  0  0
   13.3741    0.8121   24.9701 C   0  0  0  0  0  0  0  0  0  0  0  0
   13.5446    2.0802   22.9208 C   0  0  0  0  0  0  0  0  0  0  0  0
    3.9160    2.0630   19.5520 C   0  0  0  0  0  0  0  0  0  0  0  0
    5.4210    0.9600   21.0930 C   0  0  0  0  0  0  0  0  0  0  0  0
   11.9875    0.7654   24.8259 C   0  0  0  0  0  0  0  0  0  0  0  0
   12.1580    2.0335   22.7765 C   0  0  0  0  0  0  0  0  0  0  0  0
    4.6890    1.6810   18.4640 C   0  0  0  0  0  0  0  0  0  0  0  0
    8.9960   -2.3380   25.5320 C   0  0  0  0  0  0  0  0  0  0  0  0
    9.6730   -3.4710   23.5300 C   0  0  0  0  0  0  0  0  0  0  0  0
    9.0720   -1.1280   24.8640 C   0  0  0  0  0  0  0  0  0  0  0  0
    9.7200   -2.2600   22.8630 C   0  0  0  0  0  0  0  0  0  0  0  0
    7.6390   -0.2680   18.5410 C   0  0  0  0  0  0  0  0  0  0  0  0
    6.1790    0.5730   19.9990 C   0  0  0  0  0  0  0  0  0  0  0  0
   11.3794    1.3761   23.7290 C   0  0  0  0  0  0  0  0  0  0  0  0
    5.8300    0.9190   18.6970 C   0  0  0  0  0  0  0  0  0  0  0  0
    9.3070   -3.5340   24.8780 C   0  0  0  0  0  0  0  0  0  0  0  0
    9.3350   -1.0880   23.5010 C   0  0  0  0  0  0  0  0  0  0  0  0
    7.3170   -0.1610   19.8550 C   0  0  0  0  0  0  0  0  0  0  0  0
    9.0420    0.3700   21.5280 C   0  0  0  0  0  0  0  0  0  0  0  0
   10.0771   -5.0255   26.7193 C   0  0  0  0  0  0  0  0  0  0  0  0
    8.0926   -5.6195   25.4071 C   0  0  0  0  0  0  0  0  0  0  0  0
    9.1933   -4.9428   27.9592 C   0  0  0  0  0  0  0  0  0  0  0  0
    7.2756   -5.5290   26.6967 C   0  0  0  0  0  0  0  0  0  0  0  0
    9.8870    1.3260   23.5730 C   0  0  0  0  0  0  0  0  0  0  0  0
    6.7580    0.3810   17.8350 N   0  0  0  0  0  0  0  0  0  0  0  0
    9.2563   -4.7368   25.5413 N   0  0  0  0  0  0  0  0  0  0  0  0
    8.1890   -0.7180   20.8700 N   0  0  0  0  0  0  0  0  0  0  0  0
    9.4560    0.1560   22.8130 N   0  0  0  0  0  0  0  0  0  0  0  0
    9.2690    1.4140   20.9380 O   0  0  0  0  0  0  0  0  0  0  0  0
    8.0882   -5.8459   27.8324 O   0  0  0  0  0  0  0  0  0  0  0  0
   15.2322    1.5068   24.1308 H   0  0  0  0  0  0  0  0  0  0  0  0
    3.6453    2.0152   21.6831 H   0  0  0  0  0  0  0  0  0  0  0  0
   13.8473    0.3374   25.8248 H   0  0  0  0  0  0  0  0  0  0  0  0
   14.1503    2.5930   22.1795 H   0  0  0  0  0  0  0  0  0  0  0  0
    3.0147    2.6520   19.3913 H   0  0  0  0  0  0  0  0  0  0  0  0
    5.6991    0.6995   22.1042 H   0  0  0  0  0  0  0  0  0  0  0  0
   11.3889    0.2508   25.5729 H   0  0  0  0  0  0  0  0  0  0  0  0
   11.6930    2.5120   21.9187 H   0  0  0  0  0  0  0  0  0  0  0  0
    4.4051    1.9733   17.4488 H   0  0  0  0  0  0  0  0  0  0  0  0
    8.6905   -2.3533   26.5810 H   0  0  0  0  0  0  0  0  0  0  0  0
    9.9266   -4.3896   22.9917 H   0  0  0  0  0  0  0  0  0  0  0  0
    8.9233   -0.1992   25.4232 H   0  0  0  0  0  0  0  0  0  0  0  0
   10.0650   -2.2330   21.8256 H   0  0  0  0  0  0  0  0  0  0  0  0
    8.4825   -0.7940   18.0623 H   0  0  0  0  0  0  0  0  0  0  0  0
   10.9044   -4.3143   26.8097 H   0  0  0  0  0  0  0  0  0  0  0  0
   10.4942   -6.0352   26.6309 H   0  0  0  0  0  0  0  0  0  0  0  0
    8.4337   -6.6478   25.2594 H   0  0  0  0  0  0  0  0  0  0  0  0
    7.4706   -5.3291   24.5580 H   0  0  0  0  0  0  0  0  0  0  0  0
    9.7635   -5.2398   28.8419 H   0  0  0  0  0  0  0  0  0  0  0  0
    8.8236   -3.9269   28.1248 H   0  0  0  0  0  0  0  0  0  0  0  0
    6.8338   -4.5337   26.8232 H   0  0  0  0  0  0  0  0  0  0  0  0
    6.4549   -6.2521   26.6643 H   0  0  0  0  0  0  0  0  0  0  0  0
    9.3974    1.2912   24.5523 H   0  0  0  0  0  0  0  0  0  0  0  0
    9.5159    2.2168   23.0554 H   0  0  0  0  0  0  0  0  0  0  0  0
    6.7266    0.4930   16.8305 H   0  0  0  0  0  0  0  0  0  0  0  0
    8.2383   -1.5634   21.0944 H   0  0  0  0  0  0  0  0  0  0  0  0
  1  3  1  0  0  0  0
  1  4  2  0  0  0  0
  2  5  1  0  0  0  0
  2  6  2  0  0  0  0
  3  7  2  0  0  0  0
  4  8  1  0  0  0  0
  5  9  2  0  0  0  0
  6 15  1  0  0  0  0
  7 16  1  0  0  0  0
  8 16  2  0  0  0  0
  9 17  1  0  0  0  0
 10 12  2  0  0  0  0
 10 18  1  0  0  0  0
 11 13  1  0  0  0  0
 11 18  2  0  0  0  0
 12 19  1  0  0  0  0
 13 19  2  0  0  0  0
 14 20  2  0  0  0  0
 14 27  1  0  0  0  0
 15 17  2  0  0  0  0
 15 20  1  0  0  0  0
 16 26  1  0  0  0  0
 17 27  1  0  0  0  0
 18 28  1  0  0  0  0
 19 30  1  0  0  0  0
 20 29  1  0  0  0  0
 21 29  1  0  0  0  0
 21 30  1  0  0  0  0
 21 31  2  0  0  0  0
 22 24  1  0  0  0  0
 22 28  1  0  0  0  0
 23 25  1  0  0  0  0
 23 28  1  0  0  0  0
 24 32  1  0  0  0  0
 25 32  1  0  0  0  0
 26 30  1  0  0  0  0
  1 33  1  0  0  0  0
  2 34  1  0  0  0  0
  3 35  1  0  0  0  0
  4 36  1  0  0  0  0
  5 37  1  0  0  0  0
  6 38  1  0  0  0  0
  7 39  1  0  0  0  0
  8 40  1  0  0  0  0
  9 41  1  0  0  0  0
 10 42  1  0  0  0  0
 11 43  1  0  0  0  0
 12 44  1  0  0  0  0
 13 45  1  0  0  0  0
 14 46  1  0  0  0  0
 22 47  1  0  0  0  0
 22 48  1  0  0  0  0
 23 49  1  0  0  0  0
 23 50  1  0  0  0  0
 24 51  1  0  0  0  0
 24 52  1  0  0  0  0
 25 53  1  0  0  0  0
 25 54  1  0  0  0  0
 26 55  1  0  0  0  0
 26 56  1  0  0  0  0
 27 57  1  0  0  0  0
 29 58  1  0  0  0  0
M  END
> <clash_score>
0

> <docking_score>
-8.354825019836426

> <overlap_score>
0.990332305431366

$$$$
BENZO_134_1
  -OEChem-08222022173D

 59 63  0     0  0  0  0  0  0999 V2000
    4.2750    1.7050   20.8490 C   0  0  0  0  0  0  0  0  0  0  0  0
    3.9160    2.0630   19.5520 C   0  0  0  0  0  0  0  0  0  0  0  0
   13.4006    0.5725   24.7805 C   0  0  0  0  0  0  0  0  0  0  0  0
    5.4210    0.9600   21.0930 C   0  0  0  0  0  0  0  0  0  0  0  0
   12.0141    0.5273   24.6359 C   0  0  0  0  0  0  0  0  0  0  0  0
    4.6890    1.6810   18.4640 C   0  0  0  0  0  0  0  0  0  0  0  0
    8.9960   -2.3380   25.5320 C   0  0  0  0  0  0  0  0  0  0  0  0
    9.6730   -3.4710   23.5300 C   0  0  0  0  0  0  0  0  0  0  0  0
    9.0720   -1.1280   24.8640 C   0  0  0  0  0  0  0  0  0  0  0  0
    9.7200   -2.2600   22.8630 C   0  0  0  0  0  0  0  0  0  0  0  0
   14.1526    1.4666   24.0184 C   0  0  0  0  0  0  0  0  0  0  0  0
   12.1314    2.2702   22.9668 C   0  0  0  0  0  0  0  0  0  0  0  0
    7.6390   -0.2680   18.5410 C   0  0  0  0  0  0  0  0  0  0  0  0
    6.1790    0.5730   19.9990 C   0  0  0  0  0  0  0  0  0  0  0  0
   11.3794    1.3761   23.7290 C   0  0  0  0  0  0  0  0  0  0  0  0
    5.8300    0.9190   18.6970 C   0  0  0  0  0  0  0  0  0  0  0  0
    9.3070   -3.5340   24.8780 C   0  0  0  0  0  0  0  0  0  0  0  0
    9.3350   -1.0880   23.5010 C   0  0  0  0  0  0  0  0  0  0  0  0
    7.3170   -0.1610   19.8550 C   0  0  0  0  0  0  0  0  0  0  0  0
   13.5180    2.3154   23.1115 C   0  0  0  0  0  0  0  0  0  0  0  0
    8.3597   -5.0073   26.6307 C   0  0  0  0  0  0  0  0  0  0  0  0
    9.0420    0.3700   21.5280 C   0  0  0  0  0  0  0  0  0  0  0  0
    8.4720   -6.3981   27.2296 C   0  0  0  0  0  0  0  0  0  0  0  0
    9.9252   -6.7605   27.4803 C   0  0  0  0  0  0  0  0  0  0  0  0
   10.7833   -6.6094   26.2282 C   0  0  0  0  0  0  0  0  0  0  0  0
   10.0539   -5.9099   25.0823 C   0  0  0  0  0  0  0  0  0  0  0  0
    9.8870    1.3260   23.5730 C   0  0  0  0  0  0  0  0  0  0  0  0
    6.7580    0.3810   17.8350 N   0  0  0  0  0  0  0  0  0  0  0  0
    9.2529   -4.7797   25.5644 N   0  0  0  0  0  0  0  0  0  0  0  0
    8.1890   -0.7180   20.8700 N   0  0  0  0  0  0  0  0  0  0  0  0
    9.4560    0.1560   22.8130 N   0  0  0  0  0  0  0  0  0  0  0  0
    7.4954   -4.2356   27.0449 O   0  0  0  0  0  0  0  0  0  0  0  0
    9.2690    1.4140   20.9380 O   0  0  0  0  0  0  0  0  0  0  0  0
   14.4463    3.4175   22.1707 Cl  0  0  0  0  0  0  0  0  0  0  0  0
    3.6453    2.0152   21.6831 H   0  0  0  0  0  0  0  0  0  0  0  0
    3.0147    2.6520   19.3913 H   0  0  0  0  0  0  0  0  0  0  0  0
   13.8945   -0.0888   25.4867 H   0  0  0  0  0  0  0  0  0  0  0  0
    5.6991    0.6995   22.1042 H   0  0  0  0  0  0  0  0  0  0  0  0
   11.4361   -0.1726   25.2338 H   0  0  0  0  0  0  0  0  0  0  0  0
    4.4051    1.9733   17.4488 H   0  0  0  0  0  0  0  0  0  0  0  0
    8.6895   -2.3529   26.5807 H   0  0  0  0  0  0  0  0  0  0  0  0
    9.9262   -4.3897   22.9916 H   0  0  0  0  0  0  0  0  0  0  0  0
    8.9224   -0.1998   25.4238 H   0  0  0  0  0  0  0  0  0  0  0  0
   10.0649   -2.2343   21.8258 H   0  0  0  0  0  0  0  0  0  0  0  0
   15.2326    1.4907   24.1414 H   0  0  0  0  0  0  0  0  0  0  0  0
   11.6318    2.9303   22.2615 H   0  0  0  0  0  0  0  0  0  0  0  0
    8.4825   -0.7940   18.0623 H   0  0  0  0  0  0  0  0  0  0  0  0
    7.9325   -6.4148   28.1641 H   0  0  0  0  0  0  0  0  0  0  0  0
    8.0254   -7.0920   26.5333 H   0  0  0  0  0  0  0  0  0  0  0  0
   10.3387   -6.1267   28.2923 H   0  0  0  0  0  0  0  0  0  0  0  0
    9.9904   -7.8023   27.8537 H   0  0  0  0  0  0  0  0  0  0  0  0
   11.7037   -6.0404   26.4771 H   0  0  0  0  0  0  0  0  0  0  0  0
   11.1411   -7.6068   25.8918 H   0  0  0  0  0  0  0  0  0  0  0  0
   10.7782   -5.5162   24.3756 H   0  0  0  0  0  0  0  0  0  0  0  0
    9.4042   -6.6189   24.5807 H   0  0  0  0  0  0  0  0  0  0  0  0
    9.3974    1.2912   24.5523 H   0  0  0  0  0  0  0  0  0  0  0  0
    9.5159    2.2168   23.0553 H   0  0  0  0  0  0  0  0  0  0  0  0
    6.7266    0.4930   16.8305 H   0  0  0  0  0  0  0  0  0  0  0  0
    8.2565   -1.5523   21.1108 H   0  0  0  0  0  0  0  0  0  0  0  0
  1  2  1  0  0  0  0
  1  4  2  0  0  0  0
  2  6  2  0  0  0  0
  3  5  2  0  0  0  0
  3 11  1  0  0  0  0
  4 14  1  0  0  0  0
  5 15  1  0  0  0  0
  6 16  1  0  0  0  0
  7  9  2  0  0  0  0
  7 17  1  0  0  0  0
  8 10  1  0  0  0  0
  8 17  2  0  0  0  0
  9 18  1  0  0  0  0
 10 18  2  0  0  0  0
 11 20  2  0  0  0  0
 12 15  2  0  0  0  0
 12 20  1  0  0  0  0
 13 19  2  0  0  0  0
 13 28  1  0  0  0  0
 14 16  2  0  0  0  0
 14 19  1  0  0  0  0
 15 27  1  0  0  0  0
 16 28  1  0  0  0  0
 17 29  1  0  0  0  0
 18 31  1  0  0  0  0
 19 30  1  0  0  0  0
 20 34  1  0  0  0  0
 21 23  1  0  0  0  0
 21 29  1  0  0  0  0
 21 32  2  0  0  0  0
 22 30  1  0  0  0  0
 22 31  1  0  0  0  0
 22 33  2  0  0  0  0
 23 24  1  0  0  0  0
 24 25  1  0  0  0  0
 25 26  1  0  0  0  0
 26 29  1  0  0  0  0
 27 31  1  0  0  0  0
  1 35  1  0  0  0  0
  2 36  1  0  0  0  0
  3 37  1  0  0  0  0
  4 38  1  0  0  0  0
  5 39  1  0  0  0  0
  6 40  1  0  0  0  0
  7 41  1  0  0  0  0
  8 42  1  0  0  0  0
  9 43  1  0  0  0  0
 10 44  1  0  0  0  0
 11 45  1  0  0  0  0
 12 46  1  0  0  0  0
 13 47  1  0  0  0  0
 23 48  1  0  0  0  0
 23 49  1  0  0  0  0
 24 50  1  0  0  0  0
 24 51  1  0  0  0  0
 25 52  1  0  0  0  0
 25 53  1  0  0  0  0
 26 54  1  0  0  0  0
 26 55  1  0  0  0  0
 27 56  1  0  0  0  0
 27 57  1  0  0  0  0
 28 58  1  0  0  0  0
 30 59  1  0  0  0  0
M  END
> <clash_score>
0.7790751876189459

> <docking_score>
-6.510582447052002

> <overlap_score>
1.0151578187942505

$$$$
BENZO_136_1
  -OEChem-08222022173D

 55 59  0     0  0  0  0  0  0999 V2000
    4.2750    1.7050   20.8490 C   0  0  0  0  0  0  0  0  0  0  0  0
    3.9160    2.0630   19.5520 C   0  0  0  0  0  0  0  0  0  0  0  0
    5.4210    0.9600   21.0930 C   0  0  0  0  0  0  0  0  0  0  0  0
    4.6890    1.6810   18.4640 C   0  0  0  0  0  0  0  0  0  0  0  0
    8.9960   -2.3380   25.5320 C   0  0  0  0  0  0  0  0  0  0  0  0
    9.6730   -3.4710   23.5300 C   0  0  0  0  0  0  0  0  0  0  0  0
    9.0720   -1.1280   24.8640 C   0  0  0  0  0  0  0  0  0  0  0  0
    9.7200   -2.2600   22.8630 C   0  0  0  0  0  0  0  0  0  0  0  0
   12.2111    0.2208   23.7905 C   0  0  0  0  0  0  0  0  0  0  0  0
    7.6390   -0.2680   18.5410 C   0  0  0  0  0  0  0  0  0  0  0  0
   13.5412    0.5479   23.9363 C   0  0  0  0  0  0  0  0  0  0  0  0
   12.1057    2.5423   23.8305 C   0  0  0  0  0  0  0  0  0  0  0  0
    6.1790    0.5730   19.9990 C   0  0  0  0  0  0  0  0  0  0  0  0
   11.3794    1.3761   23.7290 C   0  0  0  0  0  0  0  0  0  0  0  0
    5.8300    0.9190   18.6970 C   0  0  0  0  0  0  0  0  0  0  0  0
    9.3070   -3.5340   24.8780 C   0  0  0  0  0  0  0  0  0  0  0  0
    9.3350   -1.0880   23.5010 C   0  0  0  0  0  0  0  0  0  0  0  0
    7.3170   -0.1610   19.8550 C   0  0  0  0  0  0  0  0  0  0  0  0
    9.0420    0.3700   21.5280 C   0  0  0  0  0  0  0  0  0  0  0  0
    9.5174   -4.8598   26.9770 C   0  0  0  0  0  0  0  0  0  0  0  0
    8.5165   -5.8725   24.9807 C   0  0  0  0  0  0  0  0  0  0  0  0
    8.1868   -5.0440   27.6987 C   0  0  0  0  0  0  0  0  0  0  0  0
    7.2200   -6.0347   25.7755 C   0  0  0  0  0  0  0  0  0  0  0  0
    9.8870    1.3260   23.5730 C   0  0  0  0  0  0  0  0  0  0  0  0
    6.7580    0.3810   17.8350 N   0  0  0  0  0  0  0  0  0  0  0  0
    9.2563   -4.7368   25.5413 N   0  0  0  0  0  0  0  0  0  0  0  0
    8.1890   -0.7180   20.8700 N   0  0  0  0  0  0  0  0  0  0  0  0
    9.4560    0.1560   22.8130 N   0  0  0  0  0  0  0  0  0  0  0  0
    9.2690    1.4140   20.9380 O   0  0  0  0  0  0  0  0  0  0  0  0
    7.4994   -6.1853   27.1719 O   0  0  0  0  0  0  0  0  0  0  0  0
   13.7831    2.2420   23.9988 S   0  0  0  0  0  0  0  0  0  0  0  0
    3.6453    2.0152   21.6831 H   0  0  0  0  0  0  0  0  0  0  0  0
    3.0147    2.6520   19.3913 H   0  0  0  0  0  0  0  0  0  0  0  0
    5.6991    0.6995   22.1042 H   0  0  0  0  0  0  0  0  0  0  0  0
    4.4051    1.9733   17.4488 H   0  0  0  0  0  0  0  0  0  0  0  0
    8.6905   -2.3533   26.5810 H   0  0  0  0  0  0  0  0  0  0  0  0
    9.9266   -4.3896   22.9917 H   0  0  0  0  0  0  0  0  0  0  0  0
    8.9233   -0.1992   25.4232 H   0  0  0  0  0  0  0  0  0  0  0  0
   10.0650   -2.2330   21.8256 H   0  0  0  0  0  0  0  0  0  0  0  0
   11.8558   -0.8003   23.7315 H   0  0  0  0  0  0  0  0  0  0  0  0
    8.4825   -0.7940   18.0623 H   0  0  0  0  0  0  0  0  0  0  0  0
   14.3824   -0.1267   24.0100 H   0  0  0  0  0  0  0  0  0  0  0  0
   11.7354    3.5581   23.8155 H   0  0  0  0  0  0  0  0  0  0  0  0
   10.0258   -3.9712   27.3649 H   0  0  0  0  0  0  0  0  0  0  0  0
   10.1569   -5.7320   27.1550 H   0  0  0  0  0  0  0  0  0  0  0  0
    9.1206   -6.7792   25.0738 H   0  0  0  0  0  0  0  0  0  0  0  0
    8.2825   -5.7116   23.9265 H   0  0  0  0  0  0  0  0  0  0  0  0
    8.3628   -5.2253   28.7611 H   0  0  0  0  0  0  0  0  0  0  0  0
    7.5530   -4.1571   27.6103 H   0  0  0  0  0  0  0  0  0  0  0  0
    6.5459   -5.1839   25.6220 H   0  0  0  0  0  0  0  0  0  0  0  0
    6.6948   -6.9354   25.4435 H   0  0  0  0  0  0  0  0  0  0  0  0
    9.3974    1.2912   24.5523 H   0  0  0  0  0  0  0  0  0  0  0  0
    9.5159    2.2168   23.0554 H   0  0  0  0  0  0  0  0  0  0  0  0
    6.7266    0.4930   16.8305 H   0  0  0  0  0  0  0  0  0  0  0  0
    8.2383   -1.5634   21.0944 H   0  0  0  0  0  0  0  0  0  0  0  0
  1  2  1  0  0  0  0
  1  3  2  0  0  0  0
  2  4  2  0  0  0  0
  3 13  1  0  0  0  0
  4 15  1  0  0  0  0
  5  7  2  0  0  0  0
  5 16  1  0  0  0  0
  6  8  1  0  0  0  0
  6 16  2  0  0  0  0
  7 17  1  0  0  0  0
  8 17  2  0  0  0  0
  9 11  2  0  0  0  0
  9 14  1  0  0  0  0
 10 18  2  0  0  0  0
 10 25  1  0  0  0  0
 11 31  1  0  0  0  0
 12 14  2  0  0  0  0
 12 31  1  0  0  0  0
 13 15  2  0  0  0  0
 13 18  1  0  0  0  0
 14 24  1  0  0  0  0
 15 25  1  0  0  0  0
 16 26  1  0  0  0  0
 17 28  1  0  0  0  0
 18 27  1  0  0  0  0
 19 27  1  0  0  0  0
 19 28  1  0  0  0  0
 19 29  2  0  0  0  0
 20 22  1  0  0  0  0
 20 26  1  0  0  0  0
 21 23  1  0  0  0  0
 21 26  1  0  0  0  0
 22 30  1  0  0  0  0
 23 30  1  0  0  0  0
 24 28  1  0  0  0  0
  1 32  1  0  0  0  0
  2 33  1  0  0  0  0
  3 34  1  0  0  0  0
  4 35  1  0  0  0  0
  5 36  1  0  0  0  0
  6 37  1  0  0  0  0
  7 38  1  0  0  0  0
  8 39  1  0  0  0  0
  9 40  1  0  0  0  0
 10 41  1  0  0  0  0
 11 42  1  0  0  0  0
 12 43  1  0  0  0  0
 20 44  1  0  0  0  0
 20 45  1  0  0  0  0
 21 46  1  0  0  0  0
 21 47  1  0  0  0  0
 22 48  1  0  0  0  0
 22 49  1  0  0  0  0
 23 50  1  0  0  0  0
 23 51  1  0  0  0  0
 24 52  1  0  0  0  0
 24 53  1  0  0  0  0
 25 54  1  0  0  0  0
 27 55  1  0  0  0  0
M  END
> <clash_score>
0

> <docking_score>
-7.590070724487305

> <overlap_score>
0.9791505932807922

$$$$
BENZO_135_1
  -OEChem-08222022173D

 59 63  0     0  0  0  0  0  0999 V2000
    4.2750    1.7050   20.8490 C   0  0  0  0  0  0  0  0  0  0  0  0
    3.9160    2.0630   19.5520 C   0  0  0  0  0  0  0  0  0  0  0  0
    5.4210    0.9600   21.0930 C   0  0  0  0  0  0  0  0  0  0  0  0
    4.6890    1.6810   18.4640 C   0  0  0  0  0  0  0  0  0  0  0  0
    8.9960   -2.3380   25.5320 C   0  0  0  0  0  0  0  0  0  0  0  0
    9.6730   -3.4710   23.5300 C   0  0  0  0  0  0  0  0  0  0  0  0
    9.0720   -1.1280   24.8640 C   0  0  0  0  0  0  0  0  0  0  0  0
    9.7200   -2.2600   22.8630 C   0  0  0  0  0  0  0  0  0  0  0  0
   12.1233    1.3811   24.9242 C   0  0  0  0  0  0  0  0  0  0  0  0
   12.3262    1.4247   22.7351 C   0  0  0  0  0  0  0  0  0  0  0  0
    7.6390   -0.2680   18.5410 C   0  0  0  0  0  0  0  0  0  0  0  0
    6.1790    0.5730   19.9990 C   0  0  0  0  0  0  0  0  0  0  0  0
   11.3794    1.3761   23.7290 C   0  0  0  0  0  0  0  0  0  0  0  0
    5.8300    0.9190   18.6970 C   0  0  0  0  0  0  0  0  0  0  0  0
    9.3070   -3.5340   24.8780 C   0  0  0  0  0  0  0  0  0  0  0  0
    9.3350   -1.0880   23.5010 C   0  0  0  0  0  0  0  0  0  0  0  0
    7.3170   -0.1610   19.8550 C   0  0  0  0  0  0  0  0  0  0  0  0
    8.3597   -5.0073   26.6307 C   0  0  0  0  0  0  0  0  0  0  0  0
    9.0420    0.3700   21.5280 C   0  0  0  0  0  0  0  0  0  0  0  0
    8.4720   -6.3981   27.2296 C   0  0  0  0  0  0  0  0  0  0  0  0
    9.9252   -6.7605   27.4803 C   0  0  0  0  0  0  0  0  0  0  0  0
   10.7833   -6.6094   26.2282 C   0  0  0  0  0  0  0  0  0  0  0  0
   10.0539   -5.9099   25.0823 C   0  0  0  0  0  0  0  0  0  0  0  0
   14.8305    1.5084   22.7418 C   0  0  0  0  0  0  0  0  0  0  0  0
    9.8870    1.3260   23.5730 C   0  0  0  0  0  0  0  0  0  0  0  0
   13.4410    1.4289   24.7112 N   0  0  0  0  0  0  0  0  0  0  0  0
    6.7580    0.3810   17.8350 N   0  0  0  0  0  0  0  0  0  0  0  0
   13.5326    1.4543   23.3706 N   0  0  0  0  0  0  0  0  0  0  0  0
    9.2529   -4.7797   25.5644 N   0  0  0  0  0  0  0  0  0  0  0  0
    8.1890   -0.7180   20.8700 N   0  0  0  0  0  0  0  0  0  0  0  0
    9.4560    0.1560   22.8130 N   0  0  0  0  0  0  0  0  0  0  0  0
    7.4954   -4.2356   27.0449 O   0  0  0  0  0  0  0  0  0  0  0  0
    9.2690    1.4140   20.9380 O   0  0  0  0  0  0  0  0  0  0  0  0
    3.6453    2.0152   21.6831 H   0  0  0  0  0  0  0  0  0  0  0  0
    3.0147    2.6520   19.3913 H   0  0  0  0  0  0  0  0  0  0  0  0
    5.6991    0.6995   22.1042 H   0  0  0  0  0  0  0  0  0  0  0  0
    4.4051    1.9733   17.4488 H   0  0  0  0  0  0  0  0  0  0  0  0
    8.6895   -2.3529   26.5807 H   0  0  0  0  0  0  0  0  0  0  0  0
    9.9262   -4.3897   22.9916 H   0  0  0  0  0  0  0  0  0  0  0  0
    8.9224   -0.1998   25.4238 H   0  0  0  0  0  0  0  0  0  0  0  0
   10.0649   -2.2343   21.8258 H   0  0  0  0  0  0  0  0  0  0  0  0
   11.7624    1.3510   25.9426 H   0  0  0  0  0  0  0  0  0  0  0  0
   12.2462    1.4390   21.6566 H   0  0  0  0  0  0  0  0  0  0  0  0
    8.4825   -0.7940   18.0623 H   0  0  0  0  0  0  0  0  0  0  0  0
    7.9325   -6.4148   28.1641 H   0  0  0  0  0  0  0  0  0  0  0  0
    8.0254   -7.0920   26.5333 H   0  0  0  0  0  0  0  0  0  0  0  0
   10.3387   -6.1267   28.2923 H   0  0  0  0  0  0  0  0  0  0  0  0
    9.9904   -7.8023   27.8537 H   0  0  0  0  0  0  0  0  0  0  0  0
   11.7037   -6.0404   26.4771 H   0  0  0  0  0  0  0  0  0  0  0  0
   11.1411   -7.6068   25.8918 H   0  0  0  0  0  0  0  0  0  0  0  0
   10.7782   -5.5162   24.3756 H   0  0  0  0  0  0  0  0  0  0  0  0
    9.4042   -6.6189   24.5807 H   0  0  0  0  0  0  0  0  0  0  0  0
   15.0990    2.5601   22.6124 H   0  0  0  0  0  0  0  0  0  0  0  0
   15.5636    1.0018   23.3756 H   0  0  0  0  0  0  0  0  0  0  0  0
   14.7842    1.0025   21.7733 H   0  0  0  0  0  0  0  0  0  0  0  0
    9.3974    1.2912   24.5523 H   0  0  0  0  0  0  0  0  0  0  0  0
    9.5159    2.2168   23.0553 H   0  0  0  0  0  0  0  0  0  0  0  0
    6.7266    0.4930   16.8305 H   0  0  0  0  0  0  0  0  0  0  0  0
    8.2565   -1.5523   21.1108 H   0  0  0  0  0  0  0  0  0  0  0  0
  1  2  1  0  0  0  0
  1  3  2  0  0  0  0
  2  4  2  0  0  0  0
  3 12  1  0  0  0  0
  4 14  1  0  0  0  0
  5  7  2  0  0  0  0
  5 15  1  0  0  0  0
  6  8  1  0  0  0  0
  6 15  2  0  0  0  0
  7 16  1  0  0  0  0
  8 16  2  0  0  0  0
  9 13  1  0  0  0  0
  9 26  2  0  0  0  0
 10 13  2  0  0  0  0
 10 28  1  0  0  0  0
 11 17  2  0  0  0  0
 11 27  1  0  0  0  0
 12 14  2  0  0  0  0
 12 17  1  0  0  0  0
 13 25  1  0  0  0  0
 14 27  1  0  0  0  0
 15 29  1  0  0  0  0
 16 31  1  0  0  0  0
 17 30  1  0  0  0  0
 18 20  1  0  0  0  0
 18 29  1  0  0  0  0
 18 32  2  0  0  0  0
 19 30  1  0  0  0  0
 19 31  1  0  0  0  0
 19 33  2  0  0  0  0
 20 21  1  0  0  0  0
 21 22  1  0  0  0  0
 22 23  1  0  0  0  0
 23 29  1  0  0  0  0
 24 28  1  0  0  0  0
 25 31  1  0  0  0  0
 26 28  1  0  0  0  0
  1 34  1  0  0  0  0
  2 35  1  0  0  0  0
  3 36  1  0  0  0  0
  4 37  1  0  0  0  0
  5 38  1  0  0  0  0
  6 39  1  0  0  0  0
  7 40  1  0  0  0  0
  8 41  1  0  0  0  0
  9 42  1  0  0  0  0
 10 43  1  0  0  0  0
 11 44  1  0  0  0  0
 20 45  1  0  0  0  0
 20 46  1  0  0  0  0
 21 47  1  0  0  0  0
 21 48  1  0  0  0  0
 22 49  1  0  0  0  0
 22 50  1  0  0  0  0
 23 51  1  0  0  0  0
 23 52  1  0  0  0  0
 24 53  1  0  0  0  0
 24 54  1  0  0  0  0
 24 55  1  0  0  0  0
 25 56  1  0  0  0  0
 25 57  1  0  0  0  0
 27 58  1  0  0  0  0
 30 59  1  0  0  0  0
M  END
> <clash_score>
0.7790751876189459

> <docking_score>
-7.089748382568359

> <overlap_score>
0.9990366101264954

$$$$
BENZO_138_1
  -OEChem-08222022173D

 58 62  0     0  0  0  0  0  0999 V2000
    4.2750    1.7050   20.8490 C   0  0  0  0  0  0  0  0  0  0  0  0
    3.9160    2.0630   19.5520 C   0  0  0  0  0  0  0  0  0  0  0  0
   13.4007    0.5725   24.7805 C   0  0  0  0  0  0  0  0  0  0  0  0
    5.4210    0.9600   21.0930 C   0  0  0  0  0  0  0  0  0  0  0  0
   12.0141    0.5273   24.6359 C   0  0  0  0  0  0  0  0  0  0  0  0
    4.6890    1.6810   18.4640 C   0  0  0  0  0  0  0  0  0  0  0  0
    8.9960   -2.3380   25.5320 C   0  0  0  0  0  0  0  0  0  0  0  0
    9.6730   -3.4710   23.5300 C   0  0  0  0  0  0  0  0  0  0  0  0
    9.0720   -1.1280   24.8640 C   0  0  0  0  0  0  0  0  0  0  0  0
    9.7200   -2.2600   22.8630 C   0  0  0  0  0  0  0  0  0  0  0  0
   14.1526    1.4666   24.0184 C   0  0  0  0  0  0  0  0  0  0  0  0
   12.1314    2.2702   22.9668 C   0  0  0  0  0  0  0  0  0  0  0  0
    7.6390   -0.2680   18.5410 C   0  0  0  0  0  0  0  0  0  0  0  0
    6.1790    0.5730   19.9990 C   0  0  0  0  0  0  0  0  0  0  0  0
   11.3794    1.3761   23.7290 C   0  0  0  0  0  0  0  0  0  0  0  0
    5.8300    0.9190   18.6970 C   0  0  0  0  0  0  0  0  0  0  0  0
    9.3070   -3.5340   24.8780 C   0  0  0  0  0  0  0  0  0  0  0  0
    9.3350   -1.0880   23.5010 C   0  0  0  0  0  0  0  0  0  0  0  0
    7.3170   -0.1610   19.8550 C   0  0  0  0  0  0  0  0  0  0  0  0
   13.5180    2.3154   23.1115 C   0  0  0  0  0  0  0  0  0  0  0  0
    9.0420    0.3700   21.5280 C   0  0  0  0  0  0  0  0  0  0  0  0
   10.0771   -5.0255   26.7193 C   0  0  0  0  0  0  0  0  0  0  0  0
    8.0926   -5.6195   25.4071 C   0  0  0  0  0  0  0  0  0  0  0  0
    9.1933   -4.9428   27.9592 C   0  0  0  0  0  0  0  0  0  0  0  0
    7.2756   -5.5290   26.6967 C   0  0  0  0  0  0  0  0  0  0  0  0
    9.8870    1.3260   23.5730 C   0  0  0  0  0  0  0  0  0  0  0  0
    6.7580    0.3810   17.8350 N   0  0  0  0  0  0  0  0  0  0  0  0
    9.2563   -4.7368   25.5413 N   0  0  0  0  0  0  0  0  0  0  0  0
    8.1890   -0.7180   20.8700 N   0  0  0  0  0  0  0  0  0  0  0  0
    9.4560    0.1560   22.8130 N   0  0  0  0  0  0  0  0  0  0  0  0
    9.2690    1.4140   20.9380 O   0  0  0  0  0  0  0  0  0  0  0  0
    8.0882   -5.8459   27.8324 O   0  0  0  0  0  0  0  0  0  0  0  0
   14.4463    3.4175   22.1707 Cl  0  0  0  0  0  0  0  0  0  0  0  0
    3.6453    2.0152   21.6831 H   0  0  0  0  0  0  0  0  0  0  0  0
    3.0147    2.6520   19.3913 H   0  0  0  0  0  0  0  0  0  0  0  0
   13.8945   -0.0888   25.4867 H   0  0  0  0  0  0  0  0  0  0  0  0
    5.6991    0.6995   22.1042 H   0  0  0  0  0  0  0  0  0  0  0  0
   11.4361   -0.1726   25.2338 H   0  0  0  0  0  0  0  0  0  0  0  0
    4.4051    1.9733   17.4488 H   0  0  0  0  0  0  0  0  0  0  0  0
    8.6905   -2.3533   26.5810 H   0  0  0  0  0  0  0  0  0  0  0  0
    9.9266   -4.3896   22.9917 H   0  0  0  0  0  0  0  0  0  0  0  0
    8.9233   -0.1992   25.4232 H   0  0  0  0  0  0  0  0  0  0  0  0
   10.0650   -2.2330   21.8256 H   0  0  0  0  0  0  0  0  0  0  0  0
   15.2326    1.4907   24.1414 H   0  0  0  0  0  0  0  0  0  0  0  0
   11.6318    2.9303   22.2615 H   0  0  0  0  0  0  0  0  0  0  0  0
    8.4825   -0.7940   18.0623 H   0  0  0  0  0  0  0  0  0  0  0  0
   10.9044   -4.3143   26.8097 H   0  0  0  0  0  0  0  0  0  0  0  0
   10.4942   -6.0352   26.6309 H   0  0  0  0  0  0  0  0  0  0  0  0
    8.4337   -6.6478   25.2594 H   0  0  0  0  0  0  0  0  0  0  0  0
    7.4706   -5.3291   24.5580 H   0  0  0  0  0  0  0  0  0  0  0  0
    9.7635   -5.2398   28.8419 H   0  0  0  0  0  0  0  0  0  0  0  0
    8.8236   -3.9269   28.1248 H   0  0  0  0  0  0  0  0  0  0  0  0
    6.8338   -4.5337   26.8232 H   0  0  0  0  0  0  0  0  0  0  0  0
    6.4549   -6.2521   26.6643 H   0  0  0  0  0  0  0  0  0  0  0  0
    9.3974    1.2912   24.5523 H   0  0  0  0  0  0  0  0  0  0  0  0
    9.5159    2.2168   23.0554 H   0  0  0  0  0  0  0  0  0  0  0  0
    6.7266    0.4930   16.8305 H   0  0  0  0  0  0  0  0  0  0  0  0
    8.2383   -1.5634   21.0944 H   0  0  0  0  0  0  0  0  0  0  0  0
  1  2  1  0  0  0  0
  1  4  2  0  0  0  0
  2  6  2  0  0  0  0
  3  5  2  0  0  0  0
  3 11  1  0  0  0  0
  4 14  1  0  0  0  0
  5 15  1  0  0  0  0
  6 16  1  0  0  0  0
  7  9  2  0  0  0  0
  7 17  1  0  0  0  0
  8 10  1  0  0  0  0
  8 17  2  0  0  0  0
  9 18  1  0  0  0  0
 10 18  2  0  0  0  0
 11 20  2  0  0  0  0
 12 15  2  0  0  0  0
 12 20  1  0  0  0  0
 13 19  2  0  0  0  0
 13 27  1  0  0  0  0
 14 16  2  0  0  0  0
 14 19  1  0  0  0  0
 15 26  1  0  0  0  0
 16 27  1  0  0  0  0
 17 28  1  0  0  0  0
 18 30  1  0  0  0  0
 19 29  1  0  0  0  0
 20 33  1  0  0  0  0
 21 29  1  0  0  0  0
 21 30  1  0  0  0  0
 21 31  2  0  0  0  0
 22 24  1  0  0  0  0
 22 28  1  0  0  0  0
 23 25  1  0  0  0  0
 23 28  1  0  0  0  0
 24 32  1  0  0  0  0
 25 32  1  0  0  0  0
 26 30  1  0  0  0  0
  1 34  1  0  0  0  0
  2 35  1  0  0  0  0
  3 36  1  0  0  0  0
  4 37  1  0  0  0  0
  5 38  1  0  0  0  0
  6 39  1  0  0  0  0
  7 40  1  0  0  0  0
  8 41  1  0  0  0  0
  9 42  1  0  0  0  0
 10 43  1  0  0  0  0
 11 44  1  0  0  0  0
 12 45  1  0  0  0  0
 13 46  1  0  0  0  0
 22 47  1  0  0  0  0
 22 48  1  0  0  0  0
 23 49  1  0  0  0  0
 23 50  1  0  0  0  0
 24 51  1  0  0  0  0
 24 52  1  0  0  0  0
 25 53  1  0  0  0  0
 25 54  1  0  0  0  0
 26 55  1  0  0  0  0
 26 56  1  0  0  0  0
 27 57  1  0  0  0  0
 29 58  1  0  0  0  0
M  END
> <clash_score>
0

> <docking_score>
-7.491803169250488

> <overlap_score>
1.001426100730896

$$$$
BENZO_139_1
  -OEChem-08222022173D

 58 62  0     0  0  0  0  0  0999 V2000
    4.2750    1.7050   20.8490 C   0  0  0  0  0  0  0  0  0  0  0  0
    3.9160    2.0630   19.5520 C   0  0  0  0  0  0  0  0  0  0  0  0
    5.4210    0.9600   21.0930 C   0  0  0  0  0  0  0  0  0  0  0  0
    4.6890    1.6810   18.4640 C   0  0  0  0  0  0  0  0  0  0  0  0
    8.9960   -2.3380   25.5320 C   0  0  0  0  0  0  0  0  0  0  0  0
    9.6730   -3.4710   23.5300 C   0  0  0  0  0  0  0  0  0  0  0  0
    9.0720   -1.1280   24.8640 C   0  0  0  0  0  0  0  0  0  0  0  0
    9.7200   -2.2600   22.8630 C   0  0  0  0  0  0  0  0  0  0  0  0
   12.2914    2.2071   23.0512 C   0  0  0  0  0  0  0  0  0  0  0  0
   12.1614    0.6214   24.5689 C   0  0  0  0  0  0  0  0  0  0  0  0
    7.6390   -0.2680   18.5410 C   0  0  0  0  0  0  0  0  0  0  0  0
    6.1790    0.5730   19.9990 C   0  0  0  0  0  0  0  0  0  0  0  0
   11.3794    1.3761   23.7290 C   0  0  0  0  0  0  0  0  0  0  0  0
    5.8300    0.9190   18.6970 C   0  0  0  0  0  0  0  0  0  0  0  0
    9.3070   -3.5340   24.8780 C   0  0  0  0  0  0  0  0  0  0  0  0
    9.3350   -1.0880   23.5010 C   0  0  0  0  0  0  0  0  0  0  0  0
    7.3170   -0.1610   19.8550 C   0  0  0  0  0  0  0  0  0  0  0  0
    9.0420    0.3700   21.5280 C   0  0  0  0  0  0  0  0  0  0  0  0
   10.0771   -5.0255   26.7193 C   0  0  0  0  0  0  0  0  0  0  0  0
    8.0926   -5.6195   25.4071 C   0  0  0  0  0  0  0  0  0  0  0  0
    9.1933   -4.9428   27.9592 C   0  0  0  0  0  0  0  0  0  0  0  0
    7.2756   -5.5290   26.6967 C   0  0  0  0  0  0  0  0  0  0  0  0
   14.6267    0.5248   25.0067 C   0  0  0  0  0  0  0  0  0  0  0  0
    9.8870    1.3260   23.5730 C   0  0  0  0  0  0  0  0  0  0  0  0
   13.5560    2.0002   23.4280 N   0  0  0  0  0  0  0  0  0  0  0  0
    6.7580    0.3810   17.8350 N   0  0  0  0  0  0  0  0  0  0  0  0
   13.4442    1.0306   24.3518 N   0  0  0  0  0  0  0  0  0  0  0  0
    9.2563   -4.7368   25.5413 N   0  0  0  0  0  0  0  0  0  0  0  0
    8.1890   -0.7180   20.8700 N   0  0  0  0  0  0  0  0  0  0  0  0
    9.4560    0.1560   22.8130 N   0  0  0  0  0  0  0  0  0  0  0  0
    9.2690    1.4140   20.9380 O   0  0  0  0  0  0  0  0  0  0  0  0
    8.0882   -5.8459   27.8324 O   0  0  0  0  0  0  0  0  0  0  0  0
    3.6453    2.0152   21.6831 H   0  0  0  0  0  0  0  0  0  0  0  0
    3.0147    2.6520   19.3913 H   0  0  0  0  0  0  0  0  0  0  0  0
    5.6991    0.6995   22.1042 H   0  0  0  0  0  0  0  0  0  0  0  0
    4.4051    1.9733   17.4488 H   0  0  0  0  0  0  0  0  0  0  0  0
    8.6905   -2.3533   26.5810 H   0  0  0  0  0  0  0  0  0  0  0  0
    9.9266   -4.3896   22.9917 H   0  0  0  0  0  0  0  0  0  0  0  0
    8.9233   -0.1992   25.4232 H   0  0  0  0  0  0  0  0  0  0  0  0
   10.0650   -2.2330   21.8256 H   0  0  0  0  0  0  0  0  0  0  0  0
   12.0895    2.9562   22.2987 H   0  0  0  0  0  0  0  0  0  0  0  0
   11.9201   -0.1518   25.2857 H   0  0  0  0  0  0  0  0  0  0  0  0
    8.4825   -0.7940   18.0623 H   0  0  0  0  0  0  0  0  0  0  0  0
   10.9044   -4.3143   26.8097 H   0  0  0  0  0  0  0  0  0  0  0  0
   10.4942   -6.0352   26.6309 H   0  0  0  0  0  0  0  0  0  0  0  0
    8.4337   -6.6478   25.2594 H   0  0  0  0  0  0  0  0  0  0  0  0
    7.4706   -5.3291   24.5580 H   0  0  0  0  0  0  0  0  0  0  0  0
    9.7635   -5.2398   28.8419 H   0  0  0  0  0  0  0  0  0  0  0  0
    8.8236   -3.9269   28.1248 H   0  0  0  0  0  0  0  0  0  0  0  0
    6.8338   -4.5337   26.8232 H   0  0  0  0  0  0  0  0  0  0  0  0
    6.4549   -6.2521   26.6643 H   0  0  0  0  0  0  0  0  0  0  0  0
   15.0068   -0.3132   24.4165 H   0  0  0  0  0  0  0  0  0  0  0  0
   15.3758    1.3189   25.0699 H   0  0  0  0  0  0  0  0  0  0  0  0
   14.3676    0.1958   26.0170 H   0  0  0  0  0  0  0  0  0  0  0  0
    9.3974    1.2912   24.5523 H   0  0  0  0  0  0  0  0  0  0  0  0
    9.5159    2.2168   23.0554 H   0  0  0  0  0  0  0  0  0  0  0  0
    6.7266    0.4930   16.8305 H   0  0  0  0  0  0  0  0  0  0  0  0
    8.2383   -1.5634   21.0944 H   0  0  0  0  0  0  0  0  0  0  0  0
  1  2  1  0  0  0  0
  1  3  2  0  0  0  0
  2  4  2  0  0  0  0
  3 12  1  0  0  0  0
  4 14  1  0  0  0  0
  5  7  2  0  0  0  0
  5 15  1  0  0  0  0
  6  8  1  0  0  0  0
  6 15  2  0  0  0  0
  7 16  1  0  0  0  0
  8 16  2  0  0  0  0
  9 13  1  0  0  0  0
  9 25  2  0  0  0  0
 10 13  2  0  0  0  0
 10 27  1  0  0  0  0
 11 17  2  0  0  0  0
 11 26  1  0  0  0  0
 12 14  2  0  0  0  0
 12 17  1  0  0  0  0
 13 24  1  0  0  0  0
 14 26  1  0  0  0  0
 15 28  1  0  0  0  0
 16 30  1  0  0  0  0
 17 29  1  0  0  0  0
 18 29  1  0  0  0  0
 18 30  1  0  0  0  0
 18 31  2  0  0  0  0
 19 21  1  0  0  0  0
 19 28  1  0  0  0  0
 20 22  1  0  0  0  0
 20 28  1  0  0  0  0
 21 32  1  0  0  0  0
 22 32  1  0  0  0  0
 23 27  1  0  0  0  0
 24 30  1  0  0  0  0
 25 27  1  0  0  0  0
  1 33  1  0  0  0  0
  2 34  1  0  0  0  0
  3 35  1  0  0  0  0
  4 36  1  0  0  0  0
  5 37  1  0  0  0  0
  6 38  1  0  0  0  0
  7 39  1  0  0  0  0
  8 40  1  0  0  0  0
  9 41  1  0  0  0  0
 10 42  1  0  0  0  0
 11 43  1  0  0  0  0
 19 44  1  0  0  0  0
 19 45  1  0  0  0  0
 20 46  1  0  0  0  0
 20 47  1  0  0  0  0
 21 48  1  0  0  0  0
 21 49  1  0  0  0  0
 22 50  1  0  0  0  0
 22 51  1  0  0  0  0
 23 52  1  0  0  0  0
 23 53  1  0  0  0  0
 23 54  1  0  0  0  0
 24 55  1  0  0  0  0
 24 56  1  0  0  0  0
 26 57  1  0  0  0  0
 29 58  1  0  0  0  0
M  END
> <clash_score>
0.6199437987661196

> <docking_score>
-8.062822341918945

> <overlap_score>
0.9891135096549988

$$$$
BENZO_141_1
  -OEChem-08222022173D

 51 54  0     0  0  0  0  0  0999 V2000
   14.1526    1.4694   24.0176 C   0  0  0  0  0  0  0  0  0  0  0  0
   13.3741    0.8121   24.9701 C   0  0  0  0  0  0  0  0  0  0  0  0
   13.5446    2.0802   22.9208 C   0  0  0  0  0  0  0  0  0  0  0  0
   11.9875    0.7654   24.8258 C   0  0  0  0  0  0  0  0  0  0  0  0
   12.1580    2.0335   22.7765 C   0  0  0  0  0  0  0  0  0  0  0  0
    9.0720   -1.1280   24.8640 C   0  0  0  0  0  0  0  0  0  0  0  0
    9.7200   -2.2600   22.8630 C   0  0  0  0  0  0  0  0  0  0  0  0
    8.9960   -2.3380   25.5320 C   0  0  0  0  0  0  0  0  0  0  0  0
    9.6730   -3.4710   23.5300 C   0  0  0  0  0  0  0  0  0  0  0  0
   11.3794    1.3761   23.7290 C   0  0  0  0  0  0  0  0  0  0  0  0
    9.3350   -1.0880   23.5010 C   0  0  0  0  0  0  0  0  0  0  0  0
    9.3070   -3.5340   24.8780 C   0  0  0  0  0  0  0  0  0  0  0  0
    5.8300    0.9190   18.6970 C   0  0  0  0  0  0  0  0  0  0  0  0
    7.3170   -0.1610   19.8550 C   0  0  0  0  0  0  0  0  0  0  0  0
    4.6890    1.6810   18.4640 C   0  0  0  0  0  0  0  0  0  0  0  0
    3.9160    2.0630   19.5520 C   0  0  0  0  0  0  0  0  0  0  0  0
    4.2750    1.7050   20.8490 C   0  0  0  0  0  0  0  0  0  0  0  0
    5.4210    0.9600   21.0930 C   0  0  0  0  0  0  0  0  0  0  0  0
    9.0420    0.3700   21.5280 C   0  0  0  0  0  0  0  0  0  0  0  0
    8.0128   -5.2151   26.1416 C   0  0  0  0  0  0  0  0  0  0  0  0
   10.4372   -5.5860   25.6588 C   0  0  0  0  0  0  0  0  0  0  0  0
    9.8870    1.3260   23.5730 C   0  0  0  0  0  0  0  0  0  0  0  0
    6.7580    0.3810   17.8350 N   0  0  0  0  0  0  0  0  0  0  0  0
    7.6390   -0.2680   18.5410 N   0  0  0  0  0  0  0  0  0  0  0  0
    6.1790    0.5730   19.9990 N   0  0  0  0  0  0  0  0  0  0  0  0
    8.1890   -0.7180   20.8700 N   0  0  0  0  0  0  0  0  0  0  0  0
    9.4560    0.1560   22.8130 N   0  0  0  0  0  0  0  0  0  0  0  0
    9.2543   -4.7552   25.5519 N   0  0  0  0  0  0  0  0  0  0  0  0
    9.2690    1.4140   20.9380 O   0  0  0  0  0  0  0  0  0  0  0  0
   15.2322    1.5068   24.1308 H   0  0  0  0  0  0  0  0  0  0  0  0
   13.8473    0.3374   25.8248 H   0  0  0  0  0  0  0  0  0  0  0  0
   14.1503    2.5930   22.1795 H   0  0  0  0  0  0  0  0  0  0  0  0
   11.3889    0.2508   25.5729 H   0  0  0  0  0  0  0  0  0  0  0  0
   11.6930    2.5120   21.9187 H   0  0  0  0  0  0  0  0  0  0  0  0
    8.9217   -0.1995   25.4232 H   0  0  0  0  0  0  0  0  0  0  0  0
   10.0643   -2.2341   21.8254 H   0  0  0  0  0  0  0  0  0  0  0  0
    8.6893   -2.3540   26.5808 H   0  0  0  0  0  0  0  0  0  0  0  0
    9.9257   -4.3898   22.9921 H   0  0  0  0  0  0  0  0  0  0  0  0
    4.3967    1.9772   17.4718 H   0  0  0  0  0  0  0  0  0  0  0  0
    3.0218    2.6486   19.3697 H   0  0  0  0  0  0  0  0  0  0  0  0
    3.6566    2.0043   21.7065 H   0  0  0  0  0  0  0  0  0  0  0  0
    5.7190    0.6877   22.0810 H   0  0  0  0  0  0  0  0  0  0  0  0
    8.1744   -6.1905   26.6238 H   0  0  0  0  0  0  0  0  0  0  0  0
    7.6718   -4.4870   26.8924 H   0  0  0  0  0  0  0  0  0  0  0  0
    7.2494   -5.3166   25.3561 H   0  0  0  0  0  0  0  0  0  0  0  0
   10.1946   -6.4995   26.2216 H   0  0  0  0  0  0  0  0  0  0  0  0
   10.7865   -5.8577   24.6518 H   0  0  0  0  0  0  0  0  0  0  0  0
   11.2285   -5.0312   26.1841 H   0  0  0  0  0  0  0  0  0  0  0  0
    9.3974    1.2912   24.5523 H   0  0  0  0  0  0  0  0  0  0  0  0
    9.5159    2.2168   23.0553 H   0  0  0  0  0  0  0  0  0  0  0  0
    8.2360   -1.5649   21.0923 H   0  0  0  0  0  0  0  0  0  0  0  0
  1  2  1  0  0  0  0
  1  3  2  0  0  0  0
  2  4  2  0  0  0  0
  3  5  1  0  0  0  0
  4 10  1  0  0  0  0
  5 10  2  0  0  0  0
  6  8  2  0  0  0  0
  6 11  1  0  0  0  0
  7  9  1  0  0  0  0
  7 11  2  0  0  0  0
  8 12  1  0  0  0  0
  9 12  2  0  0  0  0
 10 22  1  0  0  0  0
 11 27  1  0  0  0  0
 12 28  1  0  0  0  0
 13 15  1  0  0  0  0
 13 23  2  0  0  0  0
 13 25  1  0  0  0  0
 14 24  2  0  0  0  0
 14 25  1  0  0  0  0
 14 26  1  0  0  0  0
 15 16  2  0  0  0  0
 16 17  1  0  0  0  0
 17 18  2  0  0  0  0
 18 25  1  0  0  0  0
 19 26  1  0  0  0  0
 19 27  1  0  0  0  0
 19 29  2  0  0  0  0
 20 28  1  0  0  0  0
 21 28  1  0  0  0  0
 22 27  1  0  0  0  0
 23 24  1  0  0  0  0
  1 30  1  0  0  0  0
  2 31  1  0  0  0  0
  3 32  1  0  0  0  0
  4 33  1  0  0  0  0
  5 34  1  0  0  0  0
  6 35  1  0  0  0  0
  7 36  1  0  0  0  0
  8 37  1  0  0  0  0
  9 38  1  0  0  0  0
 15 39  1  0  0  0  0
 16 40  1  0  0  0  0
 17 41  1  0  0  0  0
 18 42  1  0  0  0  0
 20 43  1  0  0  0  0
 20 44  1  0  0  0  0
 20 45  1  0  0  0  0
 21 46  1  0  0  0  0
 21 47  1  0  0  0  0
 21 48  1  0  0  0  0
 22 49  1  0  0  0  0
 22 50  1  0  0  0  0
 26 51  1  0  0  0  0
M  END
> <clash_score>
0

> <docking_score>
-9.561988830566406

> <overlap_score>
0.9780115485191345

$$$$
BENZO_140_1
  -OEChem-08222022173D

 48 51  0     0  0  0  0  0  0999 V2000
    9.0720   -1.1280   24.8640 C   0  0  0  0  0  0  0  0  0  0  0  0
    9.7200   -2.2600   22.8630 C   0  0  0  0  0  0  0  0  0  0  0  0
    8.9960   -2.3380   25.5320 C   0  0  0  0  0  0  0  0  0  0  0  0
    9.6730   -3.4710   23.5300 C   0  0  0  0  0  0  0  0  0  0  0  0
   12.2913    1.4279   22.6355 C   0  0  0  0  0  0  0  0  0  0  0  0
   13.6024    1.4662   23.0564 C   0  0  0  0  0  0  0  0  0  0  0  0
   12.0284    1.3764   24.9443 C   0  0  0  0  0  0  0  0  0  0  0  0
   11.3794    1.3761   23.7290 C   0  0  0  0  0  0  0  0  0  0  0  0
    9.3350   -1.0880   23.5010 C   0  0  0  0  0  0  0  0  0  0  0  0
    9.3070   -3.5340   24.8780 C   0  0  0  0  0  0  0  0  0  0  0  0
    5.8300    0.9190   18.6970 C   0  0  0  0  0  0  0  0  0  0  0  0
    7.3170   -0.1610   19.8550 C   0  0  0  0  0  0  0  0  0  0  0  0
    4.6890    1.6810   18.4640 C   0  0  0  0  0  0  0  0  0  0  0  0
    3.9160    2.0630   19.5520 C   0  0  0  0  0  0  0  0  0  0  0  0
    4.2750    1.7050   20.8490 C   0  0  0  0  0  0  0  0  0  0  0  0
    5.4210    0.9600   21.0930 C   0  0  0  0  0  0  0  0  0  0  0  0
    9.0420    0.3700   21.5280 C   0  0  0  0  0  0  0  0  0  0  0  0
    8.8742   -4.8064   26.9496 C   0  0  0  0  0  0  0  0  0  0  0  0
    9.5655   -5.9897   24.8591 C   0  0  0  0  0  0  0  0  0  0  0  0
    9.8870    1.3260   23.5730 C   0  0  0  0  0  0  0  0  0  0  0  0
    6.7580    0.3810   17.8350 N   0  0  0  0  0  0  0  0  0  0  0  0
    7.6390   -0.2680   18.5410 N   0  0  0  0  0  0  0  0  0  0  0  0
    6.1790    0.5730   19.9990 N   0  0  0  0  0  0  0  0  0  0  0  0
    8.1890   -0.7180   20.8700 N   0  0  0  0  0  0  0  0  0  0  0  0
    9.4560    0.1560   22.8130 N   0  0  0  0  0  0  0  0  0  0  0  0
    9.2543   -4.7552   25.5519 N   0  0  0  0  0  0  0  0  0  0  0  0
    9.2690    1.4140   20.9380 O   0  0  0  0  0  0  0  0  0  0  0  0
   13.7301    1.4394   24.7638 S   0  0  0  0  0  0  0  0  0  0  0  0
    8.9217   -0.1995   25.4232 H   0  0  0  0  0  0  0  0  0  0  0  0
   10.0643   -2.2341   21.8254 H   0  0  0  0  0  0  0  0  0  0  0  0
    8.6893   -2.3540   26.5808 H   0  0  0  0  0  0  0  0  0  0  0  0
    9.9257   -4.3898   22.9921 H   0  0  0  0  0  0  0  0  0  0  0  0
   12.0045    1.4365   21.5915 H   0  0  0  0  0  0  0  0  0  0  0  0
   14.4914    1.5078   22.4431 H   0  0  0  0  0  0  0  0  0  0  0  0
   11.5886    1.3416   25.9314 H   0  0  0  0  0  0  0  0  0  0  0  0
    4.3967    1.9772   17.4718 H   0  0  0  0  0  0  0  0  0  0  0  0
    3.0218    2.6486   19.3697 H   0  0  0  0  0  0  0  0  0  0  0  0
    3.6566    2.0043   21.7065 H   0  0  0  0  0  0  0  0  0  0  0  0
    5.7190    0.6877   22.0810 H   0  0  0  0  0  0  0  0  0  0  0  0
    8.8922   -5.8499   27.2971 H   0  0  0  0  0  0  0  0  0  0  0  0
    9.5819   -4.2099   27.5440 H   0  0  0  0  0  0  0  0  0  0  0  0
    7.8599   -4.3978   27.0688 H   0  0  0  0  0  0  0  0  0  0  0  0
    9.4683   -6.8360   25.5551 H   0  0  0  0  0  0  0  0  0  0  0  0
    8.8685   -6.1243   24.0189 H   0  0  0  0  0  0  0  0  0  0  0  0
   10.5961   -5.9459   24.4771 H   0  0  0  0  0  0  0  0  0  0  0  0
    9.3974    1.2912   24.5523 H   0  0  0  0  0  0  0  0  0  0  0  0
    9.5159    2.2168   23.0553 H   0  0  0  0  0  0  0  0  0  0  0  0
    8.2360   -1.5649   21.0923 H   0  0  0  0  0  0  0  0  0  0  0  0
  1  3  2  0  0  0  0
  1  9  1  0  0  0  0
  2  4  1  0  0  0  0
  2  9  2  0  0  0  0
  3 10  1  0  0  0  0
  4 10  2  0  0  0  0
  5  6  2  0  0  0  0
  5  8  1  0  0  0  0
  6 28  1  0  0  0  0
  7  8  2  0  0  0  0
  7 28  1  0  0  0  0
  8 20  1  0  0  0  0
  9 25  1  0  0  0  0
 10 26  1  0  0  0  0
 11 13  1  0  0  0  0
 11 21  2  0  0  0  0
 11 23  1  0  0  0  0
 12 22  2  0  0  0  0
 12 23  1  0  0  0  0
 12 24  1  0  0  0  0
 13 14  2  0  0  0  0
 14 15  1  0  0  0  0
 15 16  2  0  0  0  0
 16 23  1  0  0  0  0
 17 24  1  0  0  0  0
 17 25  1  0  0  0  0
 17 27  2  0  0  0  0
 18 26  1  0  0  0  0
 19 26  1  0  0  0  0
 20 25  1  0  0  0  0
 21 22  1  0  0  0  0
  1 29  1  0  0  0  0
  2 30  1  0  0  0  0
  3 31  1  0  0  0  0
  4 32  1  0  0  0  0
  5 33  1  0  0  0  0
  6 34  1  0  0  0  0
  7 35  1  0  0  0  0
 13 36  1  0  0  0  0
 14 37  1  0  0  0  0
 15 38  1  0  0  0  0
 16 39  1  0  0  0  0
 18 40  1  0  0  0  0
 18 41  1  0  0  0  0
 18 42  1  0  0  0  0
 19 43  1  0  0  0  0
 19 44  1  0  0  0  0
 19 45  1  0  0  0  0
 20 46  1  0  0  0  0
 20 47  1  0  0  0  0
 24 48  1  0  0  0  0
M  END
> <clash_score>
0

> <docking_score>
-9.318977355957031

> <overlap_score>
0.9639393091201782

$$$$
BENZO_143_1
  -OEChem-08222022173D

 51 54  0     0  0  0  0  0  0999 V2000
    9.0720   -1.1280   24.8640 C   0  0  0  0  0  0  0  0  0  0  0  0
    9.7200   -2.2600   22.8630 C   0  0  0  0  0  0  0  0  0  0  0  0
    8.9960   -2.3380   25.5320 C   0  0  0  0  0  0  0  0  0  0  0  0
    9.6730   -3.4710   23.5300 C   0  0  0  0  0  0  0  0  0  0  0  0
   12.2914    2.2071   23.0512 C   0  0  0  0  0  0  0  0  0  0  0  0
   12.1614    0.6214   24.5689 C   0  0  0  0  0  0  0  0  0  0  0  0
   11.3794    1.3761   23.7290 C   0  0  0  0  0  0  0  0  0  0  0  0
    9.3350   -1.0880   23.5010 C   0  0  0  0  0  0  0  0  0  0  0  0
    9.3070   -3.5340   24.8780 C   0  0  0  0  0  0  0  0  0  0  0  0
    5.8300    0.9190   18.6970 C   0  0  0  0  0  0  0  0  0  0  0  0
    7.3170   -0.1610   19.8550 C   0  0  0  0  0  0  0  0  0  0  0  0
    4.6890    1.6810   18.4640 C   0  0  0  0  0  0  0  0  0  0  0  0
    3.9160    2.0630   19.5520 C   0  0  0  0  0  0  0  0  0  0  0  0
    4.2750    1.7050   20.8490 C   0  0  0  0  0  0  0  0  0  0  0  0
    5.4210    0.9600   21.0930 C   0  0  0  0  0  0  0  0  0  0  0  0
    9.0420    0.3700   21.5280 C   0  0  0  0  0  0  0  0  0  0  0  0
   14.6267    0.5248   25.0067 C   0  0  0  0  0  0  0  0  0  0  0  0
    8.0128   -5.2151   26.1416 C   0  0  0  0  0  0  0  0  0  0  0  0
   10.4372   -5.5860   25.6588 C   0  0  0  0  0  0  0  0  0  0  0  0
    9.8870    1.3260   23.5730 C   0  0  0  0  0  0  0  0  0  0  0  0
   13.5560    2.0002   23.4280 N   0  0  0  0  0  0  0  0  0  0  0  0
    6.7580    0.3810   17.8350 N   0  0  0  0  0  0  0  0  0  0  0  0
    7.6390   -0.2680   18.5410 N   0  0  0  0  0  0  0  0  0  0  0  0
   13.4442    1.0306   24.3518 N   0  0  0  0  0  0  0  0  0  0  0  0
    6.1790    0.5730   19.9990 N   0  0  0  0  0  0  0  0  0  0  0  0
    8.1890   -0.7180   20.8700 N   0  0  0  0  0  0  0  0  0  0  0  0
    9.4560    0.1560   22.8130 N   0  0  0  0  0  0  0  0  0  0  0  0
    9.2543   -4.7552   25.5519 N   0  0  0  0  0  0  0  0  0  0  0  0
    9.2690    1.4140   20.9380 O   0  0  0  0  0  0  0  0  0  0  0  0
    8.9217   -0.1995   25.4232 H   0  0  0  0  0  0  0  0  0  0  0  0
   10.0643   -2.2341   21.8254 H   0  0  0  0  0  0  0  0  0  0  0  0
    8.6893   -2.3540   26.5808 H   0  0  0  0  0  0  0  0  0  0  0  0
    9.9257   -4.3898   22.9921 H   0  0  0  0  0  0  0  0  0  0  0  0
   12.0895    2.9562   22.2987 H   0  0  0  0  0  0  0  0  0  0  0  0
   11.9201   -0.1518   25.2857 H   0  0  0  0  0  0  0  0  0  0  0  0
    4.3967    1.9772   17.4718 H   0  0  0  0  0  0  0  0  0  0  0  0
    3.0218    2.6486   19.3697 H   0  0  0  0  0  0  0  0  0  0  0  0
    3.6566    2.0043   21.7065 H   0  0  0  0  0  0  0  0  0  0  0  0
    5.7190    0.6877   22.0810 H   0  0  0  0  0  0  0  0  0  0  0  0
   15.0068   -0.3132   24.4165 H   0  0  0  0  0  0  0  0  0  0  0  0
   15.3758    1.3189   25.0698 H   0  0  0  0  0  0  0  0  0  0  0  0
   14.3676    0.1958   26.0170 H   0  0  0  0  0  0  0  0  0  0  0  0
    8.1744   -6.1905   26.6238 H   0  0  0  0  0  0  0  0  0  0  0  0
    7.6718   -4.4870   26.8924 H   0  0  0  0  0  0  0  0  0  0  0  0
    7.2494   -5.3166   25.3561 H   0  0  0  0  0  0  0  0  0  0  0  0
   10.1946   -6.4995   26.2216 H   0  0  0  0  0  0  0  0  0  0  0  0
   10.7865   -5.8577   24.6518 H   0  0  0  0  0  0  0  0  0  0  0  0
   11.2285   -5.0312   26.1841 H   0  0  0  0  0  0  0  0  0  0  0  0
    9.3974    1.2912   24.5523 H   0  0  0  0  0  0  0  0  0  0  0  0
    9.5159    2.2168   23.0553 H   0  0  0  0  0  0  0  0  0  0  0  0
    8.2360   -1.5649   21.0923 H   0  0  0  0  0  0  0  0  0  0  0  0
  1  3  2  0  0  0  0
  1  8  1  0  0  0  0
  2  4  1  0  0  0  0
  2  8  2  0  0  0  0
  3  9  1  0  0  0  0
  4  9  2  0  0  0  0
  5  7  1  0  0  0  0
  5 21  2  0  0  0  0
  6  7  2  0  0  0  0
  6 24  1  0  0  0  0
  7 20  1  0  0  0  0
  8 27  1  0  0  0  0
  9 28  1  0  0  0  0
 10 12  1  0  0  0  0
 10 22  2  0  0  0  0
 10 25  1  0  0  0  0
 11 23  2  0  0  0  0
 11 25  1  0  0  0  0
 11 26  1  0  0  0  0
 12 13  2  0  0  0  0
 13 14  1  0  0  0  0
 14 15  2  0  0  0  0
 15 25  1  0  0  0  0
 16 26  1  0  0  0  0
 16 27  1  0  0  0  0
 16 29  2  0  0  0  0
 17 24  1  0  0  0  0
 18 28  1  0  0  0  0
 19 28  1  0  0  0  0
 20 27  1  0  0  0  0
 21 24  1  0  0  0  0
 22 23  1  0  0  0  0
  1 30  1  0  0  0  0
  2 31  1  0  0  0  0
  3 32  1  0  0  0  0
  4 33  1  0  0  0  0
  5 34  1  0  0  0  0
  6 35  1  0  0  0  0
 12 36  1  0  0  0  0
 13 37  1  0  0  0  0
 14 38  1  0  0  0  0
 15 39  1  0  0  0  0
 17 40  1  0  0  0  0
 17 41  1  0  0  0  0
 17 42  1  0  0  0  0
 18 43  1  0  0  0  0
 18 44  1  0  0  0  0
 18 45  1  0  0  0  0
 19 46  1  0  0  0  0
 19 47  1  0  0  0  0
 19 48  1  0  0  0  0
 20 49  1  0  0  0  0
 20 50  1  0  0  0  0
 26 51  1  0  0  0  0
M  END
> <clash_score>
0.6199421715403106

> <docking_score>
-9.270011901855469

> <overlap_score>
0.9767898917198181

$$$$
BENZO_142_1
  -OEChem-08222022173D

 51 54  0     0  0  0  0  0  0999 V2000
   13.4007    0.5725   24.7805 C   0  0  0  0  0  0  0  0  0  0  0  0
   12.0141    0.5273   24.6359 C   0  0  0  0  0  0  0  0  0  0  0  0
    9.0720   -1.1280   24.8640 C   0  0  0  0  0  0  0  0  0  0  0  0
    9.7200   -2.2600   22.8630 C   0  0  0  0  0  0  0  0  0  0  0  0
    8.9960   -2.3380   25.5320 C   0  0  0  0  0  0  0  0  0  0  0  0
    9.6730   -3.4710   23.5300 C   0  0  0  0  0  0  0  0  0  0  0  0
   14.1526    1.4666   24.0184 C   0  0  0  0  0  0  0  0  0  0  0  0
   12.1314    2.2702   22.9668 C   0  0  0  0  0  0  0  0  0  0  0  0
   11.3794    1.3761   23.7290 C   0  0  0  0  0  0  0  0  0  0  0  0
    9.3350   -1.0880   23.5010 C   0  0  0  0  0  0  0  0  0  0  0  0
    9.3070   -3.5340   24.8780 C   0  0  0  0  0  0  0  0  0  0  0  0
   13.5180    2.3154   23.1115 C   0  0  0  0  0  0  0  0  0  0  0  0
    5.8300    0.9190   18.6970 C   0  0  0  0  0  0  0  0  0  0  0  0
    7.3170   -0.1610   19.8550 C   0  0  0  0  0  0  0  0  0  0  0  0
    4.6890    1.6810   18.4640 C   0  0  0  0  0  0  0  0  0  0  0  0
    3.9160    2.0630   19.5520 C   0  0  0  0  0  0  0  0  0  0  0  0
    4.2750    1.7050   20.8490 C   0  0  0  0  0  0  0  0  0  0  0  0
    5.4210    0.9600   21.0930 C   0  0  0  0  0  0  0  0  0  0  0  0
    9.0420    0.3700   21.5280 C   0  0  0  0  0  0  0  0  0  0  0  0
    8.0128   -5.2151   26.1416 C   0  0  0  0  0  0  0  0  0  0  0  0
   10.4372   -5.5860   25.6588 C   0  0  0  0  0  0  0  0  0  0  0  0
    9.8870    1.3260   23.5730 C   0  0  0  0  0  0  0  0  0  0  0  0
    6.7580    0.3810   17.8350 N   0  0  0  0  0  0  0  0  0  0  0  0
    7.6390   -0.2680   18.5410 N   0  0  0  0  0  0  0  0  0  0  0  0
    6.1790    0.5730   19.9990 N   0  0  0  0  0  0  0  0  0  0  0  0
    8.1890   -0.7180   20.8700 N   0  0  0  0  0  0  0  0  0  0  0  0
    9.4560    0.1560   22.8130 N   0  0  0  0  0  0  0  0  0  0  0  0
    9.2543   -4.7552   25.5519 N   0  0  0  0  0  0  0  0  0  0  0  0
    9.2690    1.4140   20.9380 O   0  0  0  0  0  0  0  0  0  0  0  0
   14.4463    3.4175   22.1707 Cl  0  0  0  0  0  0  0  0  0  0  0  0
   13.8945   -0.0888   25.4867 H   0  0  0  0  0  0  0  0  0  0  0  0
   11.4361   -0.1726   25.2338 H   0  0  0  0  0  0  0  0  0  0  0  0
    8.9217   -0.1995   25.4232 H   0  0  0  0  0  0  0  0  0  0  0  0
   10.0643   -2.2341   21.8254 H   0  0  0  0  0  0  0  0  0  0  0  0
    8.6893   -2.3540   26.5808 H   0  0  0  0  0  0  0  0  0  0  0  0
    9.9257   -4.3898   22.9921 H   0  0  0  0  0  0  0  0  0  0  0  0
   15.2326    1.4907   24.1414 H   0  0  0  0  0  0  0  0  0  0  0  0
   11.6318    2.9303   22.2615 H   0  0  0  0  0  0  0  0  0  0  0  0
    4.3967    1.9772   17.4718 H   0  0  0  0  0  0  0  0  0  0  0  0
    3.0218    2.6486   19.3697 H   0  0  0  0  0  0  0  0  0  0  0  0
    3.6566    2.0043   21.7065 H   0  0  0  0  0  0  0  0  0  0  0  0
    5.7190    0.6877   22.0810 H   0  0  0  0  0  0  0  0  0  0  0  0
    8.1744   -6.1905   26.6238 H   0  0  0  0  0  0  0  0  0  0  0  0
    7.6718   -4.4870   26.8924 H   0  0  0  0  0  0  0  0  0  0  0  0
    7.2494   -5.3166   25.3561 H   0  0  0  0  0  0  0  0  0  0  0  0
   10.1946   -6.4995   26.2216 H   0  0  0  0  0  0  0  0  0  0  0  0
   10.7865   -5.8577   24.6518 H   0  0  0  0  0  0  0  0  0  0  0  0
   11.2285   -5.0312   26.1841 H   0  0  0  0  0  0  0  0  0  0  0  0
    9.3974    1.2912   24.5523 H   0  0  0  0  0  0  0  0  0  0  0  0
    9.5159    2.2168   23.0553 H   0  0  0  0  0  0  0  0  0  0  0  0
    8.2360   -1.5649   21.0923 H   0  0  0  0  0  0  0  0  0  0  0  0
  1  2  2  0  0  0  0
  1  7  1  0  0  0  0
  2  9  1  0  0  0  0
  3  5  2  0  0  0  0
  3 10  1  0  0  0  0
  4  6  1  0  0  0  0
  4 10  2  0  0  0  0
  5 11  1  0  0  0  0
  6 11  2  0  0  0  0
  7 12  2  0  0  0  0
  8  9  2  0  0  0  0
  8 12  1  0  0  0  0
  9 22  1  0  0  0  0
 10 27  1  0  0  0  0
 11 28  1  0  0  0  0
 12 30  1  0  0  0  0
 13 15  1  0  0  0  0
 13 23  2  0  0  0  0
 13 25  1  0  0  0  0
 14 24  2  0  0  0  0
 14 25  1  0  0  0  0
 14 26  1  0  0  0  0
 15 16  2  0  0  0  0
 16 17  1  0  0  0  0
 17 18  2  0  0  0  0
 18 25  1  0  0  0  0
 19 26  1  0  0  0  0
 19 27  1  0  0  0  0
 19 29  2  0  0  0  0
 20 28  1  0  0  0  0
 21 28  1  0  0  0  0
 22 27  1  0  0  0  0
 23 24  1  0  0  0  0
  1 31  1  0  0  0  0
  2 32  1  0  0  0  0
  3 33  1  0  0  0  0
  4 34  1  0  0  0  0
  5 35  1  0  0  0  0
  6 36  1  0  0  0  0
  7 37  1  0  0  0  0
  8 38  1  0  0  0  0
 15 39  1  0  0  0  0
 16 40  1  0  0  0  0
 17 41  1  0  0  0  0
 18 42  1  0  0  0  0
 20 43  1  0  0  0  0
 20 44  1  0  0  0  0
 20 45  1  0  0  0  0
 21 46  1  0  0  0  0
 21 47  1  0  0  0  0
 21 48  1  0  0  0  0
 22 49  1  0  0  0  0
 22 50  1  0  0  0  0
 26 51  1  0  0  0  0
M  END
> <clash_score>
0

> <docking_score>
-8.698970794677734

> <overlap_score>
0.9891859889030457

$$$$
BENZO_145_1
  -OEChem-08222022173D

 53 56  0     0  0  0  0  0  0999 V2000
   14.1526    1.4694   24.0176 C   0  0  0  0  0  0  0  0  0  0  0  0
   13.3741    0.8121   24.9701 C   0  0  0  0  0  0  0  0  0  0  0  0
   13.5446    2.0802   22.9208 C   0  0  0  0  0  0  0  0  0  0  0  0
   11.9875    0.7654   24.8258 C   0  0  0  0  0  0  0  0  0  0  0  0
   12.1580    2.0335   22.7765 C   0  0  0  0  0  0  0  0  0  0  0  0
    8.9960   -2.3380   25.5320 C   0  0  0  0  0  0  0  0  0  0  0  0
    9.6730   -3.4710   23.5300 C   0  0  0  0  0  0  0  0  0  0  0  0
    9.0720   -1.1280   24.8640 C   0  0  0  0  0  0  0  0  0  0  0  0
    9.7200   -2.2600   22.8630 C   0  0  0  0  0  0  0  0  0  0  0  0
   11.3794    1.3761   23.7290 C   0  0  0  0  0  0  0  0  0  0  0  0
    9.3070   -3.5340   24.8780 C   0  0  0  0  0  0  0  0  0  0  0  0
    9.3350   -1.0880   23.5010 C   0  0  0  0  0  0  0  0  0  0  0  0
    5.8300    0.9190   18.6970 C   0  0  0  0  0  0  0  0  0  0  0  0
    7.3170   -0.1610   19.8550 C   0  0  0  0  0  0  0  0  0  0  0  0
    4.6890    1.6810   18.4640 C   0  0  0  0  0  0  0  0  0  0  0  0
    3.9160    2.0630   19.5520 C   0  0  0  0  0  0  0  0  0  0  0  0
    4.2750    1.7050   20.8490 C   0  0  0  0  0  0  0  0  0  0  0  0
    5.4210    0.9600   21.0930 C   0  0  0  0  0  0  0  0  0  0  0  0
    9.5334   -6.0236   25.0414 C   0  0  0  0  0  0  0  0  0  0  0  0
    9.0420    0.3700   21.5280 C   0  0  0  0  0  0  0  0  0  0  0  0
   10.6330   -7.3746   26.8775 C   0  0  0  0  0  0  0  0  0  0  0  0
    9.8870    1.3260   23.5730 C   0  0  0  0  0  0  0  0  0  0  0  0
    9.3523   -7.0865   26.1149 C   0  0  0  0  0  0  0  0  0  0  0  0
    6.7580    0.3810   17.8350 N   0  0  0  0  0  0  0  0  0  0  0  0
    7.6390   -0.2680   18.5410 N   0  0  0  0  0  0  0  0  0  0  0  0
    6.1790    0.5730   19.9990 N   0  0  0  0  0  0  0  0  0  0  0  0
    9.2546   -4.7422   25.5438 N   0  0  0  0  0  0  0  0  0  0  0  0
    8.1890   -0.7180   20.8700 N   0  0  0  0  0  0  0  0  0  0  0  0
    9.4560    0.1560   22.8130 N   0  0  0  0  0  0  0  0  0  0  0  0
    9.8806   -6.3053   23.8992 O   0  0  0  0  0  0  0  0  0  0  0  0
    9.2690    1.4140   20.9380 O   0  0  0  0  0  0  0  0  0  0  0  0
   15.2322    1.5068   24.1308 H   0  0  0  0  0  0  0  0  0  0  0  0
   13.8473    0.3374   25.8248 H   0  0  0  0  0  0  0  0  0  0  0  0
   14.1503    2.5930   22.1795 H   0  0  0  0  0  0  0  0  0  0  0  0
   11.3889    0.2508   25.5729 H   0  0  0  0  0  0  0  0  0  0  0  0
   11.6930    2.5120   21.9187 H   0  0  0  0  0  0  0  0  0  0  0  0
    8.6895   -2.3529   26.5807 H   0  0  0  0  0  0  0  0  0  0  0  0
    9.9262   -4.3897   22.9916 H   0  0  0  0  0  0  0  0  0  0  0  0
    8.9224   -0.1998   25.4238 H   0  0  0  0  0  0  0  0  0  0  0  0
   10.0649   -2.2343   21.8258 H   0  0  0  0  0  0  0  0  0  0  0  0
    4.3967    1.9772   17.4718 H   0  0  0  0  0  0  0  0  0  0  0  0
    3.0218    2.6486   19.3697 H   0  0  0  0  0  0  0  0  0  0  0  0
    3.6566    2.0043   21.7065 H   0  0  0  0  0  0  0  0  0  0  0  0
    5.7190    0.6877   22.0810 H   0  0  0  0  0  0  0  0  0  0  0  0
   11.4241   -7.7171   26.2024 H   0  0  0  0  0  0  0  0  0  0  0  0
   10.4629   -8.1530   27.6277 H   0  0  0  0  0  0  0  0  0  0  0  0
   10.9949   -6.4779   27.3912 H   0  0  0  0  0  0  0  0  0  0  0  0
    9.3974    1.2912   24.5523 H   0  0  0  0  0  0  0  0  0  0  0  0
    9.5159    2.2168   23.0553 H   0  0  0  0  0  0  0  0  0  0  0  0
    8.5795   -6.7463   26.8138 H   0  0  0  0  0  0  0  0  0  0  0  0
    8.9966   -8.0064   25.6368 H   0  0  0  0  0  0  0  0  0  0  0  0
    8.9776   -4.7057   26.5317 H   0  0  0  0  0  0  0  0  0  0  0  0
    8.2360   -1.5649   21.0923 H   0  0  0  0  0  0  0  0  0  0  0  0
  1  2  1  0  0  0  0
  1  3  2  0  0  0  0
  2  4  2  0  0  0  0
  3  5  1  0  0  0  0
  4 10  1  0  0  0  0
  5 10  2  0  0  0  0
  6  8  2  0  0  0  0
  6 11  1  0  0  0  0
  7  9  1  0  0  0  0
  7 11  2  0  0  0  0
  8 12  1  0  0  0  0
  9 12  2  0  0  0  0
 10 22  1  0  0  0  0
 11 27  1  0  0  0  0
 12 29  1  0  0  0  0
 13 15  1  0  0  0  0
 13 24  2  0  0  0  0
 13 26  1  0  0  0  0
 14 25  2  0  0  0  0
 14 26  1  0  0  0  0
 14 28  1  0  0  0  0
 15 16  2  0  0  0  0
 16 17  1  0  0  0  0
 17 18  2  0  0  0  0
 18 26  1  0  0  0  0
 19 23  1  0  0  0  0
 19 27  1  0  0  0  0
 19 30  2  0  0  0  0
 20 28  1  0  0  0  0
 20 29  1  0  0  0  0
 20 31  2  0  0  0  0
 21 23  1  0  0  0  0
 22 29  1  0  0  0  0
 24 25  1  0  0  0  0
  1 32  1  0  0  0  0
  2 33  1  0  0  0  0
  3 34  1  0  0  0  0
  4 35  1  0  0  0  0
  5 36  1  0  0  0  0
  6 37  1  0  0  0  0
  7 38  1  0  0  0  0
  8 39  1  0  0  0  0
  9 40  1  0  0  0  0
 15 41  1  0  0  0  0
 16 42  1  0  0  0  0
 17 43  1  0  0  0  0
 18 44  1  0  0  0  0
 21 45  1  0  0  0  0
 21 46  1  0  0  0  0
 21 47  1  0  0  0  0
 22 48  1  0  0  0  0
 22 49  1  0  0  0  0
 23 50  1  0  0  0  0
 23 51  1  0  0  0  0
 27 52  1  0  0  0  0
 28 53  1  0  0  0  0
M  END
> <clash_score>
1.4986663541170224

> <docking_score>
-6.3677144050598145

> <overlap_score>
0.9802290797233582

$$$$
BENZO_144_1
  -OEChem-08222022173D

 50 53  0     0  0  0  0  0  0999 V2000
    8.9960   -2.3380   25.5320 C   0  0  0  0  0  0  0  0  0  0  0  0
    9.6730   -3.4710   23.5300 C   0  0  0  0  0  0  0  0  0  0  0  0
    9.0720   -1.1280   24.8640 C   0  0  0  0  0  0  0  0  0  0  0  0
    9.7200   -2.2600   22.8630 C   0  0  0  0  0  0  0  0  0  0  0  0
   12.2111    0.2208   23.7905 C   0  0  0  0  0  0  0  0  0  0  0  0
   13.5412    0.5479   23.9364 C   0  0  0  0  0  0  0  0  0  0  0  0
   12.1057    2.5424   23.8305 C   0  0  0  0  0  0  0  0  0  0  0  0
   11.3794    1.3761   23.7290 C   0  0  0  0  0  0  0  0  0  0  0  0
    9.3070   -3.5340   24.8780 C   0  0  0  0  0  0  0  0  0  0  0  0
    9.3350   -1.0880   23.5010 C   0  0  0  0  0  0  0  0  0  0  0  0
    5.8300    0.9190   18.6970 C   0  0  0  0  0  0  0  0  0  0  0  0
    7.3170   -0.1610   19.8550 C   0  0  0  0  0  0  0  0  0  0  0  0
    4.6890    1.6810   18.4640 C   0  0  0  0  0  0  0  0  0  0  0  0
    3.9160    2.0630   19.5520 C   0  0  0  0  0  0  0  0  0  0  0  0
    4.2750    1.7050   20.8490 C   0  0  0  0  0  0  0  0  0  0  0  0
    5.4210    0.9600   21.0930 C   0  0  0  0  0  0  0  0  0  0  0  0
    9.5334   -6.0236   25.0414 C   0  0  0  0  0  0  0  0  0  0  0  0
    9.0420    0.3700   21.5280 C   0  0  0  0  0  0  0  0  0  0  0  0
   10.6330   -7.3746   26.8775 C   0  0  0  0  0  0  0  0  0  0  0  0
    9.8870    1.3260   23.5730 C   0  0  0  0  0  0  0  0  0  0  0  0
    9.3523   -7.0865   26.1149 C   0  0  0  0  0  0  0  0  0  0  0  0
    6.7580    0.3810   17.8350 N   0  0  0  0  0  0  0  0  0  0  0  0
    7.6390   -0.2680   18.5410 N   0  0  0  0  0  0  0  0  0  0  0  0
    6.1790    0.5730   19.9990 N   0  0  0  0  0  0  0  0  0  0  0  0
    9.2546   -4.7422   25.5438 N   0  0  0  0  0  0  0  0  0  0  0  0
    8.1890   -0.7180   20.8700 N   0  0  0  0  0  0  0  0  0  0  0  0
    9.4560    0.1560   22.8130 N   0  0  0  0  0  0  0  0  0  0  0  0
    9.8806   -6.3053   23.8992 O   0  0  0  0  0  0  0  0  0  0  0  0
    9.2690    1.4140   20.9380 O   0  0  0  0  0  0  0  0  0  0  0  0
   13.7831    2.2420   23.9988 S   0  0  0  0  0  0  0  0  0  0  0  0
    8.6895   -2.3529   26.5807 H   0  0  0  0  0  0  0  0  0  0  0  0
    9.9262   -4.3897   22.9916 H   0  0  0  0  0  0  0  0  0  0  0  0
    8.9224   -0.1998   25.4238 H   0  0  0  0  0  0  0  0  0  0  0  0
   10.0649   -2.2343   21.8258 H   0  0  0  0  0  0  0  0  0  0  0  0
   11.8558   -0.8003   23.7315 H   0  0  0  0  0  0  0  0  0  0  0  0
   14.3824   -0.1267   24.0100 H   0  0  0  0  0  0  0  0  0  0  0  0
   11.7354    3.5581   23.8155 H   0  0  0  0  0  0  0  0  0  0  0  0
    4.3967    1.9772   17.4718 H   0  0  0  0  0  0  0  0  0  0  0  0
    3.0218    2.6486   19.3697 H   0  0  0  0  0  0  0  0  0  0  0  0
    3.6566    2.0043   21.7065 H   0  0  0  0  0  0  0  0  0  0  0  0
    5.7190    0.6877   22.0810 H   0  0  0  0  0  0  0  0  0  0  0  0
   11.4241   -7.7171   26.2024 H   0  0  0  0  0  0  0  0  0  0  0  0
   10.4629   -8.1530   27.6277 H   0  0  0  0  0  0  0  0  0  0  0  0
   10.9949   -6.4779   27.3912 H   0  0  0  0  0  0  0  0  0  0  0  0
    9.3974    1.2912   24.5523 H   0  0  0  0  0  0  0  0  0  0  0  0
    9.5159    2.2168   23.0553 H   0  0  0  0  0  0  0  0  0  0  0  0
    8.5795   -6.7463   26.8138 H   0  0  0  0  0  0  0  0  0  0  0  0
    8.9966   -8.0064   25.6368 H   0  0  0  0  0  0  0  0  0  0  0  0
    8.9776   -4.7057   26.5317 H   0  0  0  0  0  0  0  0  0  0  0  0
    8.2360   -1.5649   21.0923 H   0  0  0  0  0  0  0  0  0  0  0  0
  1  3  2  0  0  0  0
  1  9  1  0  0  0  0
  2  4  1  0  0  0  0
  2  9  2  0  0  0  0
  3 10  1  0  0  0  0
  4 10  2  0  0  0  0
  5  6  2  0  0  0  0
  5  8  1  0  0  0  0
  6 30  1  0  0  0  0
  7  8  2  0  0  0  0
  7 30  1  0  0  0  0
  8 20  1  0  0  0  0
  9 25  1  0  0  0  0
 10 27  1  0  0  0  0
 11 13  1  0  0  0  0
 11 22  2  0  0  0  0
 11 24  1  0  0  0  0
 12 23  2  0  0  0  0
 12 24  1  0  0  0  0
 12 26  1  0  0  0  0
 13 14  2  0  0  0  0
 14 15  1  0  0  0  0
 15 16  2  0  0  0  0
 16 24  1  0  0  0  0
 17 21  1  0  0  0  0
 17 25  1  0  0  0  0
 17 28  2  0  0  0  0
 18 26  1  0  0  0  0
 18 27  1  0  0  0  0
 18 29  2  0  0  0  0
 19 21  1  0  0  0  0
 20 27  1  0  0  0  0
 22 23  1  0  0  0  0
  1 31  1  0  0  0  0
  2 32  1  0  0  0  0
  3 33  1  0  0  0  0
  4 34  1  0  0  0  0
  5 35  1  0  0  0  0
  6 36  1  0  0  0  0
  7 37  1  0  0  0  0
 13 38  1  0  0  0  0
 14 39  1  0  0  0  0
 15 40  1  0  0  0  0
 16 41  1  0  0  0  0
 19 42  1  0  0  0  0
 19 43  1  0  0  0  0
 19 44  1  0  0  0  0
 20 45  1  0  0  0  0
 20 46  1  0  0  0  0
 21 47  1  0  0  0  0
 21 48  1  0  0  0  0
 25 49  1  0  0  0  0
 26 50  1  0  0  0  0
M  END
> <clash_score>
1.4986663541170224

> <docking_score>
-5.640902996063232

> <overlap_score>
0.9652435183525085

$$$$
BENZO_149_1
  -OEChem-08222022173D

 58 62  0     0  0  0  0  0  0999 V2000
   14.1526    1.4694   24.0176 C   0  0  0  0  0  0  0  0  0  0  0  0
   13.3741    0.8121   24.9701 C   0  0  0  0  0  0  0  0  0  0  0  0
   13.5446    2.0802   22.9208 C   0  0  0  0  0  0  0  0  0  0  0  0
   11.9875    0.7654   24.8258 C   0  0  0  0  0  0  0  0  0  0  0  0
   12.1580    2.0335   22.7765 C   0  0  0  0  0  0  0  0  0  0  0  0
    8.9960   -2.3380   25.5320 C   0  0  0  0  0  0  0  0  0  0  0  0
    9.6730   -3.4710   23.5300 C   0  0  0  0  0  0  0  0  0  0  0  0
    9.0720   -1.1280   24.8640 C   0  0  0  0  0  0  0  0  0  0  0  0
    9.7200   -2.2600   22.8630 C   0  0  0  0  0  0  0  0  0  0  0  0
   11.3794    1.3761   23.7290 C   0  0  0  0  0  0  0  0  0  0  0  0
    9.3070   -3.5340   24.8780 C   0  0  0  0  0  0  0  0  0  0  0  0
    9.3350   -1.0880   23.5010 C   0  0  0  0  0  0  0  0  0  0  0  0
    5.8300    0.9190   18.6970 C   0  0  0  0  0  0  0  0  0  0  0  0
    7.3170   -0.1610   19.8550 C   0  0  0  0  0  0  0  0  0  0  0  0
    4.6890    1.6810   18.4640 C   0  0  0  0  0  0  0  0  0  0  0  0
    3.9160    2.0630   19.5520 C   0  0  0  0  0  0  0  0  0  0  0  0
    4.2750    1.7050   20.8490 C   0  0  0  0  0  0  0  0  0  0  0  0
    5.4210    0.9600   21.0930 C   0  0  0  0  0  0  0  0  0  0  0  0
    9.0420    0.3700   21.5280 C   0  0  0  0  0  0  0  0  0  0  0  0
    7.3635   -6.1361   27.1888 C   0  0  0  0  0  0  0  0  0  0  0  0
    8.1961   -4.9735   27.7341 C   0  0  0  0  0  0  0  0  0  0  0  0
    7.1942   -6.0394   25.6709 C   0  0  0  0  0  0  0  0  0  0  0  0
    9.5196   -4.8490   26.9797 C   0  0  0  0  0  0  0  0  0  0  0  0
    8.5442   -5.8838   24.9639 C   0  0  0  0  0  0  0  0  0  0  0  0
    9.8870    1.3260   23.5730 C   0  0  0  0  0  0  0  0  0  0  0  0
    6.7580    0.3810   17.8350 N   0  0  0  0  0  0  0  0  0  0  0  0
    7.6390   -0.2680   18.5410 N   0  0  0  0  0  0  0  0  0  0  0  0
    6.1790    0.5730   19.9990 N   0  0  0  0  0  0  0  0  0  0  0  0
    9.2562   -4.7384   25.5422 N   0  0  0  0  0  0  0  0  0  0  0  0
    8.1890   -0.7180   20.8700 N   0  0  0  0  0  0  0  0  0  0  0  0
    9.4560    0.1560   22.8130 N   0  0  0  0  0  0  0  0  0  0  0  0
    9.2690    1.4140   20.9380 O   0  0  0  0  0  0  0  0  0  0  0  0
   15.2322    1.5068   24.1308 H   0  0  0  0  0  0  0  0  0  0  0  0
   13.8473    0.3374   25.8248 H   0  0  0  0  0  0  0  0  0  0  0  0
   14.1503    2.5930   22.1795 H   0  0  0  0  0  0  0  0  0  0  0  0
   11.3889    0.2508   25.5729 H   0  0  0  0  0  0  0  0  0  0  0  0
   11.6930    2.5120   21.9187 H   0  0  0  0  0  0  0  0  0  0  0  0
    8.6905   -2.3533   26.5810 H   0  0  0  0  0  0  0  0  0  0  0  0
    9.9266   -4.3896   22.9917 H   0  0  0  0  0  0  0  0  0  0  0  0
    8.9233   -0.1992   25.4231 H   0  0  0  0  0  0  0  0  0  0  0  0
   10.0650   -2.2330   21.8256 H   0  0  0  0  0  0  0  0  0  0  0  0
    4.3967    1.9772   17.4718 H   0  0  0  0  0  0  0  0  0  0  0  0
    3.0218    2.6486   19.3697 H   0  0  0  0  0  0  0  0  0  0  0  0
    3.6566    2.0043   21.7065 H   0  0  0  0  0  0  0  0  0  0  0  0
    5.7190    0.6877   22.0810 H   0  0  0  0  0  0  0  0  0  0  0  0
    7.8482   -7.0901   27.4469 H   0  0  0  0  0  0  0  0  0  0  0  0
    6.3760   -6.1438   27.6724 H   0  0  0  0  0  0  0  0  0  0  0  0
    7.6307   -4.0424   27.6403 H   0  0  0  0  0  0  0  0  0  0  0  0
    8.3915   -5.1310   28.7968 H   0  0  0  0  0  0  0  0  0  0  0  0
    6.6888   -6.9376   25.3010 H   0  0  0  0  0  0  0  0  0  0  0  0
    6.5515   -5.1859   25.4257 H   0  0  0  0  0  0  0  0  0  0  0  0
   10.0492   -3.9640   27.3414 H   0  0  0  0  0  0  0  0  0  0  0  0
   10.1431   -5.7254   27.1778 H   0  0  0  0  0  0  0  0  0  0  0  0
    9.1338   -6.7931   25.0868 H   0  0  0  0  0  0  0  0  0  0  0  0
    8.3656   -5.7264   23.8998 H   0  0  0  0  0  0  0  0  0  0  0  0
    9.3974    1.2912   24.5523 H   0  0  0  0  0  0  0  0  0  0  0  0
    9.5159    2.2168   23.0553 H   0  0  0  0  0  0  0  0  0  0  0  0
    8.2565   -1.5523   21.1108 H   0  0  0  0  0  0  0  0  0  0  0  0
  1  2  1  0  0  0  0
  1  3  2  0  0  0  0
  2  4  2  0  0  0  0
  3  5  1  0  0  0  0
  4 10  1  0  0  0  0
  5 10  2  0  0  0  0
  6  8  2  0  0  0  0
  6 11  1  0  0  0  0
  7  9  1  0  0  0  0
  7 11  2  0  0  0  0
  8 12  1  0  0  0  0
  9 12  2  0  0  0  0
 10 25  1  0  0  0  0
 11 29  1  0  0  0  0
 12 31  1  0  0  0  0
 13 15  1  0  0  0  0
 13 26  2  0  0  0  0
 13 28  1  0  0  0  0
 14 27  2  0  0  0  0
 14 28  1  0  0  0  0
 14 30  1  0  0  0  0
 15 16  2  0  0  0  0
 16 17  1  0  0  0  0
 17 18  2  0  0  0  0
 18 28  1  0  0  0  0
 19 30  1  0  0  0  0
 19 31  1  0  0  0  0
 19 32  2  0  0  0  0
 20 21  1  0  0  0  0
 20 22  1  0  0  0  0
 21 23  1  0  0  0  0
 22 24  1  0  0  0  0
 23 29  1  0  0  0  0
 24 29  1  0  0  0  0
 25 31  1  0  0  0  0
 26 27  1  0  0  0  0
  1 33  1  0  0  0  0
  2 34  1  0  0  0  0
  3 35  1  0  0  0  0
  4 36  1  0  0  0  0
  5 37  1  0  0  0  0
  6 38  1  0  0  0  0
  7 39  1  0  0  0  0
  8 40  1  0  0  0  0
  9 41  1  0  0  0  0
 15 42  1  0  0  0  0
 16 43  1  0  0  0  0
 17 44  1  0  0  0  0
 18 45  1  0  0  0  0
 20 46  1  0  0  0  0
 20 47  1  0  0  0  0
 21 48  1  0  0  0  0
 21 49  1  0  0  0  0
 22 50  1  0  0  0  0
 22 51  1  0  0  0  0
 23 52  1  0  0  0  0
 23 53  1  0  0  0  0
 24 54  1  0  0  0  0
 24 55  1  0  0  0  0
 25 56  1  0  0  0  0
 25 57  1  0  0  0  0
 30 58  1  0  0  0  0
M  END
> <clash_score>
0

> <docking_score>
-8.657766342163086

> <overlap_score>
0.9931822419166565

$$$$
BENZO_147_1
  -OEChem-08222022173D

 53 56  0     0  0  0  0  0  0999 V2000
    8.9960   -2.3380   25.5320 C   0  0  0  0  0  0  0  0  0  0  0  0
    9.6730   -3.4710   23.5300 C   0  0  0  0  0  0  0  0  0  0  0  0
    9.0720   -1.1280   24.8640 C   0  0  0  0  0  0  0  0  0  0  0  0
    9.7200   -2.2600   22.8630 C   0  0  0  0  0  0  0  0  0  0  0  0
   12.2914    2.2071   23.0512 C   0  0  0  0  0  0  0  0  0  0  0  0
   12.1614    0.6214   24.5689 C   0  0  0  0  0  0  0  0  0  0  0  0
   11.3794    1.3761   23.7290 C   0  0  0  0  0  0  0  0  0  0  0  0
    9.3070   -3.5340   24.8780 C   0  0  0  0  0  0  0  0  0  0  0  0
    9.3350   -1.0880   23.5010 C   0  0  0  0  0  0  0  0  0  0  0  0
    5.8300    0.9190   18.6970 C   0  0  0  0  0  0  0  0  0  0  0  0
    7.3170   -0.1610   19.8550 C   0  0  0  0  0  0  0  0  0  0  0  0
    4.6890    1.6810   18.4640 C   0  0  0  0  0  0  0  0  0  0  0  0
    3.9160    2.0630   19.5520 C   0  0  0  0  0  0  0  0  0  0  0  0
    4.2750    1.7050   20.8490 C   0  0  0  0  0  0  0  0  0  0  0  0
    5.4210    0.9600   21.0930 C   0  0  0  0  0  0  0  0  0  0  0  0
    9.5334   -6.0236   25.0414 C   0  0  0  0  0  0  0  0  0  0  0  0
    9.0420    0.3700   21.5280 C   0  0  0  0  0  0  0  0  0  0  0  0
   10.6330   -7.3746   26.8775 C   0  0  0  0  0  0  0  0  0  0  0  0
   14.6267    0.5248   25.0067 C   0  0  0  0  0  0  0  0  0  0  0  0
    9.8870    1.3260   23.5730 C   0  0  0  0  0  0  0  0  0  0  0  0
    9.3523   -7.0865   26.1149 C   0  0  0  0  0  0  0  0  0  0  0  0
   13.5560    2.0002   23.4280 N   0  0  0  0  0  0  0  0  0  0  0  0
    6.7580    0.3810   17.8350 N   0  0  0  0  0  0  0  0  0  0  0  0
    7.6390   -0.2680   18.5410 N   0  0  0  0  0  0  0  0  0  0  0  0
   13.4442    1.0306   24.3518 N   0  0  0  0  0  0  0  0  0  0  0  0
    6.1790    0.5730   19.9990 N   0  0  0  0  0  0  0  0  0  0  0  0
    9.2546   -4.7422   25.5438 N   0  0  0  0  0  0  0  0  0  0  0  0
    8.1890   -0.7180   20.8700 N   0  0  0  0  0  0  0  0  0  0  0  0
    9.4560    0.1560   22.8130 N   0  0  0  0  0  0  0  0  0  0  0  0
    9.8806   -6.3053   23.8992 O   0  0  0  0  0  0  0  0  0  0  0  0
    9.2690    1.4140   20.9380 O   0  0  0  0  0  0  0  0  0  0  0  0
    8.6895   -2.3529   26.5807 H   0  0  0  0  0  0  0  0  0  0  0  0
    9.9262   -4.3897   22.9916 H   0  0  0  0  0  0  0  0  0  0  0  0
    8.9224   -0.1998   25.4238 H   0  0  0  0  0  0  0  0  0  0  0  0
   10.0649   -2.2343   21.8258 H   0  0  0  0  0  0  0  0  0  0  0  0
   12.0895    2.9562   22.2987 H   0  0  0  0  0  0  0  0  0  0  0  0
   11.9201   -0.1518   25.2857 H   0  0  0  0  0  0  0  0  0  0  0  0
    4.3967    1.9772   17.4718 H   0  0  0  0  0  0  0  0  0  0  0  0
    3.0218    2.6486   19.3697 H   0  0  0  0  0  0  0  0  0  0  0  0
    3.6566    2.0043   21.7065 H   0  0  0  0  0  0  0  0  0  0  0  0
    5.7190    0.6877   22.0810 H   0  0  0  0  0  0  0  0  0  0  0  0
   11.4241   -7.7171   26.2024 H   0  0  0  0  0  0  0  0  0  0  0  0
   10.4629   -8.1530   27.6277 H   0  0  0  0  0  0  0  0  0  0  0  0
   10.9949   -6.4779   27.3912 H   0  0  0  0  0  0  0  0  0  0  0  0
   15.0068   -0.3132   24.4165 H   0  0  0  0  0  0  0  0  0  0  0  0
   15.3758    1.3189   25.0698 H   0  0  0  0  0  0  0  0  0  0  0  0
   14.3676    0.1958   26.0170 H   0  0  0  0  0  0  0  0  0  0  0  0
    9.3974    1.2912   24.5523 H   0  0  0  0  0  0  0  0  0  0  0  0
    9.5159    2.2168   23.0553 H   0  0  0  0  0  0  0  0  0  0  0  0
    8.5795   -6.7463   26.8138 H   0  0  0  0  0  0  0  0  0  0  0  0
    8.9966   -8.0064   25.6368 H   0  0  0  0  0  0  0  0  0  0  0  0
    8.9776   -4.7057   26.5317 H   0  0  0  0  0  0  0  0  0  0  0  0
    8.2360   -1.5649   21.0923 H   0  0  0  0  0  0  0  0  0  0  0  0
  1  3  2  0  0  0  0
  1  8  1  0  0  0  0
  2  4  1  0  0  0  0
  2  8  2  0  0  0  0
  3  9  1  0  0  0  0
  4  9  2  0  0  0  0
  5  7  1  0  0  0  0
  5 22  2  0  0  0  0
  6  7  2  0  0  0  0
  6 25  1  0  0  0  0
  7 20  1  0  0  0  0
  8 27  1  0  0  0  0
  9 29  1  0  0  0  0
 10 12  1  0  0  0  0
 10 23  2  0  0  0  0
 10 26  1  0  0  0  0
 11 24  2  0  0  0  0
 11 26  1  0  0  0  0
 11 28  1  0  0  0  0
 12 13  2  0  0  0  0
 13 14  1  0  0  0  0
 14 15  2  0  0  0  0
 15 26  1  0  0  0  0
 16 21  1  0  0  0  0
 16 27  1  0  0  0  0
 16 30  2  0  0  0  0
 17 28  1  0  0  0  0
 17 29  1  0  0  0  0
 17 31  2  0  0  0  0
 18 21  1  0  0  0  0
 19 25  1  0  0  0  0
 20 29  1  0  0  0  0
 22 25  1  0  0  0  0
 23 24  1  0  0  0  0
  1 32  1  0  0  0  0
  2 33  1  0  0  0  0
  3 34  1  0  0  0  0
  4 35  1  0  0  0  0
  5 36  1  0  0  0  0
  6 37  1  0  0  0  0
 12 38  1  0  0  0  0
 13 39  1  0  0  0  0
 14 40  1  0  0  0  0
 15 41  1  0  0  0  0
 18 42  1  0  0  0  0
 18 43  1  0  0  0  0
 18 44  1  0  0  0  0
 19 45  1  0  0  0  0
 19 46  1  0  0  0  0
 19 47  1  0  0  0  0
 20 48  1  0  0  0  0
 20 49  1  0  0  0  0
 21 50  1  0  0  0  0
 21 51  1  0  0  0  0
 27 52  1  0  0  0  0
 28 53  1  0  0  0  0
M  END
> <clash_score>
2.118608525657333

> <docking_score>
-6.075735092163086

> <overlap_score>
0.9790107011795044

$$$$
BENZO_146_1
  -OEChem-08222022173D

 53 56  0     0  0  0  0  0  0999 V2000
   13.4007    0.5725   24.7805 C   0  0  0  0  0  0  0  0  0  0  0  0
   12.0141    0.5273   24.6359 C   0  0  0  0  0  0  0  0  0  0  0  0
    8.9960   -2.3380   25.5320 C   0  0  0  0  0  0  0  0  0  0  0  0
    9.6730   -3.4710   23.5300 C   0  0  0  0  0  0  0  0  0  0  0  0
    9.0720   -1.1280   24.8640 C   0  0  0  0  0  0  0  0  0  0  0  0
    9.7200   -2.2600   22.8630 C   0  0  0  0  0  0  0  0  0  0  0  0
   14.1526    1.4666   24.0184 C   0  0  0  0  0  0  0  0  0  0  0  0
   12.1314    2.2702   22.9668 C   0  0  0  0  0  0  0  0  0  0  0  0
   11.3794    1.3761   23.7290 C   0  0  0  0  0  0  0  0  0  0  0  0
    9.3070   -3.5340   24.8780 C   0  0  0  0  0  0  0  0  0  0  0  0
    9.3350   -1.0880   23.5010 C   0  0  0  0  0  0  0  0  0  0  0  0
   13.5180    2.3154   23.1115 C   0  0  0  0  0  0  0  0  0  0  0  0
    5.8300    0.9190   18.6970 C   0  0  0  0  0  0  0  0  0  0  0  0
    7.3170   -0.1610   19.8550 C   0  0  0  0  0  0  0  0  0  0  0  0
    4.6890    1.6810   18.4640 C   0  0  0  0  0  0  0  0  0  0  0  0
    3.9160    2.0630   19.5520 C   0  0  0  0  0  0  0  0  0  0  0  0
    4.2750    1.7050   20.8490 C   0  0  0  0  0  0  0  0  0  0  0  0
    5.4210    0.9600   21.0930 C   0  0  0  0  0  0  0  0  0  0  0  0
    9.5334   -6.0236   25.0414 C   0  0  0  0  0  0  0  0  0  0  0  0
    9.0420    0.3700   21.5280 C   0  0  0  0  0  0  0  0  0  0  0  0
   10.6330   -7.3746   26.8775 C   0  0  0  0  0  0  0  0  0  0  0  0
    9.8870    1.3260   23.5730 C   0  0  0  0  0  0  0  0  0  0  0  0
    9.3523   -7.0865   26.1149 C   0  0  0  0  0  0  0  0  0  0  0  0
    6.7580    0.3810   17.8350 N   0  0  0  0  0  0  0  0  0  0  0  0
    7.6390   -0.2680   18.5410 N   0  0  0  0  0  0  0  0  0  0  0  0
    6.1790    0.5730   19.9990 N   0  0  0  0  0  0  0  0  0  0  0  0
    9.2546   -4.7422   25.5438 N   0  0  0  0  0  0  0  0  0  0  0  0
    8.1890   -0.7180   20.8700 N   0  0  0  0  0  0  0  0  0  0  0  0
    9.4560    0.1560   22.8130 N   0  0  0  0  0  0  0  0  0  0  0  0
    9.8806   -6.3053   23.8992 O   0  0  0  0  0  0  0  0  0  0  0  0
    9.2690    1.4140   20.9380 O   0  0  0  0  0  0  0  0  0  0  0  0
   14.4463    3.4175   22.1707 Cl  0  0  0  0  0  0  0  0  0  0  0  0
   13.8945   -0.0888   25.4867 H   0  0  0  0  0  0  0  0  0  0  0  0
   11.4361   -0.1726   25.2338 H   0  0  0  0  0  0  0  0  0  0  0  0
    8.6895   -2.3529   26.5807 H   0  0  0  0  0  0  0  0  0  0  0  0
    9.9262   -4.3897   22.9916 H   0  0  0  0  0  0  0  0  0  0  0  0
    8.9224   -0.1998   25.4238 H   0  0  0  0  0  0  0  0  0  0  0  0
   10.0649   -2.2343   21.8258 H   0  0  0  0  0  0  0  0  0  0  0  0
   15.2326    1.4907   24.1414 H   0  0  0  0  0  0  0  0  0  0  0  0
   11.6318    2.9303   22.2615 H   0  0  0  0  0  0  0  0  0  0  0  0
    4.3967    1.9772   17.4718 H   0  0  0  0  0  0  0  0  0  0  0  0
    3.0218    2.6486   19.3697 H   0  0  0  0  0  0  0  0  0  0  0  0
    3.6566    2.0043   21.7065 H   0  0  0  0  0  0  0  0  0  0  0  0
    5.7190    0.6877   22.0810 H   0  0  0  0  0  0  0  0  0  0  0  0
   11.4241   -7.7171   26.2024 H   0  0  0  0  0  0  0  0  0  0  0  0
   10.4629   -8.1530   27.6277 H   0  0  0  0  0  0  0  0  0  0  0  0
   10.9949   -6.4779   27.3912 H   0  0  0  0  0  0  0  0  0  0  0  0
    9.3974    1.2912   24.5523 H   0  0  0  0  0  0  0  0  0  0  0  0
    9.5159    2.2168   23.0553 H   0  0  0  0  0  0  0  0  0  0  0  0
    8.5795   -6.7463   26.8138 H   0  0  0  0  0  0  0  0  0  0  0  0
    8.9966   -8.0064   25.6368 H   0  0  0  0  0  0  0  0  0  0  0  0
    8.9776   -4.7057   26.5317 H   0  0  0  0  0  0  0  0  0  0  0  0
    8.2360   -1.5649   21.0923 H   0  0  0  0  0  0  0  0  0  0  0  0
  1  2  2  0  0  0  0
  1  7  1  0  0  0  0
  2  9  1  0  0  0  0
  3  5  2  0  0  0  0
  3 10  1  0  0  0  0
  4  6  1  0  0  0  0
  4 10  2  0  0  0  0
  5 11  1  0  0  0  0
  6 11  2  0  0  0  0
  7 12  2  0  0  0  0
  8  9  2  0  0  0  0
  8 12  1  0  0  0  0
  9 22  1  0  0  0  0
 10 27  1  0  0  0  0
 11 29  1  0  0  0  0
 12 32  1  0  0  0  0
 13 15  1  0  0  0  0
 13 24  2  0  0  0  0
 13 26  1  0  0  0  0
 14 25  2  0  0  0  0
 14 26  1  0  0  0  0
 14 28  1  0  0  0  0
 15 16  2  0  0  0  0
 16 17  1  0  0  0  0
 17 18  2  0  0  0  0
 18 26  1  0  0  0  0
 19 23  1  0  0  0  0
 19 27  1  0  0  0  0
 19 30  2  0  0  0  0
 20 28  1  0  0  0  0
 20 29  1  0  0  0  0
 20 31  2  0  0  0  0
 21 23  1  0  0  0  0
 22 29  1  0  0  0  0
 24 25  1  0  0  0  0
  1 33  1  0  0  0  0
  2 34  1  0  0  0  0
  3 35  1  0  0  0  0
  4 36  1  0  0  0  0
  5 37  1  0  0  0  0
  6 38  1  0  0  0  0
  7 39  1  0  0  0  0
  8 40  1  0  0  0  0
 15 41  1  0  0  0  0
 16 42  1  0  0  0  0
 17 43  1  0  0  0  0
 18 44  1  0  0  0  0
 21 45  1  0  0  0  0
 21 46  1  0  0  0  0
 21 47  1  0  0  0  0
 22 48  1  0  0  0  0
 22 49  1  0  0  0  0
 23 50  1  0  0  0  0
 23 51  1  0  0  0  0
 27 52  1  0  0  0  0
 28 53  1  0  0  0  0
M  END
> <clash_score>
1.4986663541170224

> <docking_score>
-5.504695892333984

> <overlap_score>
0.9913628697395325

$$$$
BENZO_148_1
  -OEChem-08222022173D

 55 59  0     0  0  0  0  0  0999 V2000
    8.9960   -2.3380   25.5320 C   0  0  0  0  0  0  0  0  0  0  0  0
    9.6730   -3.4710   23.5300 C   0  0  0  0  0  0  0  0  0  0  0  0
    9.0720   -1.1280   24.8640 C   0  0  0  0  0  0  0  0  0  0  0  0
    9.7200   -2.2600   22.8630 C   0  0  0  0  0  0  0  0  0  0  0  0
   12.2913    1.4279   22.6355 C   0  0  0  0  0  0  0  0  0  0  0  0
   13.6024    1.4662   23.0564 C   0  0  0  0  0  0  0  0  0  0  0  0
   12.0284    1.3764   24.9443 C   0  0  0  0  0  0  0  0  0  0  0  0
   11.3794    1.3761   23.7290 C   0  0  0  0  0  0  0  0  0  0  0  0
    9.3070   -3.5340   24.8780 C   0  0  0  0  0  0  0  0  0  0  0  0
    9.3350   -1.0880   23.5010 C   0  0  0  0  0  0  0  0  0  0  0  0
    5.8300    0.9190   18.6970 C   0  0  0  0  0  0  0  0  0  0  0  0
    7.3170   -0.1610   19.8550 C   0  0  0  0  0  0  0  0  0  0  0  0
    4.6890    1.6810   18.4640 C   0  0  0  0  0  0  0  0  0  0  0  0
    3.9160    2.0630   19.5520 C   0  0  0  0  0  0  0  0  0  0  0  0
    4.2750    1.7050   20.8490 C   0  0  0  0  0  0  0  0  0  0  0  0
    5.4210    0.9600   21.0930 C   0  0  0  0  0  0  0  0  0  0  0  0
    9.0420    0.3700   21.5280 C   0  0  0  0  0  0  0  0  0  0  0  0
    7.2235   -6.6199   26.3009 C   0  0  0  0  0  0  0  0  0  0  0  0
    7.4293   -5.3101   27.0652 C   0  0  0  0  0  0  0  0  0  0  0  0
    7.7217   -6.5099   24.8580 C   0  0  0  0  0  0  0  0  0  0  0  0
    8.8782   -4.8357   26.9548 C   0  0  0  0  0  0  0  0  0  0  0  0
    9.1652   -6.0007   24.7995 C   0  0  0  0  0  0  0  0  0  0  0  0
    9.8870    1.3260   23.5730 C   0  0  0  0  0  0  0  0  0  0  0  0
    6.7580    0.3810   17.8350 N   0  0  0  0  0  0  0  0  0  0  0  0
    7.6390   -0.2680   18.5410 N   0  0  0  0  0  0  0  0  0  0  0  0
    6.1790    0.5730   19.9990 N   0  0  0  0  0  0  0  0  0  0  0  0
    9.2562   -4.7384   25.5422 N   0  0  0  0  0  0  0  0  0  0  0  0
    8.1890   -0.7180   20.8700 N   0  0  0  0  0  0  0  0  0  0  0  0
    9.4560    0.1560   22.8130 N   0  0  0  0  0  0  0  0  0  0  0  0
    9.2690    1.4140   20.9380 O   0  0  0  0  0  0  0  0  0  0  0  0
   13.7301    1.4394   24.7638 S   0  0  0  0  0  0  0  0  0  0  0  0
    8.6905   -2.3533   26.5810 H   0  0  0  0  0  0  0  0  0  0  0  0
    9.9266   -4.3896   22.9917 H   0  0  0  0  0  0  0  0  0  0  0  0
    8.9233   -0.1992   25.4231 H   0  0  0  0  0  0  0  0  0  0  0  0
   10.0650   -2.2330   21.8256 H   0  0  0  0  0  0  0  0  0  0  0  0
   12.0045    1.4365   21.5915 H   0  0  0  0  0  0  0  0  0  0  0  0
   14.4914    1.5078   22.4431 H   0  0  0  0  0  0  0  0  0  0  0  0
   11.5886    1.3416   25.9314 H   0  0  0  0  0  0  0  0  0  0  0  0
    4.3967    1.9772   17.4718 H   0  0  0  0  0  0  0  0  0  0  0  0
    3.0218    2.6486   19.3697 H   0  0  0  0  0  0  0  0  0  0  0  0
    3.6566    2.0043   21.7065 H   0  0  0  0  0  0  0  0  0  0  0  0
    5.7190    0.6877   22.0810 H   0  0  0  0  0  0  0  0  0  0  0  0
    7.7559   -7.4347   26.8149 H   0  0  0  0  0  0  0  0  0  0  0  0
    6.1572   -6.8883   26.3055 H   0  0  0  0  0  0  0  0  0  0  0  0
    6.7602   -4.5435   26.6651 H   0  0  0  0  0  0  0  0  0  0  0  0
    7.1684   -5.4551   28.1155 H   0  0  0  0  0  0  0  0  0  0  0  0
    7.6595   -7.4899   24.3736 H   0  0  0  0  0  0  0  0  0  0  0  0
    7.0706   -5.8317   24.2943 H   0  0  0  0  0  0  0  0  0  0  0  0
    8.9681   -3.8621   27.4435 H   0  0  0  0  0  0  0  0  0  0  0  0
    9.5387   -5.5390   27.4697 H   0  0  0  0  0  0  0  0  0  0  0  0
    9.8374   -6.7413   25.2344 H   0  0  0  0  0  0  0  0  0  0  0  0
    9.4414   -5.8515   23.7552 H   0  0  0  0  0  0  0  0  0  0  0  0
    9.3974    1.2912   24.5523 H   0  0  0  0  0  0  0  0  0  0  0  0
    9.5159    2.2168   23.0553 H   0  0  0  0  0  0  0  0  0  0  0  0
    8.2565   -1.5523   21.1108 H   0  0  0  0  0  0  0  0  0  0  0  0
  1  3  2  0  0  0  0
  1  9  1  0  0  0  0
  2  4  1  0  0  0  0
  2  9  2  0  0  0  0
  3 10  1  0  0  0  0
  4 10  2  0  0  0  0
  5  6  2  0  0  0  0
  5  8  1  0  0  0  0
  6 31  1  0  0  0  0
  7  8  2  0  0  0  0
  7 31  1  0  0  0  0
  8 23  1  0  0  0  0
  9 27  1  0  0  0  0
 10 29  1  0  0  0  0
 11 13  1  0  0  0  0
 11 24  2  0  0  0  0
 11 26  1  0  0  0  0
 12 25  2  0  0  0  0
 12 26  1  0  0  0  0
 12 28  1  0  0  0  0
 13 14  2  0  0  0  0
 14 15  1  0  0  0  0
 15 16  2  0  0  0  0
 16 26  1  0  0  0  0
 17 28  1  0  0  0  0
 17 29  1  0  0  0  0
 17 30  2  0  0  0  0
 18 19  1  0  0  0  0
 18 20  1  0  0  0  0
 19 21  1  0  0  0  0
 20 22  1  0  0  0  0
 21 27  1  0  0  0  0
 22 27  1  0  0  0  0
 23 29  1  0  0  0  0
 24 25  1  0  0  0  0
  1 32  1  0  0  0  0
  2 33  1  0  0  0  0
  3 34  1  0  0  0  0
  4 35  1  0  0  0  0
  5 36  1  0  0  0  0
  6 37  1  0  0  0  0
  7 38  1  0  0  0  0
 13 39  1  0  0  0  0
 14 40  1  0  0  0  0
 15 41  1  0  0  0  0
 16 42  1  0  0  0  0
 18 43  1  0  0  0  0
 18 44  1  0  0  0  0
 19 45  1  0  0  0  0
 19 46  1  0  0  0  0
 20 47  1  0  0  0  0
 20 48  1  0  0  0  0
 21 49  1  0  0  0  0
 21 50  1  0  0  0  0
 22 51  1  0  0  0  0
 22 52  1  0  0  0  0
 23 53  1  0  0  0  0
 23 54  1  0  0  0  0
 28 55  1  0  0  0  0
M  END
> <clash_score>
0

> <docking_score>
-8.560249328613281

> <overlap_score>
0.9782364964485168

$$$$
BENZO_153_1
  -OEChem-08222022173D

 46 49  0     0  0  0  0  0  0999 V2000
   14.1526    1.4694   24.0176 C   0  0  0  0  0  0  0  0  0  0  0  0
   13.3741    0.8121   24.9701 C   0  0  0  0  0  0  0  0  0  0  0  0
   13.5446    2.0802   22.9208 C   0  0  0  0  0  0  0  0  0  0  0  0
   11.9875    0.7654   24.8258 C   0  0  0  0  0  0  0  0  0  0  0  0
   12.1580    2.0335   22.7765 C   0  0  0  0  0  0  0  0  0  0  0  0
    8.9960   -2.3380   25.5320 C   0  0  0  0  0  0  0  0  0  0  0  0
    9.6730   -3.4710   23.5300 C   0  0  0  0  0  0  0  0  0  0  0  0
    9.0720   -1.1280   24.8640 C   0  0  0  0  0  0  0  0  0  0  0  0
    9.7200   -2.2600   22.8630 C   0  0  0  0  0  0  0  0  0  0  0  0
    9.3070   -3.5340   24.8780 C   0  0  0  0  0  0  0  0  0  0  0  0
   11.3794    1.3761   23.7290 C   0  0  0  0  0  0  0  0  0  0  0  0
    9.3350   -1.0880   23.5010 C   0  0  0  0  0  0  0  0  0  0  0  0
    5.8300    0.9190   18.6970 C   0  0  0  0  0  0  0  0  0  0  0  0
    7.3170   -0.1610   19.8550 C   0  0  0  0  0  0  0  0  0  0  0  0
    4.6890    1.6810   18.4640 C   0  0  0  0  0  0  0  0  0  0  0  0
    3.9160    2.0630   19.5520 C   0  0  0  0  0  0  0  0  0  0  0  0
    4.2750    1.7050   20.8490 C   0  0  0  0  0  0  0  0  0  0  0  0
    5.4210    0.9600   21.0930 C   0  0  0  0  0  0  0  0  0  0  0  0
    9.0420    0.3700   21.5280 C   0  0  0  0  0  0  0  0  0  0  0  0
    9.2505   -4.8264   25.5904 C   0  0  0  0  0  0  0  0  0  0  0  0
    9.8870    1.3260   23.5730 C   0  0  0  0  0  0  0  0  0  0  0  0
    6.7580    0.3810   17.8350 N   0  0  0  0  0  0  0  0  0  0  0  0
    7.6390   -0.2680   18.5410 N   0  0  0  0  0  0  0  0  0  0  0  0
    6.1790    0.5730   19.9990 N   0  0  0  0  0  0  0  0  0  0  0  0
    8.1890   -0.7180   20.8700 N   0  0  0  0  0  0  0  0  0  0  0  0
    9.4560    0.1560   22.8130 N   0  0  0  0  0  0  0  0  0  0  0  0
    9.2690    1.4140   20.9380 O   0  0  0  0  0  0  0  0  0  0  0  0
   15.2322    1.5068   24.1308 H   0  0  0  0  0  0  0  0  0  0  0  0
   13.8473    0.3374   25.8248 H   0  0  0  0  0  0  0  0  0  0  0  0
   14.1503    2.5930   22.1795 H   0  0  0  0  0  0  0  0  0  0  0  0
   11.3889    0.2508   25.5729 H   0  0  0  0  0  0  0  0  0  0  0  0
   11.6930    2.5120   21.9187 H   0  0  0  0  0  0  0  0  0  0  0  0
    8.6919   -2.3557   26.5813 H   0  0  0  0  0  0  0  0  0  0  0  0
    9.9267   -4.3907   22.9939 H   0  0  0  0  0  0  0  0  0  0  0  0
    8.9217   -0.1995   25.4231 H   0  0  0  0  0  0  0  0  0  0  0  0
   10.0653   -2.2339   21.8256 H   0  0  0  0  0  0  0  0  0  0  0  0
    4.3967    1.9772   17.4718 H   0  0  0  0  0  0  0  0  0  0  0  0
    3.0218    2.6486   19.3697 H   0  0  0  0  0  0  0  0  0  0  0  0
    3.6566    2.0043   21.7065 H   0  0  0  0  0  0  0  0  0  0  0  0
    5.7190    0.6877   22.0810 H   0  0  0  0  0  0  0  0  0  0  0  0
    8.2503   -5.2678   25.5020 H   0  0  0  0  0  0  0  0  0  0  0  0
    9.9817   -5.5374   25.1845 H   0  0  0  0  0  0  0  0  0  0  0  0
    9.4841   -4.7043   26.6562 H   0  0  0  0  0  0  0  0  0  0  0  0
    9.3974    1.2912   24.5523 H   0  0  0  0  0  0  0  0  0  0  0  0
    9.5159    2.2168   23.0553 H   0  0  0  0  0  0  0  0  0  0  0  0
    8.2360   -1.5649   21.0923 H   0  0  0  0  0  0  0  0  0  0  0  0
  1  2  1  0  0  0  0
  1  3  2  0  0  0  0
  2  4  2  0  0  0  0
  3  5  1  0  0  0  0
  4 11  1  0  0  0  0
  5 11  2  0  0  0  0
  6  8  2  0  0  0  0
  6 10  1  0  0  0  0
  7  9  1  0  0  0  0
  7 10  2  0  0  0  0
  8 12  1  0  0  0  0
  9 12  2  0  0  0  0
 10 20  1  0  0  0  0
 11 21  1  0  0  0  0
 12 26  1  0  0  0  0
 13 15  1  0  0  0  0
 13 22  2  0  0  0  0
 13 24  1  0  0  0  0
 14 23  2  0  0  0  0
 14 24  1  0  0  0  0
 14 25  1  0  0  0  0
 15 16  2  0  0  0  0
 16 17  1  0  0  0  0
 17 18  2  0  0  0  0
 18 24  1  0  0  0  0
 19 25  1  0  0  0  0
 19 26  1  0  0  0  0
 19 27  2  0  0  0  0
 21 26  1  0  0  0  0
 22 23  1  0  0  0  0
  1 28  1  0  0  0  0
  2 29  1  0  0  0  0
  3 30  1  0  0  0  0
  4 31  1  0  0  0  0
  5 32  1  0  0  0  0
  6 33  1  0  0  0  0
  7 34  1  0  0  0  0
  8 35  1  0  0  0  0
  9 36  1  0  0  0  0
 15 37  1  0  0  0  0
 16 38  1  0  0  0  0
 17 39  1  0  0  0  0
 18 40  1  0  0  0  0
 20 41  1  0  0  0  0
 20 42  1  0  0  0  0
 20 43  1  0  0  0  0
 21 44  1  0  0  0  0
 21 45  1  0  0  0  0
 25 46  1  0  0  0  0
M  END
> <clash_score>
0

> <docking_score>
-8.902782440185547

> <overlap_score>
0.9394524097442627

$$$$
BENZO_152_1
  -OEChem-08222022173D

 43 46  0     0  0  0  0  0  0999 V2000
    8.9960   -2.3380   25.5320 C   0  0  0  0  0  0  0  0  0  0  0  0
    9.6730   -3.4710   23.5300 C   0  0  0  0  0  0  0  0  0  0  0  0
    9.0720   -1.1280   24.8640 C   0  0  0  0  0  0  0  0  0  0  0  0
    9.7200   -2.2600   22.8630 C   0  0  0  0  0  0  0  0  0  0  0  0
   12.2111    0.2208   23.7905 C   0  0  0  0  0  0  0  0  0  0  0  0
   13.5412    0.5479   23.9364 C   0  0  0  0  0  0  0  0  0  0  0  0
   12.1057    2.5424   23.8305 C   0  0  0  0  0  0  0  0  0  0  0  0
    9.3070   -3.5340   24.8780 C   0  0  0  0  0  0  0  0  0  0  0  0
   11.3794    1.3761   23.7290 C   0  0  0  0  0  0  0  0  0  0  0  0
    9.3350   -1.0880   23.5010 C   0  0  0  0  0  0  0  0  0  0  0  0
    5.8300    0.9190   18.6970 C   0  0  0  0  0  0  0  0  0  0  0  0
    7.3170   -0.1610   19.8550 C   0  0  0  0  0  0  0  0  0  0  0  0
    4.6890    1.6810   18.4640 C   0  0  0  0  0  0  0  0  0  0  0  0
    3.9160    2.0630   19.5520 C   0  0  0  0  0  0  0  0  0  0  0  0
    4.2750    1.7050   20.8490 C   0  0  0  0  0  0  0  0  0  0  0  0
    5.4210    0.9600   21.0930 C   0  0  0  0  0  0  0  0  0  0  0  0
    9.0420    0.3700   21.5280 C   0  0  0  0  0  0  0  0  0  0  0  0
    9.2505   -4.8264   25.5904 C   0  0  0  0  0  0  0  0  0  0  0  0
    9.8870    1.3260   23.5730 C   0  0  0  0  0  0  0  0  0  0  0  0
    6.7580    0.3810   17.8350 N   0  0  0  0  0  0  0  0  0  0  0  0
    7.6390   -0.2680   18.5410 N   0  0  0  0  0  0  0  0  0  0  0  0
    6.1790    0.5730   19.9990 N   0  0  0  0  0  0  0  0  0  0  0  0
    8.1890   -0.7180   20.8700 N   0  0  0  0  0  0  0  0  0  0  0  0
    9.4560    0.1560   22.8130 N   0  0  0  0  0  0  0  0  0  0  0  0
    9.2690    1.4140   20.9380 O   0  0  0  0  0  0  0  0  0  0  0  0
   13.7831    2.2420   23.9988 S   0  0  0  0  0  0  0  0  0  0  0  0
    8.6919   -2.3557   26.5813 H   0  0  0  0  0  0  0  0  0  0  0  0
    9.9267   -4.3907   22.9939 H   0  0  0  0  0  0  0  0  0  0  0  0
    8.9217   -0.1995   25.4231 H   0  0  0  0  0  0  0  0  0  0  0  0
   10.0653   -2.2339   21.8256 H   0  0  0  0  0  0  0  0  0  0  0  0
   11.8558   -0.8003   23.7315 H   0  0  0  0  0  0  0  0  0  0  0  0
   14.3824   -0.1267   24.0100 H   0  0  0  0  0  0  0  0  0  0  0  0
   11.7354    3.5581   23.8155 H   0  0  0  0  0  0  0  0  0  0  0  0
    4.3967    1.9772   17.4718 H   0  0  0  0  0  0  0  0  0  0  0  0
    3.0218    2.6486   19.3697 H   0  0  0  0  0  0  0  0  0  0  0  0
    3.6566    2.0043   21.7065 H   0  0  0  0  0  0  0  0  0  0  0  0
    5.7190    0.6877   22.0810 H   0  0  0  0  0  0  0  0  0  0  0  0
    8.2503   -5.2678   25.5020 H   0  0  0  0  0  0  0  0  0  0  0  0
    9.9817   -5.5374   25.1845 H   0  0  0  0  0  0  0  0  0  0  0  0
    9.4841   -4.7043   26.6562 H   0  0  0  0  0  0  0  0  0  0  0  0
    9.3974    1.2912   24.5523 H   0  0  0  0  0  0  0  0  0  0  0  0
    9.5159    2.2168   23.0553 H   0  0  0  0  0  0  0  0  0  0  0  0
    8.2360   -1.5649   21.0923 H   0  0  0  0  0  0  0  0  0  0  0  0
  1  3  2  0  0  0  0
  1  8  1  0  0  0  0
  2  4  1  0  0  0  0
  2  8  2  0  0  0  0
  3 10  1  0  0  0  0
  4 10  2  0  0  0  0
  5  6  2  0  0  0  0
  5  9  1  0  0  0  0
  6 26  1  0  0  0  0
  7  9  2  0  0  0  0
  7 26  1  0  0  0  0
  8 18  1  0  0  0  0
  9 19  1  0  0  0  0
 10 24  1  0  0  0  0
 11 13  1  0  0  0  0
 11 20  2  0  0  0  0
 11 22  1  0  0  0  0
 12 21  2  0  0  0  0
 12 22  1  0  0  0  0
 12 23  1  0  0  0  0
 13 14  2  0  0  0  0
 14 15  1  0  0  0  0
 15 16  2  0  0  0  0
 16 22  1  0  0  0  0
 17 23  1  0  0  0  0
 17 24  1  0  0  0  0
 17 25  2  0  0  0  0
 19 24  1  0  0  0  0
 20 21  1  0  0  0  0
  1 27  1  0  0  0  0
  2 28  1  0  0  0  0
  3 29  1  0  0  0  0
  4 30  1  0  0  0  0
  5 31  1  0  0  0  0
  6 32  1  0  0  0  0
  7 33  1  0  0  0  0
 13 34  1  0  0  0  0
 14 35  1  0  0  0  0
 15 36  1  0  0  0  0
 16 37  1  0  0  0  0
 18 38  1  0  0  0  0
 18 39  1  0  0  0  0
 18 40  1  0  0  0  0
 19 41  1  0  0  0  0
 19 42  1  0  0  0  0
 23 43  1  0  0  0  0
M  END
> <clash_score>
0

> <docking_score>
-8.175975799560547

> <overlap_score>
0.9242714047431946

$$$$
BENZO_151_1
  -OEChem-08222022173D

 58 62  0     0  0  0  0  0  0999 V2000
    8.9960   -2.3380   25.5320 C   0  0  0  0  0  0  0  0  0  0  0  0
    9.6730   -3.4710   23.5300 C   0  0  0  0  0  0  0  0  0  0  0  0
    9.0720   -1.1280   24.8640 C   0  0  0  0  0  0  0  0  0  0  0  0
    9.7200   -2.2600   22.8630 C   0  0  0  0  0  0  0  0  0  0  0  0
   12.1233    1.3811   24.9242 C   0  0  0  0  0  0  0  0  0  0  0  0
   12.3261    1.4247   22.7351 C   0  0  0  0  0  0  0  0  0  0  0  0
   11.3794    1.3761   23.7290 C   0  0  0  0  0  0  0  0  0  0  0  0
    9.3070   -3.5340   24.8780 C   0  0  0  0  0  0  0  0  0  0  0  0
    9.3350   -1.0880   23.5010 C   0  0  0  0  0  0  0  0  0  0  0  0
    5.8300    0.9190   18.6970 C   0  0  0  0  0  0  0  0  0  0  0  0
    7.3170   -0.1610   19.8550 C   0  0  0  0  0  0  0  0  0  0  0  0
    4.6890    1.6810   18.4640 C   0  0  0  0  0  0  0  0  0  0  0  0
    3.9160    2.0630   19.5520 C   0  0  0  0  0  0  0  0  0  0  0  0
    4.2750    1.7050   20.8490 C   0  0  0  0  0  0  0  0  0  0  0  0
    5.4210    0.9600   21.0930 C   0  0  0  0  0  0  0  0  0  0  0  0
    9.0420    0.3700   21.5280 C   0  0  0  0  0  0  0  0  0  0  0  0
    7.3635   -6.1361   27.1888 C   0  0  0  0  0  0  0  0  0  0  0  0
    8.1961   -4.9735   27.7341 C   0  0  0  0  0  0  0  0  0  0  0  0
    7.1942   -6.0394   25.6709 C   0  0  0  0  0  0  0  0  0  0  0  0
    9.5196   -4.8490   26.9797 C   0  0  0  0  0  0  0  0  0  0  0  0
    8.5442   -5.8838   24.9639 C   0  0  0  0  0  0  0  0  0  0  0  0
   14.8305    1.5084   22.7418 C   0  0  0  0  0  0  0  0  0  0  0  0
    9.8870    1.3260   23.5730 C   0  0  0  0  0  0  0  0  0  0  0  0
   13.4410    1.4289   24.7112 N   0  0  0  0  0  0  0  0  0  0  0  0
    6.7580    0.3810   17.8350 N   0  0  0  0  0  0  0  0  0  0  0  0
    7.6390   -0.2680   18.5410 N   0  0  0  0  0  0  0  0  0  0  0  0
   13.5326    1.4543   23.3706 N   0  0  0  0  0  0  0  0  0  0  0  0
    6.1790    0.5730   19.9990 N   0  0  0  0  0  0  0  0  0  0  0  0
    9.2562   -4.7384   25.5422 N   0  0  0  0  0  0  0  0  0  0  0  0
    8.1890   -0.7180   20.8700 N   0  0  0  0  0  0  0  0  0  0  0  0
    9.4560    0.1560   22.8130 N   0  0  0  0  0  0  0  0  0  0  0  0
    9.2690    1.4140   20.9380 O   0  0  0  0  0  0  0  0  0  0  0  0
    8.6905   -2.3533   26.5810 H   0  0  0  0  0  0  0  0  0  0  0  0
    9.9266   -4.3896   22.9917 H   0  0  0  0  0  0  0  0  0  0  0  0
    8.9233   -0.1992   25.4231 H   0  0  0  0  0  0  0  0  0  0  0  0
   10.0650   -2.2330   21.8256 H   0  0  0  0  0  0  0  0  0  0  0  0
   11.7624    1.3510   25.9426 H   0  0  0  0  0  0  0  0  0  0  0  0
   12.2462    1.4390   21.6566 H   0  0  0  0  0  0  0  0  0  0  0  0
    4.3967    1.9772   17.4718 H   0  0  0  0  0  0  0  0  0  0  0  0
    3.0218    2.6486   19.3697 H   0  0  0  0  0  0  0  0  0  0  0  0
    3.6566    2.0043   21.7065 H   0  0  0  0  0  0  0  0  0  0  0  0
    5.7190    0.6877   22.0810 H   0  0  0  0  0  0  0  0  0  0  0  0
    7.8482   -7.0901   27.4469 H   0  0  0  0  0  0  0  0  0  0  0  0
    6.3760   -6.1438   27.6724 H   0  0  0  0  0  0  0  0  0  0  0  0
    7.6307   -4.0424   27.6403 H   0  0  0  0  0  0  0  0  0  0  0  0
    8.3915   -5.1310   28.7968 H   0  0  0  0  0  0  0  0  0  0  0  0
    6.6888   -6.9376   25.3010 H   0  0  0  0  0  0  0  0  0  0  0  0
    6.5515   -5.1859   25.4257 H   0  0  0  0  0  0  0  0  0  0  0  0
   10.0492   -3.9640   27.3414 H   0  0  0  0  0  0  0  0  0  0  0  0
   10.1431   -5.7254   27.1778 H   0  0  0  0  0  0  0  0  0  0  0  0
    9.1338   -6.7931   25.0868 H   0  0  0  0  0  0  0  0  0  0  0  0
    8.3656   -5.7264   23.8998 H   0  0  0  0  0  0  0  0  0  0  0  0
   15.0990    2.5601   22.6124 H   0  0  0  0  0  0  0  0  0  0  0  0
   15.5636    1.0018   23.3756 H   0  0  0  0  0  0  0  0  0  0  0  0
   14.7841    1.0025   21.7733 H   0  0  0  0  0  0  0  0  0  0  0  0
    9.3974    1.2912   24.5523 H   0  0  0  0  0  0  0  0  0  0  0  0
    9.5159    2.2168   23.0553 H   0  0  0  0  0  0  0  0  0  0  0  0
    8.2565   -1.5523   21.1108 H   0  0  0  0  0  0  0  0  0  0  0  0
  1  3  2  0  0  0  0
  1  8  1  0  0  0  0
  2  4  1  0  0  0  0
  2  8  2  0  0  0  0
  3  9  1  0  0  0  0
  4  9  2  0  0  0  0
  5  7  1  0  0  0  0
  5 24  2  0  0  0  0
  6  7  2  0  0  0  0
  6 27  1  0  0  0  0
  7 23  1  0  0  0  0
  8 29  1  0  0  0  0
  9 31  1  0  0  0  0
 10 12  1  0  0  0  0
 10 25  2  0  0  0  0
 10 28  1  0  0  0  0
 11 26  2  0  0  0  0
 11 28  1  0  0  0  0
 11 30  1  0  0  0  0
 12 13  2  0  0  0  0
 13 14  1  0  0  0  0
 14 15  2  0  0  0  0
 15 28  1  0  0  0  0
 16 30  1  0  0  0  0
 16 31  1  0  0  0  0
 16 32  2  0  0  0  0
 17 18  1  0  0  0  0
 17 19  1  0  0  0  0
 18 20  1  0  0  0  0
 19 21  1  0  0  0  0
 20 29  1  0  0  0  0
 21 29  1  0  0  0  0
 22 27  1  0  0  0  0
 23 31  1  0  0  0  0
 24 27  1  0  0  0  0
 25 26  1  0  0  0  0
  1 33  1  0  0  0  0
  2 34  1  0  0  0  0
  3 35  1  0  0  0  0
  4 36  1  0  0  0  0
  5 37  1  0  0  0  0
  6 38  1  0  0  0  0
 12 39  1  0  0  0  0
 13 40  1  0  0  0  0
 14 41  1  0  0  0  0
 15 42  1  0  0  0  0
 17 43  1  0  0  0  0
 17 44  1  0  0  0  0
 18 45  1  0  0  0  0
 18 46  1  0  0  0  0
 19 47  1  0  0  0  0
 19 48  1  0  0  0  0
 20 49  1  0  0  0  0
 20 50  1  0  0  0  0
 21 51  1  0  0  0  0
 21 52  1  0  0  0  0
 22 53  1  0  0  0  0
 22 54  1  0  0  0  0
 22 55  1  0  0  0  0
 23 56  1  0  0  0  0
 23 57  1  0  0  0  0
 30 58  1  0  0  0  0
M  END
> <clash_score>
0

> <docking_score>
-8.373891830444336

> <overlap_score>
0.9881091713905334

$$$$
BENZO_150_1
  -OEChem-08222022173D

 58 62  0     0  0  0  0  0  0999 V2000
   13.4007    0.5725   24.7805 C   0  0  0  0  0  0  0  0  0  0  0  0
   12.0141    0.5273   24.6359 C   0  0  0  0  0  0  0  0  0  0  0  0
    8.9960   -2.3380   25.5320 C   0  0  0  0  0  0  0  0  0  0  0  0
    9.6730   -3.4710   23.5300 C   0  0  0  0  0  0  0  0  0  0  0  0
    9.0720   -1.1280   24.8640 C   0  0  0  0  0  0  0  0  0  0  0  0
    9.7200   -2.2600   22.8630 C   0  0  0  0  0  0  0  0  0  0  0  0
   14.1526    1.4666   24.0184 C   0  0  0  0  0  0  0  0  0  0  0  0
   12.1314    2.2702   22.9668 C   0  0  0  0  0  0  0  0  0  0  0  0
   11.3794    1.3761   23.7290 C   0  0  0  0  0  0  0  0  0  0  0  0
    9.3070   -3.5340   24.8780 C   0  0  0  0  0  0  0  0  0  0  0  0
    9.3350   -1.0880   23.5010 C   0  0  0  0  0  0  0  0  0  0  0  0
   13.5180    2.3154   23.1115 C   0  0  0  0  0  0  0  0  0  0  0  0
    5.8300    0.9190   18.6970 C   0  0  0  0  0  0  0  0  0  0  0  0
    7.3170   -0.1610   19.8550 C   0  0  0  0  0  0  0  0  0  0  0  0
    4.6890    1.6810   18.4640 C   0  0  0  0  0  0  0  0  0  0  0  0
    3.9160    2.0630   19.5520 C   0  0  0  0  0  0  0  0  0  0  0  0
    4.2750    1.7050   20.8490 C   0  0  0  0  0  0  0  0  0  0  0  0
    5.4210    0.9600   21.0930 C   0  0  0  0  0  0  0  0  0  0  0  0
    9.0420    0.3700   21.5280 C   0  0  0  0  0  0  0  0  0  0  0  0
    7.3635   -6.1361   27.1888 C   0  0  0  0  0  0  0  0  0  0  0  0
    8.1961   -4.9735   27.7341 C   0  0  0  0  0  0  0  0  0  0  0  0
    7.1942   -6.0394   25.6709 C   0  0  0  0  0  0  0  0  0  0  0  0
    9.5196   -4.8490   26.9797 C   0  0  0  0  0  0  0  0  0  0  0  0
    8.5442   -5.8838   24.9639 C   0  0  0  0  0  0  0  0  0  0  0  0
    9.8870    1.3260   23.5730 C   0  0  0  0  0  0  0  0  0  0  0  0
    6.7580    0.3810   17.8350 N   0  0  0  0  0  0  0  0  0  0  0  0
    7.6390   -0.2680   18.5410 N   0  0  0  0  0  0  0  0  0  0  0  0
    6.1790    0.5730   19.9990 N   0  0  0  0  0  0  0  0  0  0  0  0
    9.2562   -4.7384   25.5422 N   0  0  0  0  0  0  0  0  0  0  0  0
    8.1890   -0.7180   20.8700 N   0  0  0  0  0  0  0  0  0  0  0  0
    9.4560    0.1560   22.8130 N   0  0  0  0  0  0  0  0  0  0  0  0
    9.2690    1.4140   20.9380 O   0  0  0  0  0  0  0  0  0  0  0  0
   14.4463    3.4175   22.1707 Cl  0  0  0  0  0  0  0  0  0  0  0  0
   13.8945   -0.0888   25.4867 H   0  0  0  0  0  0  0  0  0  0  0  0
   11.4361   -0.1726   25.2338 H   0  0  0  0  0  0  0  0  0  0  0  0
    8.6905   -2.3533   26.5810 H   0  0  0  0  0  0  0  0  0  0  0  0
    9.9266   -4.3896   22.9917 H   0  0  0  0  0  0  0  0  0  0  0  0
    8.9233   -0.1992   25.4231 H   0  0  0  0  0  0  0  0  0  0  0  0
   10.0650   -2.2330   21.8256 H   0  0  0  0  0  0  0  0  0  0  0  0
   15.2326    1.4907   24.1414 H   0  0  0  0  0  0  0  0  0  0  0  0
   11.6317    2.9303   22.2615 H   0  0  0  0  0  0  0  0  0  0  0  0
    4.3967    1.9772   17.4718 H   0  0  0  0  0  0  0  0  0  0  0  0
    3.0218    2.6486   19.3697 H   0  0  0  0  0  0  0  0  0  0  0  0
    3.6566    2.0043   21.7065 H   0  0  0  0  0  0  0  0  0  0  0  0
    5.7190    0.6877   22.0810 H   0  0  0  0  0  0  0  0  0  0  0  0
    7.8482   -7.0901   27.4469 H   0  0  0  0  0  0  0  0  0  0  0  0
    6.3760   -6.1438   27.6724 H   0  0  0  0  0  0  0  0  0  0  0  0
    7.6307   -4.0424   27.6403 H   0  0  0  0  0  0  0  0  0  0  0  0
    8.3915   -5.1310   28.7968 H   0  0  0  0  0  0  0  0  0  0  0  0
    6.6888   -6.9376   25.3010 H   0  0  0  0  0  0  0  0  0  0  0  0
    6.5515   -5.1859   25.4257 H   0  0  0  0  0  0  0  0  0  0  0  0
   10.0492   -3.9640   27.3414 H   0  0  0  0  0  0  0  0  0  0  0  0
   10.1431   -5.7254   27.1778 H   0  0  0  0  0  0  0  0  0  0  0  0
    9.1338   -6.7931   25.0868 H   0  0  0  0  0  0  0  0  0  0  0  0
    8.3656   -5.7264   23.8998 H   0  0  0  0  0  0  0  0  0  0  0  0
    9.3974    1.2912   24.5523 H   0  0  0  0  0  0  0  0  0  0  0  0
    9.5159    2.2168   23.0553 H   0  0  0  0  0  0  0  0  0  0  0  0
    8.2565   -1.5523   21.1108 H   0  0  0  0  0  0  0  0  0  0  0  0
  1  2  2  0  0  0  0
  1  7  1  0  0  0  0
  2  9  1  0  0  0  0
  3  5  2  0  0  0  0
  3 10  1  0  0  0  0
  4  6  1  0  0  0  0
  4 10  2  0  0  0  0
  5 11  1  0  0  0  0
  6 11  2  0  0  0  0
  7 12  2  0  0  0  0
  8  9  2  0  0  0  0
  8 12  1  0  0  0  0
  9 25  1  0  0  0  0
 10 29  1  0  0  0  0
 11 31  1  0  0  0  0
 12 33  1  0  0  0  0
 13 15  1  0  0  0  0
 13 26  2  0  0  0  0
 13 28  1  0  0  0  0
 14 27  2  0  0  0  0
 14 28  1  0  0  0  0
 14 30  1  0  0  0  0
 15 16  2  0  0  0  0
 16 17  1  0  0  0  0
 17 18  2  0  0  0  0
 18 28  1  0  0  0  0
 19 30  1  0  0  0  0
 19 31  1  0  0  0  0
 19 32  2  0  0  0  0
 20 21  1  0  0  0  0
 20 22  1  0  0  0  0
 21 23  1  0  0  0  0
 22 24  1  0  0  0  0
 23 29  1  0  0  0  0
 24 29  1  0  0  0  0
 25 31  1  0  0  0  0
 26 27  1  0  0  0  0
  1 34  1  0  0  0  0
  2 35  1  0  0  0  0
  3 36  1  0  0  0  0
  4 37  1  0  0  0  0
  5 38  1  0  0  0  0
  6 39  1  0  0  0  0
  7 40  1  0  0  0  0
  8 41  1  0  0  0  0
 15 42  1  0  0  0  0
 16 43  1  0  0  0  0
 17 44  1  0  0  0  0
 18 45  1  0  0  0  0
 20 46  1  0  0  0  0
 20 47  1  0  0  0  0
 21 48  1  0  0  0  0
 21 49  1  0  0  0  0
 22 50  1  0  0  0  0
 22 51  1  0  0  0  0
 23 52  1  0  0  0  0
 23 53  1  0  0  0  0
 24 54  1  0  0  0  0
 24 55  1  0  0  0  0
 25 56  1  0  0  0  0
 25 57  1  0  0  0  0
 30 58  1  0  0  0  0
M  END
> <clash_score>
0

> <docking_score>
-7.794750690460205

> <overlap_score>
1.0042749643325806

$$$$
BENZO_155_1
  -OEChem-08222022173D

 46 49  0     0  0  0  0  0  0999 V2000
    8.9960   -2.3380   25.5320 C   0  0  0  0  0  0  0  0  0  0  0  0
    9.6730   -3.4710   23.5300 C   0  0  0  0  0  0  0  0  0  0  0  0
    9.0720   -1.1280   24.8640 C   0  0  0  0  0  0  0  0  0  0  0  0
    9.7200   -2.2600   22.8630 C   0  0  0  0  0  0  0  0  0  0  0  0
   12.2914    2.2071   23.0512 C   0  0  0  0  0  0  0  0  0  0  0  0
   12.1614    0.6214   24.5689 C   0  0  0  0  0  0  0  0  0  0  0  0
    9.3070   -3.5340   24.8780 C   0  0  0  0  0  0  0  0  0  0  0  0
   11.3794    1.3761   23.7290 C   0  0  0  0  0  0  0  0  0  0  0  0
    9.3350   -1.0880   23.5010 C   0  0  0  0  0  0  0  0  0  0  0  0
    5.8300    0.9190   18.6970 C   0  0  0  0  0  0  0  0  0  0  0  0
    7.3170   -0.1610   19.8550 C   0  0  0  0  0  0  0  0  0  0  0  0
    4.6890    1.6810   18.4640 C   0  0  0  0  0  0  0  0  0  0  0  0
    3.9160    2.0630   19.5520 C   0  0  0  0  0  0  0  0  0  0  0  0
    4.2750    1.7050   20.8490 C   0  0  0  0  0  0  0  0  0  0  0  0
    5.4210    0.9600   21.0930 C   0  0  0  0  0  0  0  0  0  0  0  0
    9.0420    0.3700   21.5280 C   0  0  0  0  0  0  0  0  0  0  0  0
    9.2505   -4.8264   25.5904 C   0  0  0  0  0  0  0  0  0  0  0  0
   14.6267    0.5248   25.0067 C   0  0  0  0  0  0  0  0  0  0  0  0
    9.8870    1.3260   23.5730 C   0  0  0  0  0  0  0  0  0  0  0  0
   13.5560    2.0002   23.4280 N   0  0  0  0  0  0  0  0  0  0  0  0
    6.7580    0.3810   17.8350 N   0  0  0  0  0  0  0  0  0  0  0  0
    7.6390   -0.2680   18.5410 N   0  0  0  0  0  0  0  0  0  0  0  0
   13.4442    1.0306   24.3518 N   0  0  0  0  0  0  0  0  0  0  0  0
    6.1790    0.5730   19.9990 N   0  0  0  0  0  0  0  0  0  0  0  0
    8.1890   -0.7180   20.8700 N   0  0  0  0  0  0  0  0  0  0  0  0
    9.4560    0.1560   22.8130 N   0  0  0  0  0  0  0  0  0  0  0  0
    9.2690    1.4140   20.9380 O   0  0  0  0  0  0  0  0  0  0  0  0
    8.6919   -2.3557   26.5813 H   0  0  0  0  0  0  0  0  0  0  0  0
    9.9267   -4.3907   22.9939 H   0  0  0  0  0  0  0  0  0  0  0  0
    8.9217   -0.1995   25.4231 H   0  0  0  0  0  0  0  0  0  0  0  0
   10.0653   -2.2339   21.8256 H   0  0  0  0  0  0  0  0  0  0  0  0
   12.0895    2.9562   22.2987 H   0  0  0  0  0  0  0  0  0  0  0  0
   11.9201   -0.1518   25.2857 H   0  0  0  0  0  0  0  0  0  0  0  0
    4.3967    1.9772   17.4718 H   0  0  0  0  0  0  0  0  0  0  0  0
    3.0218    2.6486   19.3697 H   0  0  0  0  0  0  0  0  0  0  0  0
    3.6566    2.0043   21.7065 H   0  0  0  0  0  0  0  0  0  0  0  0
    5.7190    0.6877   22.0810 H   0  0  0  0  0  0  0  0  0  0  0  0
    8.2503   -5.2678   25.5020 H   0  0  0  0  0  0  0  0  0  0  0  0
    9.9817   -5.5374   25.1845 H   0  0  0  0  0  0  0  0  0  0  0  0
    9.4841   -4.7043   26.6562 H   0  0  0  0  0  0  0  0  0  0  0  0
   15.0068   -0.3132   24.4165 H   0  0  0  0  0  0  0  0  0  0  0  0
   15.3758    1.3189   25.0698 H   0  0  0  0  0  0  0  0  0  0  0  0
   14.3676    0.1958   26.0170 H   0  0  0  0  0  0  0  0  0  0  0  0
    9.3974    1.2912   24.5523 H   0  0  0  0  0  0  0  0  0  0  0  0
    9.5159    2.2168   23.0553 H   0  0  0  0  0  0  0  0  0  0  0  0
    8.2360   -1.5649   21.0923 H   0  0  0  0  0  0  0  0  0  0  0  0
  1  3  2  0  0  0  0
  1  7  1  0  0  0  0
  2  4  1  0  0  0  0
  2  7  2  0  0  0  0
  3  9  1  0  0  0  0
  4  9  2  0  0  0  0
  5  8  1  0  0  0  0
  5 20  2  0  0  0  0
  6  8  2  0  0  0  0
  6 23  1  0  0  0  0
  7 17  1  0  0  0  0
  8 19  1  0  0  0  0
  9 26  1  0  0  0  0
 10 12  1  0  0  0  0
 10 21  2  0  0  0  0
 10 24  1  0  0  0  0
 11 22  2  0  0  0  0
 11 24  1  0  0  0  0
 11 25  1  0  0  0  0
 12 13  2  0  0  0  0
 13 14  1  0  0  0  0
 14 15  2  0  0  0  0
 15 24  1  0  0  0  0
 16 25  1  0  0  0  0
 16 26  1  0  0  0  0
 16 27  2  0  0  0  0
 18 23  1  0  0  0  0
 19 26  1  0  0  0  0
 20 23  1  0  0  0  0
 21 22  1  0  0  0  0
  1 28  1  0  0  0  0
  2 29  1  0  0  0  0
  3 30  1  0  0  0  0
  4 31  1  0  0  0  0
  5 32  1  0  0  0  0
  6 33  1  0  0  0  0
 12 34  1  0  0  0  0
 13 35  1  0  0  0  0
 14 36  1  0  0  0  0
 15 37  1  0  0  0  0
 17 38  1  0  0  0  0
 17 39  1  0  0  0  0
 17 40  1  0  0  0  0
 18 41  1  0  0  0  0
 18 42  1  0  0  0  0
 18 43  1  0  0  0  0
 19 44  1  0  0  0  0
 19 45  1  0  0  0  0
 25 46  1  0  0  0  0
M  END
> <clash_score>
0.6199421715403106

> <docking_score>
-8.61080551147461

> <overlap_score>
0.9382389187812805

$$$$
BENZO_154_1
  -OEChem-08222022173D

 46 49  0     0  0  0  0  0  0999 V2000
   13.4007    0.5725   24.7805 C   0  0  0  0  0  0  0  0  0  0  0  0
   12.0141    0.5273   24.6359 C   0  0  0  0  0  0  0  0  0  0  0  0
    8.9960   -2.3380   25.5320 C   0  0  0  0  0  0  0  0  0  0  0  0
    9.6730   -3.4710   23.5300 C   0  0  0  0  0  0  0  0  0  0  0  0
    9.0720   -1.1280   24.8640 C   0  0  0  0  0  0  0  0  0  0  0  0
    9.7200   -2.2600   22.8630 C   0  0  0  0  0  0  0  0  0  0  0  0
   14.1526    1.4666   24.0184 C   0  0  0  0  0  0  0  0  0  0  0  0
   12.1314    2.2702   22.9668 C   0  0  0  0  0  0  0  0  0  0  0  0
    9.3070   -3.5340   24.8780 C   0  0  0  0  0  0  0  0  0  0  0  0
   11.3794    1.3761   23.7290 C   0  0  0  0  0  0  0  0  0  0  0  0
    9.3350   -1.0880   23.5010 C   0  0  0  0  0  0  0  0  0  0  0  0
   13.5180    2.3154   23.1115 C   0  0  0  0  0  0  0  0  0  0  0  0
    5.8300    0.9190   18.6970 C   0  0  0  0  0  0  0  0  0  0  0  0
    7.3170   -0.1610   19.8550 C   0  0  0  0  0  0  0  0  0  0  0  0
    4.6890    1.6810   18.4640 C   0  0  0  0  0  0  0  0  0  0  0  0
    3.9160    2.0630   19.5520 C   0  0  0  0  0  0  0  0  0  0  0  0
    4.2750    1.7050   20.8490 C   0  0  0  0  0  0  0  0  0  0  0  0
    5.4210    0.9600   21.0930 C   0  0  0  0  0  0  0  0  0  0  0  0
    9.0420    0.3700   21.5280 C   0  0  0  0  0  0  0  0  0  0  0  0
    9.2505   -4.8264   25.5904 C   0  0  0  0  0  0  0  0  0  0  0  0
    9.8870    1.3260   23.5730 C   0  0  0  0  0  0  0  0  0  0  0  0
    6.7580    0.3810   17.8350 N   0  0  0  0  0  0  0  0  0  0  0  0
    7.6390   -0.2680   18.5410 N   0  0  0  0  0  0  0  0  0  0  0  0
    6.1790    0.5730   19.9990 N   0  0  0  0  0  0  0  0  0  0  0  0
    8.1890   -0.7180   20.8700 N   0  0  0  0  0  0  0  0  0  0  0  0
    9.4560    0.1560   22.8130 N   0  0  0  0  0  0  0  0  0  0  0  0
    9.2690    1.4140   20.9380 O   0  0  0  0  0  0  0  0  0  0  0  0
   14.4463    3.4175   22.1707 Cl  0  0  0  0  0  0  0  0  0  0  0  0
   13.8945   -0.0888   25.4867 H   0  0  0  0  0  0  0  0  0  0  0  0
   11.4361   -0.1726   25.2338 H   0  0  0  0  0  0  0  0  0  0  0  0
    8.6919   -2.3557   26.5813 H   0  0  0  0  0  0  0  0  0  0  0  0
    9.9267   -4.3907   22.9939 H   0  0  0  0  0  0  0  0  0  0  0  0
    8.9217   -0.1995   25.4231 H   0  0  0  0  0  0  0  0  0  0  0  0
   10.0653   -2.2339   21.8256 H   0  0  0  0  0  0  0  0  0  0  0  0
   15.2326    1.4907   24.1414 H   0  0  0  0  0  0  0  0  0  0  0  0
   11.6318    2.9303   22.2615 H   0  0  0  0  0  0  0  0  0  0  0  0
    4.3967    1.9772   17.4718 H   0  0  0  0  0  0  0  0  0  0  0  0
    3.0218    2.6486   19.3697 H   0  0  0  0  0  0  0  0  0  0  0  0
    3.6566    2.0043   21.7065 H   0  0  0  0  0  0  0  0  0  0  0  0
    5.7190    0.6877   22.0810 H   0  0  0  0  0  0  0  0  0  0  0  0
    8.2503   -5.2678   25.5020 H   0  0  0  0  0  0  0  0  0  0  0  0
    9.9817   -5.5374   25.1845 H   0  0  0  0  0  0  0  0  0  0  0  0
    9.4841   -4.7043   26.6562 H   0  0  0  0  0  0  0  0  0  0  0  0
    9.3974    1.2912   24.5523 H   0  0  0  0  0  0  0  0  0  0  0  0
    9.5159    2.2168   23.0553 H   0  0  0  0  0  0  0  0  0  0  0  0
    8.2360   -1.5649   21.0923 H   0  0  0  0  0  0  0  0  0  0  0  0
  1  2  2  0  0  0  0
  1  7  1  0  0  0  0
  2 10  1  0  0  0  0
  3  5  2  0  0  0  0
  3  9  1  0  0  0  0
  4  6  1  0  0  0  0
  4  9  2  0  0  0  0
  5 11  1  0  0  0  0
  6 11  2  0  0  0  0
  7 12  2  0  0  0  0
  8 10  2  0  0  0  0
  8 12  1  0  0  0  0
  9 20  1  0  0  0  0
 10 21  1  0  0  0  0
 11 26  1  0  0  0  0
 12 28  1  0  0  0  0
 13 15  1  0  0  0  0
 13 22  2  0  0  0  0
 13 24  1  0  0  0  0
 14 23  2  0  0  0  0
 14 24  1  0  0  0  0
 14 25  1  0  0  0  0
 15 16  2  0  0  0  0
 16 17  1  0  0  0  0
 17 18  2  0  0  0  0
 18 24  1  0  0  0  0
 19 25  1  0  0  0  0
 19 26  1  0  0  0  0
 19 27  2  0  0  0  0
 21 26  1  0  0  0  0
 22 23  1  0  0  0  0
  1 29  1  0  0  0  0
  2 30  1  0  0  0  0
  3 31  1  0  0  0  0
  4 32  1  0  0  0  0
  5 33  1  0  0  0  0
  6 34  1  0  0  0  0
  7 35  1  0  0  0  0
  8 36  1  0  0  0  0
 15 37  1  0  0  0  0
 16 38  1  0  0  0  0
 17 39  1  0  0  0  0
 18 40  1  0  0  0  0
 20 41  1  0  0  0  0
 20 42  1  0  0  0  0
 20 43  1  0  0  0  0
 21 44  1  0  0  0  0
 21 45  1  0  0  0  0
 25 46  1  0  0  0  0
M  END
> <clash_score>
0

> <docking_score>
-8.03976821899414

> <overlap_score>
0.9507185220718384

$$$$
BENZO_157_1
  -OEChem-08222022173D

 47 50  0     0  0  0  0  0  0999 V2000
   14.1526    1.4694   24.0176 C   0  0  0  0  0  0  0  0  0  0  0  0
   13.3741    0.8121   24.9701 C   0  0  0  0  0  0  0  0  0  0  0  0
   13.5446    2.0802   22.9208 C   0  0  0  0  0  0  0  0  0  0  0  0
   11.9875    0.7654   24.8258 C   0  0  0  0  0  0  0  0  0  0  0  0
   12.1580    2.0335   22.7765 C   0  0  0  0  0  0  0  0  0  0  0  0
    9.0720   -1.1280   24.8640 C   0  0  0  0  0  0  0  0  0  0  0  0
    9.7200   -2.2600   22.8630 C   0  0  0  0  0  0  0  0  0  0  0  0
    8.9960   -2.3380   25.5320 C   0  0  0  0  0  0  0  0  0  0  0  0
    9.6730   -3.4710   23.5300 C   0  0  0  0  0  0  0  0  0  0  0  0
   11.3794    1.3761   23.7290 C   0  0  0  0  0  0  0  0  0  0  0  0
    9.3350   -1.0880   23.5010 C   0  0  0  0  0  0  0  0  0  0  0  0
    9.3070   -3.5340   24.8780 C   0  0  0  0  0  0  0  0  0  0  0  0
    5.8300    0.9190   18.6970 C   0  0  0  0  0  0  0  0  0  0  0  0
    7.3170   -0.1610   19.8550 C   0  0  0  0  0  0  0  0  0  0  0  0
    4.6890    1.6810   18.4640 C   0  0  0  0  0  0  0  0  0  0  0  0
    3.9160    2.0630   19.5520 C   0  0  0  0  0  0  0  0  0  0  0  0
    4.2750    1.7050   20.8490 C   0  0  0  0  0  0  0  0  0  0  0  0
    5.4210    0.9600   21.0930 C   0  0  0  0  0  0  0  0  0  0  0  0
    9.0420    0.3700   21.5280 C   0  0  0  0  0  0  0  0  0  0  0  0
    9.5894   -5.8809   24.7798 C   0  0  0  0  0  0  0  0  0  0  0  0
    9.8870    1.3260   23.5730 C   0  0  0  0  0  0  0  0  0  0  0  0
    6.7580    0.3810   17.8350 N   0  0  0  0  0  0  0  0  0  0  0  0
    7.6390   -0.2680   18.5410 N   0  0  0  0  0  0  0  0  0  0  0  0
    6.1790    0.5730   19.9990 N   0  0  0  0  0  0  0  0  0  0  0  0
    8.1890   -0.7180   20.8700 N   0  0  0  0  0  0  0  0  0  0  0  0
    9.4560    0.1560   22.8130 N   0  0  0  0  0  0  0  0  0  0  0  0
    9.2690    1.4140   20.9380 O   0  0  0  0  0  0  0  0  0  0  0  0
    9.2555   -4.7124   25.5274 O   0  0  0  0  0  0  0  0  0  0  0  0
   15.2322    1.5068   24.1308 H   0  0  0  0  0  0  0  0  0  0  0  0
   13.8473    0.3374   25.8248 H   0  0  0  0  0  0  0  0  0  0  0  0
   14.1503    2.5930   22.1795 H   0  0  0  0  0  0  0  0  0  0  0  0
   11.3889    0.2508   25.5729 H   0  0  0  0  0  0  0  0  0  0  0  0
   11.6930    2.5120   21.9187 H   0  0  0  0  0  0  0  0  0  0  0  0
    8.9221   -0.1995   25.4231 H   0  0  0  0  0  0  0  0  0  0  0  0
   10.0642   -2.2347   21.8253 H   0  0  0  0  0  0  0  0  0  0  0  0
    8.6902   -2.3588   26.5805 H   0  0  0  0  0  0  0  0  0  0  0  0
    9.9254   -4.3921   22.9961 H   0  0  0  0  0  0  0  0  0  0  0  0
    4.3967    1.9772   17.4718 H   0  0  0  0  0  0  0  0  0  0  0  0
    3.0218    2.6486   19.3697 H   0  0  0  0  0  0  0  0  0  0  0  0
    3.6566    2.0043   21.7065 H   0  0  0  0  0  0  0  0  0  0  0  0
    5.7190    0.6877   22.0810 H   0  0  0  0  0  0  0  0  0  0  0  0
    9.5074   -6.7611   25.4222 H   0  0  0  0  0  0  0  0  0  0  0  0
   10.6088   -5.7902   24.3963 H   0  0  0  0  0  0  0  0  0  0  0  0
    8.8944   -5.9778   23.9424 H   0  0  0  0  0  0  0  0  0  0  0  0
    9.3974    1.2912   24.5523 H   0  0  0  0  0  0  0  0  0  0  0  0
    9.5159    2.2168   23.0553 H   0  0  0  0  0  0  0  0  0  0  0  0
    8.2360   -1.5649   21.0923 H   0  0  0  0  0  0  0  0  0  0  0  0
  1  2  1  0  0  0  0
  1  3  2  0  0  0  0
  2  4  2  0  0  0  0
  3  5  1  0  0  0  0
  4 10  1  0  0  0  0
  5 10  2  0  0  0  0
  6  8  2  0  0  0  0
  6 11  1  0  0  0  0
  7  9  1  0  0  0  0
  7 11  2  0  0  0  0
  8 12  1  0  0  0  0
  9 12  2  0  0  0  0
 10 21  1  0  0  0  0
 11 26  1  0  0  0  0
 12 28  1  0  0  0  0
 13 15  1  0  0  0  0
 13 22  2  0  0  0  0
 13 24  1  0  0  0  0
 14 23  2  0  0  0  0
 14 24  1  0  0  0  0
 14 25  1  0  0  0  0
 15 16  2  0  0  0  0
 16 17  1  0  0  0  0
 17 18  2  0  0  0  0
 18 24  1  0  0  0  0
 19 25  1  0  0  0  0
 19 26  1  0  0  0  0
 19 27  2  0  0  0  0
 20 28  1  0  0  0  0
 21 26  1  0  0  0  0
 22 23  1  0  0  0  0
  1 29  1  0  0  0  0
  2 30  1  0  0  0  0
  3 31  1  0  0  0  0
  4 32  1  0  0  0  0
  5 33  1  0  0  0  0
  6 34  1  0  0  0  0
  7 35  1  0  0  0  0
  8 36  1  0  0  0  0
  9 37  1  0  0  0  0
 15 38  1  0  0  0  0
 16 39  1  0  0  0  0
 17 40  1  0  0  0  0
 18 41  1  0  0  0  0
 20 42  1  0  0  0  0
 20 43  1  0  0  0  0
 20 44  1  0  0  0  0
 21 45  1  0  0  0  0
 21 46  1  0  0  0  0
 25 47  1  0  0  0  0
M  END
> <clash_score>
0

> <docking_score>
-8.60890007019043

> <overlap_score>
0.9642544984817505

$$$$
BENZO_156_1
  -OEChem-08222022173D

 44 47  0     0  0  0  0  0  0999 V2000
    9.0720   -1.1280   24.8640 C   0  0  0  0  0  0  0  0  0  0  0  0
    9.7200   -2.2600   22.8630 C   0  0  0  0  0  0  0  0  0  0  0  0
    8.9960   -2.3380   25.5320 C   0  0  0  0  0  0  0  0  0  0  0  0
    9.6730   -3.4710   23.5300 C   0  0  0  0  0  0  0  0  0  0  0  0
   12.2111    0.2208   23.7905 C   0  0  0  0  0  0  0  0  0  0  0  0
   13.5412    0.5479   23.9364 C   0  0  0  0  0  0  0  0  0  0  0  0
   12.1057    2.5424   23.8305 C   0  0  0  0  0  0  0  0  0  0  0  0
   11.3794    1.3761   23.7290 C   0  0  0  0  0  0  0  0  0  0  0  0
    9.3350   -1.0880   23.5010 C   0  0  0  0  0  0  0  0  0  0  0  0
    9.3070   -3.5340   24.8780 C   0  0  0  0  0  0  0  0  0  0  0  0
    5.8300    0.9190   18.6970 C   0  0  0  0  0  0  0  0  0  0  0  0
    7.3170   -0.1610   19.8550 C   0  0  0  0  0  0  0  0  0  0  0  0
    4.6890    1.6810   18.4640 C   0  0  0  0  0  0  0  0  0  0  0  0
    3.9160    2.0630   19.5520 C   0  0  0  0  0  0  0  0  0  0  0  0
    4.2750    1.7050   20.8490 C   0  0  0  0  0  0  0  0  0  0  0  0
    5.4210    0.9600   21.0930 C   0  0  0  0  0  0  0  0  0  0  0  0
    9.0420    0.3700   21.5280 C   0  0  0  0  0  0  0  0  0  0  0  0
    9.5894   -5.8809   24.7798 C   0  0  0  0  0  0  0  0  0  0  0  0
    9.8870    1.3260   23.5730 C   0  0  0  0  0  0  0  0  0  0  0  0
    6.7580    0.3810   17.8350 N   0  0  0  0  0  0  0  0  0  0  0  0
    7.6390   -0.2680   18.5410 N   0  0  0  0  0  0  0  0  0  0  0  0
    6.1790    0.5730   19.9990 N   0  0  0  0  0  0  0  0  0  0  0  0
    8.1890   -0.7180   20.8700 N   0  0  0  0  0  0  0  0  0  0  0  0
    9.4560    0.1560   22.8130 N   0  0  0  0  0  0  0  0  0  0  0  0
    9.2690    1.4140   20.9380 O   0  0  0  0  0  0  0  0  0  0  0  0
    9.2555   -4.7124   25.5274 O   0  0  0  0  0  0  0  0  0  0  0  0
   13.7831    2.2420   23.9988 S   0  0  0  0  0  0  0  0  0  0  0  0
    8.9221   -0.1995   25.4231 H   0  0  0  0  0  0  0  0  0  0  0  0
   10.0642   -2.2347   21.8253 H   0  0  0  0  0  0  0  0  0  0  0  0
    8.6902   -2.3588   26.5805 H   0  0  0  0  0  0  0  0  0  0  0  0
    9.9254   -4.3921   22.9961 H   0  0  0  0  0  0  0  0  0  0  0  0
   11.8558   -0.8003   23.7315 H   0  0  0  0  0  0  0  0  0  0  0  0
   14.3824   -0.1267   24.0100 H   0  0  0  0  0  0  0  0  0  0  0  0
   11.7354    3.5581   23.8155 H   0  0  0  0  0  0  0  0  0  0  0  0
    4.3967    1.9772   17.4718 H   0  0  0  0  0  0  0  0  0  0  0  0
    3.0218    2.6486   19.3697 H   0  0  0  0  0  0  0  0  0  0  0  0
    3.6566    2.0043   21.7065 H   0  0  0  0  0  0  0  0  0  0  0  0
    5.7190    0.6877   22.0810 H   0  0  0  0  0  0  0  0  0  0  0  0
    9.5074   -6.7611   25.4222 H   0  0  0  0  0  0  0  0  0  0  0  0
   10.6088   -5.7902   24.3963 H   0  0  0  0  0  0  0  0  0  0  0  0
    8.8944   -5.9778   23.9424 H   0  0  0  0  0  0  0  0  0  0  0  0
    9.3974    1.2912   24.5523 H   0  0  0  0  0  0  0  0  0  0  0  0
    9.5159    2.2168   23.0553 H   0  0  0  0  0  0  0  0  0  0  0  0
    8.2360   -1.5649   21.0923 H   0  0  0  0  0  0  0  0  0  0  0  0
  1  3  2  0  0  0  0
  1  9  1  0  0  0  0
  2  4  1  0  0  0  0
  2  9  2  0  0  0  0
  3 10  1  0  0  0  0
  4 10  2  0  0  0  0
  5  6  2  0  0  0  0
  5  8  1  0  0  0  0
  6 27  1  0  0  0  0
  7  8  2  0  0  0  0
  7 27  1  0  0  0  0
  8 19  1  0  0  0  0
  9 24  1  0  0  0  0
 10 26  1  0  0  0  0
 11 13  1  0  0  0  0
 11 20  2  0  0  0  0
 11 22  1  0  0  0  0
 12 21  2  0  0  0  0
 12 22  1  0  0  0  0
 12 23  1  0  0  0  0
 13 14  2  0  0  0  0
 14 15  1  0  0  0  0
 15 16  2  0  0  0  0
 16 22  1  0  0  0  0
 17 23  1  0  0  0  0
 17 24  1  0  0  0  0
 17 25  2  0  0  0  0
 18 26  1  0  0  0  0
 19 24  1  0  0  0  0
 20 21  1  0  0  0  0
  1 28  1  0  0  0  0
  2 29  1  0  0  0  0
  3 30  1  0  0  0  0
  4 31  1  0  0  0  0
  5 32  1  0  0  0  0
  6 33  1  0  0  0  0
  7 34  1  0  0  0  0
 13 35  1  0  0  0  0
 14 36  1  0  0  0  0
 15 37  1  0  0  0  0
 16 38  1  0  0  0  0
 18 39  1  0  0  0  0
 18 40  1  0  0  0  0
 18 41  1  0  0  0  0
 19 42  1  0  0  0  0
 19 43  1  0  0  0  0
 23 44  1  0  0  0  0
M  END
> <clash_score>
0

> <docking_score>
-7.882091045379639

> <overlap_score>
0.9491583704948425

$$$$
BENZO_159_1
  -OEChem-08222022173D

 47 50  0     0  0  0  0  0  0999 V2000
    9.0720   -1.1280   24.8640 C   0  0  0  0  0  0  0  0  0  0  0  0
    9.7200   -2.2600   22.8630 C   0  0  0  0  0  0  0  0  0  0  0  0
    8.9960   -2.3380   25.5320 C   0  0  0  0  0  0  0  0  0  0  0  0
    9.6730   -3.4710   23.5300 C   0  0  0  0  0  0  0  0  0  0  0  0
   12.2914    2.2071   23.0512 C   0  0  0  0  0  0  0  0  0  0  0  0
   12.1614    0.6214   24.5689 C   0  0  0  0  0  0  0  0  0  0  0  0
   11.3794    1.3761   23.7290 C   0  0  0  0  0  0  0  0  0  0  0  0
    9.3350   -1.0880   23.5010 C   0  0  0  0  0  0  0  0  0  0  0  0
    9.3070   -3.5340   24.8780 C   0  0  0  0  0  0  0  0  0  0  0  0
    5.8300    0.9190   18.6970 C   0  0  0  0  0  0  0  0  0  0  0  0
    7.3170   -0.1610   19.8550 C   0  0  0  0  0  0  0  0  0  0  0  0
    4.6890    1.6810   18.4640 C   0  0  0  0  0  0  0  0  0  0  0  0
    3.9160    2.0630   19.5520 C   0  0  0  0  0  0  0  0  0  0  0  0
    4.2750    1.7050   20.8490 C   0  0  0  0  0  0  0  0  0  0  0  0
    5.4210    0.9600   21.0930 C   0  0  0  0  0  0  0  0  0  0  0  0
    9.0420    0.3700   21.5280 C   0  0  0  0  0  0  0  0  0  0  0  0
   14.6267    0.5248   25.0067 C   0  0  0  0  0  0  0  0  0  0  0  0
    8.8720   -4.6805   26.9013 C   0  0  0  0  0  0  0  0  0  0  0  0
    9.8870    1.3260   23.5730 C   0  0  0  0  0  0  0  0  0  0  0  0
   13.5560    2.0002   23.4280 N   0  0  0  0  0  0  0  0  0  0  0  0
    6.7580    0.3810   17.8350 N   0  0  0  0  0  0  0  0  0  0  0  0
    7.6390   -0.2680   18.5410 N   0  0  0  0  0  0  0  0  0  0  0  0
   13.4442    1.0306   24.3518 N   0  0  0  0  0  0  0  0  0  0  0  0
    6.1790    0.5730   19.9990 N   0  0  0  0  0  0  0  0  0  0  0  0
    8.1890   -0.7180   20.8700 N   0  0  0  0  0  0  0  0  0  0  0  0
    9.4560    0.1560   22.8130 N   0  0  0  0  0  0  0  0  0  0  0  0
    9.2690    1.4140   20.9380 O   0  0  0  0  0  0  0  0  0  0  0  0
    9.2555   -4.7124   25.5274 O   0  0  0  0  0  0  0  0  0  0  0  0
    8.9221   -0.1995   25.4231 H   0  0  0  0  0  0  0  0  0  0  0  0
   10.0642   -2.2347   21.8253 H   0  0  0  0  0  0  0  0  0  0  0  0
    8.6902   -2.3588   26.5805 H   0  0  0  0  0  0  0  0  0  0  0  0
    9.9254   -4.3921   22.9961 H   0  0  0  0  0  0  0  0  0  0  0  0
   12.0895    2.9562   22.2987 H   0  0  0  0  0  0  0  0  0  0  0  0
   11.9201   -0.1518   25.2857 H   0  0  0  0  0  0  0  0  0  0  0  0
    4.3967    1.9772   17.4718 H   0  0  0  0  0  0  0  0  0  0  0  0
    3.0218    2.6486   19.3697 H   0  0  0  0  0  0  0  0  0  0  0  0
    3.6566    2.0043   21.7065 H   0  0  0  0  0  0  0  0  0  0  0  0
    5.7190    0.6877   22.0810 H   0  0  0  0  0  0  0  0  0  0  0  0
   15.0068   -0.3132   24.4165 H   0  0  0  0  0  0  0  0  0  0  0  0
   15.3758    1.3189   25.0698 H   0  0  0  0  0  0  0  0  0  0  0  0
   14.3676    0.1958   26.0170 H   0  0  0  0  0  0  0  0  0  0  0  0
    8.8711   -5.6964   27.3038 H   0  0  0  0  0  0  0  0  0  0  0  0
    7.8758   -4.2402   26.9923 H   0  0  0  0  0  0  0  0  0  0  0  0
    9.5894   -4.0716   27.4566 H   0  0  0  0  0  0  0  0  0  0  0  0
    9.3974    1.2912   24.5523 H   0  0  0  0  0  0  0  0  0  0  0  0
    9.5159    2.2168   23.0553 H   0  0  0  0  0  0  0  0  0  0  0  0
    8.2360   -1.5649   21.0923 H   0  0  0  0  0  0  0  0  0  0  0  0
  1  3  2  0  0  0  0
  1  8  1  0  0  0  0
  2  4  1  0  0  0  0
  2  8  2  0  0  0  0
  3  9  1  0  0  0  0
  4  9  2  0  0  0  0
  5  7  1  0  0  0  0
  5 20  2  0  0  0  0
  6  7  2  0  0  0  0
  6 23  1  0  0  0  0
  7 19  1  0  0  0  0
  8 26  1  0  0  0  0
  9 28  1  0  0  0  0
 10 12  1  0  0  0  0
 10 21  2  0  0  0  0
 10 24  1  0  0  0  0
 11 22  2  0  0  0  0
 11 24  1  0  0  0  0
 11 25  1  0  0  0  0
 12 13  2  0  0  0  0
 13 14  1  0  0  0  0
 14 15  2  0  0  0  0
 15 24  1  0  0  0  0
 16 25  1  0  0  0  0
 16 26  1  0  0  0  0
 16 27  2  0  0  0  0
 17 23  1  0  0  0  0
 18 28  1  0  0  0  0
 19 26  1  0  0  0  0
 20 23  1  0  0  0  0
 21 22  1  0  0  0  0
  1 29  1  0  0  0  0
  2 30  1  0  0  0  0
  3 31  1  0  0  0  0
  4 32  1  0  0  0  0
  5 33  1  0  0  0  0
  6 34  1  0  0  0  0
 12 35  1  0  0  0  0
 13 36  1  0  0  0  0
 14 37  1  0  0  0  0
 15 38  1  0  0  0  0
 17 39  1  0  0  0  0
 17 40  1  0  0  0  0
 17 41  1  0  0  0  0
 18 42  1  0  0  0  0
 18 43  1  0  0  0  0
 18 44  1  0  0  0  0
 19 45  1  0  0  0  0
 19 46  1  0  0  0  0
 25 47  1  0  0  0  0
M  END
> <clash_score>
0.6199421715403106

> <docking_score>
-8.347112655639648

> <overlap_score>
0.9605907797813416

$$$$
BENZO_158_1
  -OEChem-08222022173D

 47 50  0     0  0  0  0  0  0999 V2000
   13.4007    0.5725   24.7805 C   0  0  0  0  0  0  0  0  0  0  0  0
   12.0141    0.5273   24.6359 C   0  0  0  0  0  0  0  0  0  0  0  0
    9.0720   -1.1280   24.8640 C   0  0  0  0  0  0  0  0  0  0  0  0
    9.7200   -2.2600   22.8630 C   0  0  0  0  0  0  0  0  0  0  0  0
    8.9960   -2.3380   25.5320 C   0  0  0  0  0  0  0  0  0  0  0  0
    9.6730   -3.4710   23.5300 C   0  0  0  0  0  0  0  0  0  0  0  0
   14.1526    1.4666   24.0184 C   0  0  0  0  0  0  0  0  0  0  0  0
   12.1314    2.2702   22.9668 C   0  0  0  0  0  0  0  0  0  0  0  0
   11.3794    1.3761   23.7290 C   0  0  0  0  0  0  0  0  0  0  0  0
    9.3350   -1.0880   23.5010 C   0  0  0  0  0  0  0  0  0  0  0  0
    9.3070   -3.5340   24.8780 C   0  0  0  0  0  0  0  0  0  0  0  0
   13.5180    2.3154   23.1115 C   0  0  0  0  0  0  0  0  0  0  0  0
    5.8300    0.9190   18.6970 C   0  0  0  0  0  0  0  0  0  0  0  0
    7.3170   -0.1610   19.8550 C   0  0  0  0  0  0  0  0  0  0  0  0
    4.6890    1.6810   18.4640 C   0  0  0  0  0  0  0  0  0  0  0  0
    3.9160    2.0630   19.5520 C   0  0  0  0  0  0  0  0  0  0  0  0
    4.2750    1.7050   20.8490 C   0  0  0  0  0  0  0  0  0  0  0  0
    5.4210    0.9600   21.0930 C   0  0  0  0  0  0  0  0  0  0  0  0
    9.0420    0.3700   21.5280 C   0  0  0  0  0  0  0  0  0  0  0  0
    8.8720   -4.6805   26.9013 C   0  0  0  0  0  0  0  0  0  0  0  0
    9.8870    1.3260   23.5730 C   0  0  0  0  0  0  0  0  0  0  0  0
    6.7580    0.3810   17.8350 N   0  0  0  0  0  0  0  0  0  0  0  0
    7.6390   -0.2680   18.5410 N   0  0  0  0  0  0  0  0  0  0  0  0
    6.1790    0.5730   19.9990 N   0  0  0  0  0  0  0  0  0  0  0  0
    8.1890   -0.7180   20.8700 N   0  0  0  0  0  0  0  0  0  0  0  0
    9.4560    0.1560   22.8130 N   0  0  0  0  0  0  0  0  0  0  0  0
    9.2690    1.4140   20.9380 O   0  0  0  0  0  0  0  0  0  0  0  0
    9.2555   -4.7124   25.5274 O   0  0  0  0  0  0  0  0  0  0  0  0
   14.4463    3.4175   22.1707 Cl  0  0  0  0  0  0  0  0  0  0  0  0
   13.8945   -0.0888   25.4867 H   0  0  0  0  0  0  0  0  0  0  0  0
   11.4361   -0.1726   25.2338 H   0  0  0  0  0  0  0  0  0  0  0  0
    8.9221   -0.1995   25.4231 H   0  0  0  0  0  0  0  0  0  0  0  0
   10.0642   -2.2347   21.8253 H   0  0  0  0  0  0  0  0  0  0  0  0
    8.6902   -2.3588   26.5805 H   0  0  0  0  0  0  0  0  0  0  0  0
    9.9254   -4.3921   22.9961 H   0  0  0  0  0  0  0  0  0  0  0  0
   15.2326    1.4907   24.1414 H   0  0  0  0  0  0  0  0  0  0  0  0
   11.6318    2.9303   22.2615 H   0  0  0  0  0  0  0  0  0  0  0  0
    4.3967    1.9772   17.4718 H   0  0  0  0  0  0  0  0  0  0  0  0
    3.0218    2.6486   19.3697 H   0  0  0  0  0  0  0  0  0  0  0  0
    3.6566    2.0043   21.7065 H   0  0  0  0  0  0  0  0  0  0  0  0
    5.7190    0.6877   22.0810 H   0  0  0  0  0  0  0  0  0  0  0  0
    8.8711   -5.6964   27.3038 H   0  0  0  0  0  0  0  0  0  0  0  0
    7.8758   -4.2402   26.9923 H   0  0  0  0  0  0  0  0  0  0  0  0
    9.5894   -4.0716   27.4566 H   0  0  0  0  0  0  0  0  0  0  0  0
    9.3974    1.2912   24.5523 H   0  0  0  0  0  0  0  0  0  0  0  0
    9.5159    2.2168   23.0553 H   0  0  0  0  0  0  0  0  0  0  0  0
    8.2360   -1.5649   21.0923 H   0  0  0  0  0  0  0  0  0  0  0  0
  1  2  2  0  0  0  0
  1  7  1  0  0  0  0
  2  9  1  0  0  0  0
  3  5  2  0  0  0  0
  3 10  1  0  0  0  0
  4  6  1  0  0  0  0
  4 10  2  0  0  0  0
  5 11  1  0  0  0  0
  6 11  2  0  0  0  0
  7 12  2  0  0  0  0
  8  9  2  0  0  0  0
  8 12  1  0  0  0  0
  9 21  1  0  0  0  0
 10 26  1  0  0  0  0
 11 28  1  0  0  0  0
 12 29  1  0  0  0  0
 13 15  1  0  0  0  0
 13 22  2  0  0  0  0
 13 24  1  0  0  0  0
 14 23  2  0  0  0  0
 14 24  1  0  0  0  0
 14 25  1  0  0  0  0
 15 16  2  0  0  0  0
 16 17  1  0  0  0  0
 17 18  2  0  0  0  0
 18 24  1  0  0  0  0
 19 25  1  0  0  0  0
 19 26  1  0  0  0  0
 19 27  2  0  0  0  0
 20 28  1  0  0  0  0
 21 26  1  0  0  0  0
 22 23  1  0  0  0  0
  1 30  1  0  0  0  0
  2 31  1  0  0  0  0
  3 32  1  0  0  0  0
  4 33  1  0  0  0  0
  5 34  1  0  0  0  0
  6 35  1  0  0  0  0
  7 36  1  0  0  0  0
  8 37  1  0  0  0  0
 15 38  1  0  0  0  0
 16 39  1  0  0  0  0
 17 40  1  0  0  0  0
 18 41  1  0  0  0  0
 20 42  1  0  0  0  0
 20 43  1  0  0  0  0
 20 44  1  0  0  0  0
 21 45  1  0  0  0  0
 21 46  1  0  0  0  0
 25 47  1  0  0  0  0
M  END
> <clash_score>
0

> <docking_score>
-7.7760748863220215

> <overlap_score>
0.9730234742164612

$$$$
BENZO_161_1
  -OEChem-08222022173D

 57 61  0     0  0  0  0  0  0999 V2000
   14.1526    1.4694   24.0176 C   0  0  0  0  0  0  0  0  0  0  0  0
   13.3741    0.8121   24.9701 C   0  0  0  0  0  0  0  0  0  0  0  0
   13.5446    2.0802   22.9208 C   0  0  0  0  0  0  0  0  0  0  0  0
   11.9875    0.7654   24.8259 C   0  0  0  0  0  0  0  0  0  0  0  0
   12.1580    2.0335   22.7765 C   0  0  0  0  0  0  0  0  0  0  0  0
    8.9960   -2.3380   25.5320 C   0  0  0  0  0  0  0  0  0  0  0  0
    9.6730   -3.4710   23.5300 C   0  0  0  0  0  0  0  0  0  0  0  0
    9.0720   -1.1280   24.8640 C   0  0  0  0  0  0  0  0  0  0  0  0
    9.7200   -2.2600   22.8630 C   0  0  0  0  0  0  0  0  0  0  0  0
   11.3794    1.3761   23.7290 C   0  0  0  0  0  0  0  0  0  0  0  0
    9.3070   -3.5340   24.8780 C   0  0  0  0  0  0  0  0  0  0  0  0
    9.3350   -1.0880   23.5010 C   0  0  0  0  0  0  0  0  0  0  0  0
    5.8300    0.9190   18.6970 C   0  0  0  0  0  0  0  0  0  0  0  0
    7.3170   -0.1610   19.8550 C   0  0  0  0  0  0  0  0  0  0  0  0
    4.6890    1.6810   18.4640 C   0  0  0  0  0  0  0  0  0  0  0  0
    3.9160    2.0630   19.5520 C   0  0  0  0  0  0  0  0  0  0  0  0
    4.2750    1.7050   20.8490 C   0  0  0  0  0  0  0  0  0  0  0  0
    5.4210    0.9600   21.0930 C   0  0  0  0  0  0  0  0  0  0  0  0
    8.3597   -5.0073   26.6307 C   0  0  0  0  0  0  0  0  0  0  0  0
    9.0420    0.3700   21.5280 C   0  0  0  0  0  0  0  0  0  0  0  0
    8.4720   -6.3981   27.2296 C   0  0  0  0  0  0  0  0  0  0  0  0
    9.9252   -6.7605   27.4803 C   0  0  0  0  0  0  0  0  0  0  0  0
   10.7833   -6.6094   26.2282 C   0  0  0  0  0  0  0  0  0  0  0  0
   10.0539   -5.9099   25.0823 C   0  0  0  0  0  0  0  0  0  0  0  0
    9.8870    1.3260   23.5730 C   0  0  0  0  0  0  0  0  0  0  0  0
    6.7580    0.3810   17.8350 N   0  0  0  0  0  0  0  0  0  0  0  0
    7.6390   -0.2680   18.5410 N   0  0  0  0  0  0  0  0  0  0  0  0
    6.1790    0.5730   19.9990 N   0  0  0  0  0  0  0  0  0  0  0  0
    9.2529   -4.7797   25.5644 N   0  0  0  0  0  0  0  0  0  0  0  0
    8.1890   -0.7180   20.8700 N   0  0  0  0  0  0  0  0  0  0  0  0
    9.4560    0.1560   22.8130 N   0  0  0  0  0  0  0  0  0  0  0  0
    7.4954   -4.2356   27.0449 O   0  0  0  0  0  0  0  0  0  0  0  0
    9.2690    1.4140   20.9380 O   0  0  0  0  0  0  0  0  0  0  0  0
   15.2322    1.5068   24.1308 H   0  0  0  0  0  0  0  0  0  0  0  0
   13.8473    0.3374   25.8248 H   0  0  0  0  0  0  0  0  0  0  0  0
   14.1503    2.5930   22.1795 H   0  0  0  0  0  0  0  0  0  0  0  0
   11.3889    0.2508   25.5729 H   0  0  0  0  0  0  0  0  0  0  0  0
   11.6930    2.5120   21.9187 H   0  0  0  0  0  0  0  0  0  0  0  0
    8.6895   -2.3529   26.5807 H   0  0  0  0  0  0  0  0  0  0  0  0
    9.9262   -4.3897   22.9916 H   0  0  0  0  0  0  0  0  0  0  0  0
    8.9224   -0.1998   25.4238 H   0  0  0  0  0  0  0  0  0  0  0  0
   10.0649   -2.2343   21.8258 H   0  0  0  0  0  0  0  0  0  0  0  0
    4.3967    1.9772   17.4718 H   0  0  0  0  0  0  0  0  0  0  0  0
    3.0218    2.6486   19.3697 H   0  0  0  0  0  0  0  0  0  0  0  0
    3.6566    2.0043   21.7065 H   0  0  0  0  0  0  0  0  0  0  0  0
    5.7190    0.6877   22.0810 H   0  0  0  0  0  0  0  0  0  0  0  0
    7.9325   -6.4148   28.1641 H   0  0  0  0  0  0  0  0  0  0  0  0
    8.0254   -7.0920   26.5333 H   0  0  0  0  0  0  0  0  0  0  0  0
   10.3387   -6.1267   28.2923 H   0  0  0  0  0  0  0  0  0  0  0  0
    9.9904   -7.8023   27.8537 H   0  0  0  0  0  0  0  0  0  0  0  0
   11.7037   -6.0404   26.4771 H   0  0  0  0  0  0  0  0  0  0  0  0
   11.1411   -7.6068   25.8918 H   0  0  0  0  0  0  0  0  0  0  0  0
   10.7782   -5.5162   24.3756 H   0  0  0  0  0  0  0  0  0  0  0  0
    9.4042   -6.6189   24.5807 H   0  0  0  0  0  0  0  0  0  0  0  0
    9.3974    1.2912   24.5523 H   0  0  0  0  0  0  0  0  0  0  0  0
    9.5159    2.2168   23.0553 H   0  0  0  0  0  0  0  0  0  0  0  0
    8.2565   -1.5523   21.1108 H   0  0  0  0  0  0  0  0  0  0  0  0
  1  2  1  0  0  0  0
  1  3  2  0  0  0  0
  2  4  2  0  0  0  0
  3  5  1  0  0  0  0
  4 10  1  0  0  0  0
  5 10  2  0  0  0  0
  6  8  2  0  0  0  0
  6 11  1  0  0  0  0
  7  9  1  0  0  0  0
  7 11  2  0  0  0  0
  8 12  1  0  0  0  0
  9 12  2  0  0  0  0
 10 25  1  0  0  0  0
 11 29  1  0  0  0  0
 12 31  1  0  0  0  0
 13 15  1  0  0  0  0
 13 26  2  0  0  0  0
 13 28  1  0  0  0  0
 14 27  2  0  0  0  0
 14 28  1  0  0  0  0
 14 30  1  0  0  0  0
 15 16  2  0  0  0  0
 16 17  1  0  0  0  0
 17 18  2  0  0  0  0
 18 28  1  0  0  0  0
 19 21  1  0  0  0  0
 19 29  1  0  0  0  0
 19 32  2  0  0  0  0
 20 30  1  0  0  0  0
 20 31  1  0  0  0  0
 20 33  2  0  0  0  0
 21 22  1  0  0  0  0
 22 23  1  0  0  0  0
 23 24  1  0  0  0  0
 24 29  1  0  0  0  0
 25 31  1  0  0  0  0
 26 27  1  0  0  0  0
  1 34  1  0  0  0  0
  2 35  1  0  0  0  0
  3 36  1  0  0  0  0
  4 37  1  0  0  0  0
  5 38  1  0  0  0  0
  6 39  1  0  0  0  0
  7 40  1  0  0  0  0
  8 41  1  0  0  0  0
  9 42  1  0  0  0  0
 15 43  1  0  0  0  0
 16 44  1  0  0  0  0
 17 45  1  0  0  0  0
 18 46  1  0  0  0  0
 21 47  1  0  0  0  0
 21 48  1  0  0  0  0
 22 49  1  0  0  0  0
 22 50  1  0  0  0  0
 23 51  1  0  0  0  0
 23 52  1  0  0  0  0
 24 53  1  0  0  0  0
 24 54  1  0  0  0  0
 25 55  1  0  0  0  0
 25 56  1  0  0  0  0
 30 57  1  0  0  0  0
M  END
> <clash_score>
0.7790751876189459

> <docking_score>
-7.998713493347168

> <overlap_score>
1.004102349281311

$$$$
BENZO_160_1
  -OEChem-08222022173D

 54 58  0     0  0  0  0  0  0999 V2000
    8.9960   -2.3380   25.5320 C   0  0  0  0  0  0  0  0  0  0  0  0
    9.6730   -3.4710   23.5300 C   0  0  0  0  0  0  0  0  0  0  0  0
    9.0720   -1.1280   24.8640 C   0  0  0  0  0  0  0  0  0  0  0  0
    9.7200   -2.2600   22.8630 C   0  0  0  0  0  0  0  0  0  0  0  0
   12.2913    1.4279   22.6355 C   0  0  0  0  0  0  0  0  0  0  0  0
   13.6024    1.4662   23.0564 C   0  0  0  0  0  0  0  0  0  0  0  0
   12.0284    1.3764   24.9443 C   0  0  0  0  0  0  0  0  0  0  0  0
   11.3794    1.3761   23.7290 C   0  0  0  0  0  0  0  0  0  0  0  0
    9.3070   -3.5340   24.8780 C   0  0  0  0  0  0  0  0  0  0  0  0
    9.3350   -1.0880   23.5010 C   0  0  0  0  0  0  0  0  0  0  0  0
    5.8300    0.9190   18.6970 C   0  0  0  0  0  0  0  0  0  0  0  0
    7.3170   -0.1610   19.8550 C   0  0  0  0  0  0  0  0  0  0  0  0
    4.6890    1.6810   18.4640 C   0  0  0  0  0  0  0  0  0  0  0  0
    3.9160    2.0630   19.5520 C   0  0  0  0  0  0  0  0  0  0  0  0
    4.2750    1.7050   20.8490 C   0  0  0  0  0  0  0  0  0  0  0  0
    5.4210    0.9600   21.0930 C   0  0  0  0  0  0  0  0  0  0  0  0
    8.3596   -5.0074   26.6308 C   0  0  0  0  0  0  0  0  0  0  0  0
    9.0420    0.3700   21.5280 C   0  0  0  0  0  0  0  0  0  0  0  0
    8.4579   -6.4047   27.2169 C   0  0  0  0  0  0  0  0  0  0  0  0
    8.4717   -7.4504   26.1159 C   0  0  0  0  0  0  0  0  0  0  0  0
    9.5645   -7.1893   25.0842 C   0  0  0  0  0  0  0  0  0  0  0  0
   10.2327   -5.8252   25.2501 C   0  0  0  0  0  0  0  0  0  0  0  0
    9.8870    1.3260   23.5730 C   0  0  0  0  0  0  0  0  0  0  0  0
    6.7580    0.3810   17.8350 N   0  0  0  0  0  0  0  0  0  0  0  0
    7.6390   -0.2680   18.5410 N   0  0  0  0  0  0  0  0  0  0  0  0
    6.1790    0.5730   19.9990 N   0  0  0  0  0  0  0  0  0  0  0  0
    9.2529   -4.7798   25.5645 N   0  0  0  0  0  0  0  0  0  0  0  0
    8.1890   -0.7180   20.8700 N   0  0  0  0  0  0  0  0  0  0  0  0
    9.4560    0.1560   22.8130 N   0  0  0  0  0  0  0  0  0  0  0  0
    7.5990   -4.1865   27.1424 O   0  0  0  0  0  0  0  0  0  0  0  0
    9.2690    1.4140   20.9380 O   0  0  0  0  0  0  0  0  0  0  0  0
   13.7301    1.4394   24.7638 S   0  0  0  0  0  0  0  0  0  0  0  0
    8.6895   -2.3529   26.5807 H   0  0  0  0  0  0  0  0  0  0  0  0
    9.9262   -4.3897   22.9916 H   0  0  0  0  0  0  0  0  0  0  0  0
    8.9224   -0.1998   25.4238 H   0  0  0  0  0  0  0  0  0  0  0  0
   10.0649   -2.2343   21.8258 H   0  0  0  0  0  0  0  0  0  0  0  0
   12.0045    1.4365   21.5915 H   0  0  0  0  0  0  0  0  0  0  0  0
   14.4914    1.5078   22.4431 H   0  0  0  0  0  0  0  0  0  0  0  0
   11.5886    1.3416   25.9314 H   0  0  0  0  0  0  0  0  0  0  0  0
    4.3967    1.9772   17.4718 H   0  0  0  0  0  0  0  0  0  0  0  0
    3.0218    2.6486   19.3697 H   0  0  0  0  0  0  0  0  0  0  0  0
    3.6566    2.0043   21.7065 H   0  0  0  0  0  0  0  0  0  0  0  0
    5.7190    0.6877   22.0810 H   0  0  0  0  0  0  0  0  0  0  0  0
    9.3706   -6.4745   27.7885 H   0  0  0  0  0  0  0  0  0  0  0  0
    7.6055   -6.5497   27.8636 H   0  0  0  0  0  0  0  0  0  0  0  0
    8.6095   -8.4604   26.5550 H   0  0  0  0  0  0  0  0  0  0  0  0
    7.4835   -7.4763   25.6142 H   0  0  0  0  0  0  0  0  0  0  0  0
   10.3359   -7.9850   25.1531 H   0  0  0  0  0  0  0  0  0  0  0  0
    9.1458   -7.2796   24.0582 H   0  0  0  0  0  0  0  0  0  0  0  0
   10.9408   -5.8640   26.0725 H   0  0  0  0  0  0  0  0  0  0  0  0
   10.7521   -5.5631   24.3347 H   0  0  0  0  0  0  0  0  0  0  0  0
    9.3974    1.2912   24.5523 H   0  0  0  0  0  0  0  0  0  0  0  0
    9.5159    2.2168   23.0553 H   0  0  0  0  0  0  0  0  0  0  0  0
    8.2565   -1.5523   21.1108 H   0  0  0  0  0  0  0  0  0  0  0  0
  1  3  2  0  0  0  0
  1  9  1  0  0  0  0
  2  4  1  0  0  0  0
  2  9  2  0  0  0  0
  3 10  1  0  0  0  0
  4 10  2  0  0  0  0
  5  6  2  0  0  0  0
  5  8  1  0  0  0  0
  6 32  1  0  0  0  0
  7  8  2  0  0  0  0
  7 32  1  0  0  0  0
  8 23  1  0  0  0  0
  9 27  1  0  0  0  0
 10 29  1  0  0  0  0
 11 13  1  0  0  0  0
 11 24  2  0  0  0  0
 11 26  1  0  0  0  0
 12 25  2  0  0  0  0
 12 26  1  0  0  0  0
 12 28  1  0  0  0  0
 13 14  2  0  0  0  0
 14 15  1  0  0  0  0
 15 16  2  0  0  0  0
 16 26  1  0  0  0  0
 17 19  1  0  0  0  0
 17 27  1  0  0  0  0
 17 30  2  0  0  0  0
 18 28  1  0  0  0  0
 18 29  1  0  0  0  0
 18 31  2  0  0  0  0
 19 20  1  0  0  0  0
 20 21  1  0  0  0  0
 21 22  1  0  0  0  0
 22 27  1  0  0  0  0
 23 29  1  0  0  0  0
 24 25  1  0  0  0  0
  1 33  1  0  0  0  0
  2 34  1  0  0  0  0
  3 35  1  0  0  0  0
  4 36  1  0  0  0  0
  5 37  1  0  0  0  0
  6 38  1  0  0  0  0
  7 39  1  0  0  0  0
 13 40  1  0  0  0  0
 14 41  1  0  0  0  0
 15 42  1  0  0  0  0
 16 43  1  0  0  0  0
 19 44  1  0  0  0  0
 19 45  1  0  0  0  0
 20 46  1  0  0  0  0
 20 47  1  0  0  0  0
 21 48  1  0  0  0  0
 21 49  1  0  0  0  0
 22 50  1  0  0  0  0
 22 51  1  0  0  0  0
 23 52  1  0  0  0  0
 23 53  1  0  0  0  0
 28 54  1  0  0  0  0
M  END
> <clash_score>
0.6354466317061015

> <docking_score>
-7.914023399353027

> <overlap_score>
0.9878003001213074

$$$$
BENZO_165_1
  -OEChem-08222022173D

 56 60  0     0  0  0  0  0  0999 V2000
   14.1526    1.4694   24.0176 C   0  0  0  0  0  0  0  0  0  0  0  0
   13.3741    0.8121   24.9701 C   0  0  0  0  0  0  0  0  0  0  0  0
   13.5446    2.0802   22.9208 C   0  0  0  0  0  0  0  0  0  0  0  0
   11.9875    0.7654   24.8258 C   0  0  0  0  0  0  0  0  0  0  0  0
   12.1580    2.0335   22.7765 C   0  0  0  0  0  0  0  0  0  0  0  0
    8.9960   -2.3380   25.5320 C   0  0  0  0  0  0  0  0  0  0  0  0
    9.6730   -3.4710   23.5300 C   0  0  0  0  0  0  0  0  0  0  0  0
    9.0720   -1.1280   24.8640 C   0  0  0  0  0  0  0  0  0  0  0  0
    9.7200   -2.2600   22.8630 C   0  0  0  0  0  0  0  0  0  0  0  0
   11.3794    1.3761   23.7290 C   0  0  0  0  0  0  0  0  0  0  0  0
    9.3070   -3.5340   24.8780 C   0  0  0  0  0  0  0  0  0  0  0  0
    9.3350   -1.0880   23.5010 C   0  0  0  0  0  0  0  0  0  0  0  0
    5.8300    0.9190   18.6970 C   0  0  0  0  0  0  0  0  0  0  0  0
    7.3170   -0.1610   19.8550 C   0  0  0  0  0  0  0  0  0  0  0  0
    4.6890    1.6810   18.4640 C   0  0  0  0  0  0  0  0  0  0  0  0
    3.9160    2.0630   19.5520 C   0  0  0  0  0  0  0  0  0  0  0  0
    4.2750    1.7050   20.8490 C   0  0  0  0  0  0  0  0  0  0  0  0
    5.4210    0.9600   21.0930 C   0  0  0  0  0  0  0  0  0  0  0  0
    9.0420    0.3700   21.5280 C   0  0  0  0  0  0  0  0  0  0  0  0
   10.0771   -5.0255   26.7193 C   0  0  0  0  0  0  0  0  0  0  0  0
    8.0927   -5.6195   25.4071 C   0  0  0  0  0  0  0  0  0  0  0  0
    9.1933   -4.9427   27.9592 C   0  0  0  0  0  0  0  0  0  0  0  0
    7.2756   -5.5290   26.6967 C   0  0  0  0  0  0  0  0  0  0  0  0
    9.8870    1.3260   23.5730 C   0  0  0  0  0  0  0  0  0  0  0  0
    6.7580    0.3810   17.8350 N   0  0  0  0  0  0  0  0  0  0  0  0
    7.6390   -0.2680   18.5410 N   0  0  0  0  0  0  0  0  0  0  0  0
    6.1790    0.5730   19.9990 N   0  0  0  0  0  0  0  0  0  0  0  0
    9.2563   -4.7368   25.5413 N   0  0  0  0  0  0  0  0  0  0  0  0
    8.1890   -0.7180   20.8700 N   0  0  0  0  0  0  0  0  0  0  0  0
    9.4560    0.1560   22.8130 N   0  0  0  0  0  0  0  0  0  0  0  0
    9.2690    1.4140   20.9380 O   0  0  0  0  0  0  0  0  0  0  0  0
    8.0883   -5.8459   27.8325 O   0  0  0  0  0  0  0  0  0  0  0  0
   15.2322    1.5068   24.1308 H   0  0  0  0  0  0  0  0  0  0  0  0
   13.8473    0.3374   25.8248 H   0  0  0  0  0  0  0  0  0  0  0  0
   14.1503    2.5930   22.1795 H   0  0  0  0  0  0  0  0  0  0  0  0
   11.3889    0.2508   25.5729 H   0  0  0  0  0  0  0  0  0  0  0  0
   11.6930    2.5120   21.9187 H   0  0  0  0  0  0  0  0  0  0  0  0
    8.6905   -2.3533   26.5810 H   0  0  0  0  0  0  0  0  0  0  0  0
    9.9266   -4.3896   22.9917 H   0  0  0  0  0  0  0  0  0  0  0  0
    8.9233   -0.1992   25.4232 H   0  0  0  0  0  0  0  0  0  0  0  0
   10.0650   -2.2330   21.8256 H   0  0  0  0  0  0  0  0  0  0  0  0
    4.3967    1.9772   17.4718 H   0  0  0  0  0  0  0  0  0  0  0  0
    3.0218    2.6486   19.3697 H   0  0  0  0  0  0  0  0  0  0  0  0
    3.6566    2.0043   21.7065 H   0  0  0  0  0  0  0  0  0  0  0  0
    5.7190    0.6877   22.0810 H   0  0  0  0  0  0  0  0  0  0  0  0
   10.8985   -4.3115   26.8085 H   0  0  0  0  0  0  0  0  0  0  0  0
   10.4915   -6.0334   26.6323 H   0  0  0  0  0  0  0  0  0  0  0  0
    8.4327   -6.6456   25.2620 H   0  0  0  0  0  0  0  0  0  0  0  0
    7.4725   -5.3241   24.5619 H   0  0  0  0  0  0  0  0  0  0  0  0
    9.7636   -5.2398   28.8419 H   0  0  0  0  0  0  0  0  0  0  0  0
    8.8236   -3.9268   28.1248 H   0  0  0  0  0  0  0  0  0  0  0  0
    6.8339   -4.5337   26.8232 H   0  0  0  0  0  0  0  0  0  0  0  0
    6.4550   -6.2521   26.6643 H   0  0  0  0  0  0  0  0  0  0  0  0
    9.3974    1.2912   24.5523 H   0  0  0  0  0  0  0  0  0  0  0  0
    9.5159    2.2168   23.0553 H   0  0  0  0  0  0  0  0  0  0  0  0
    8.2565   -1.5523   21.1108 H   0  0  0  0  0  0  0  0  0  0  0  0
  1  2  1  0  0  0  0
  1  3  2  0  0  0  0
  2  4  2  0  0  0  0
  3  5  1  0  0  0  0
  4 10  1  0  0  0  0
  5 10  2  0  0  0  0
  6  8  2  0  0  0  0
  6 11  1  0  0  0  0
  7  9  1  0  0  0  0
  7 11  2  0  0  0  0
  8 12  1  0  0  0  0
  9 12  2  0  0  0  0
 10 24  1  0  0  0  0
 11 28  1  0  0  0  0
 12 30  1  0  0  0  0
 13 15  1  0  0  0  0
 13 25  2  0  0  0  0
 13 27  1  0  0  0  0
 14 26  2  0  0  0  0
 14 27  1  0  0  0  0
 14 29  1  0  0  0  0
 15 16  2  0  0  0  0
 16 17  1  0  0  0  0
 17 18  2  0  0  0  0
 18 27  1  0  0  0  0
 19 29  1  0  0  0  0
 19 30  1  0  0  0  0
 19 31  2  0  0  0  0
 20 22  1  0  0  0  0
 20 28  1  0  0  0  0
 21 23  1  0  0  0  0
 21 28  1  0  0  0  0
 22 32  1  0  0  0  0
 23 32  1  0  0  0  0
 24 30  1  0  0  0  0
 25 26  1  0  0  0  0
  1 33  1  0  0  0  0
  2 34  1  0  0  0  0
  3 35  1  0  0  0  0
  4 36  1  0  0  0  0
  5 37  1  0  0  0  0
  6 38  1  0  0  0  0
  7 39  1  0  0  0  0
  8 40  1  0  0  0  0
  9 41  1  0  0  0  0
 15 42  1  0  0  0  0
 16 43  1  0  0  0  0
 17 44  1  0  0  0  0
 18 45  1  0  0  0  0
 20 46  1  0  0  0  0
 20 47  1  0  0  0  0
 21 48  1  0  0  0  0
 21 49  1  0  0  0  0
 22 50  1  0  0  0  0
 22 51  1  0  0  0  0
 23 52  1  0  0  0  0
 23 53  1  0  0  0  0
 24 54  1  0  0  0  0
 24 55  1  0  0  0  0
 29 56  1  0  0  0  0
M  END
> <clash_score>
0

> <docking_score>
-8.979841232299805

> <overlap_score>
0.990332305431366

$$$$
BENZO_162_1
  -OEChem-08222022173D

 57 61  0     0  0  0  0  0  0999 V2000
   13.4006    0.5725   24.7805 C   0  0  0  0  0  0  0  0  0  0  0  0
   12.0141    0.5273   24.6359 C   0  0  0  0  0  0  0  0  0  0  0  0
    8.9960   -2.3380   25.5320 C   0  0  0  0  0  0  0  0  0  0  0  0
    9.6730   -3.4710   23.5300 C   0  0  0  0  0  0  0  0  0  0  0  0
    9.0720   -1.1280   24.8640 C   0  0  0  0  0  0  0  0  0  0  0  0
    9.7200   -2.2600   22.8630 C   0  0  0  0  0  0  0  0  0  0  0  0
   14.1526    1.4666   24.0184 C   0  0  0  0  0  0  0  0  0  0  0  0
   12.1314    2.2702   22.9668 C   0  0  0  0  0  0  0  0  0  0  0  0
   11.3794    1.3761   23.7290 C   0  0  0  0  0  0  0  0  0  0  0  0
    9.3070   -3.5340   24.8780 C   0  0  0  0  0  0  0  0  0  0  0  0
    9.3350   -1.0880   23.5010 C   0  0  0  0  0  0  0  0  0  0  0  0
   13.5180    2.3154   23.1115 C   0  0  0  0  0  0  0  0  0  0  0  0
    5.8300    0.9190   18.6970 C   0  0  0  0  0  0  0  0  0  0  0  0
    7.3170   -0.1610   19.8550 C   0  0  0  0  0  0  0  0  0  0  0  0
    4.6890    1.6810   18.4640 C   0  0  0  0  0  0  0  0  0  0  0  0
    3.9160    2.0630   19.5520 C   0  0  0  0  0  0  0  0  0  0  0  0
    4.2750    1.7050   20.8490 C   0  0  0  0  0  0  0  0  0  0  0  0
    5.4210    0.9600   21.0930 C   0  0  0  0  0  0  0  0  0  0  0  0
    8.3597   -5.0073   26.6307 C   0  0  0  0  0  0  0  0  0  0  0  0
    9.0420    0.3700   21.5280 C   0  0  0  0  0  0  0  0  0  0  0  0
    8.4720   -6.3981   27.2296 C   0  0  0  0  0  0  0  0  0  0  0  0
    9.9252   -6.7605   27.4803 C   0  0  0  0  0  0  0  0  0  0  0  0
   10.7833   -6.6094   26.2282 C   0  0  0  0  0  0  0  0  0  0  0  0
   10.0539   -5.9099   25.0823 C   0  0  0  0  0  0  0  0  0  0  0  0
    9.8870    1.3260   23.5730 C   0  0  0  0  0  0  0  0  0  0  0  0
    6.7580    0.3810   17.8350 N   0  0  0  0  0  0  0  0  0  0  0  0
    7.6390   -0.2680   18.5410 N   0  0  0  0  0  0  0  0  0  0  0  0
    6.1790    0.5730   19.9990 N   0  0  0  0  0  0  0  0  0  0  0  0
    9.2529   -4.7797   25.5644 N   0  0  0  0  0  0  0  0  0  0  0  0
    8.1890   -0.7180   20.8700 N   0  0  0  0  0  0  0  0  0  0  0  0
    9.4560    0.1560   22.8130 N   0  0  0  0  0  0  0  0  0  0  0  0
    7.4954   -4.2356   27.0449 O   0  0  0  0  0  0  0  0  0  0  0  0
    9.2690    1.4140   20.9380 O   0  0  0  0  0  0  0  0  0  0  0  0
   14.4463    3.4175   22.1707 Cl  0  0  0  0  0  0  0  0  0  0  0  0
   13.8945   -0.0888   25.4867 H   0  0  0  0  0  0  0  0  0  0  0  0
   11.4361   -0.1726   25.2338 H   0  0  0  0  0  0  0  0  0  0  0  0
    8.6895   -2.3529   26.5807 H   0  0  0  0  0  0  0  0  0  0  0  0
    9.9262   -4.3897   22.9916 H   0  0  0  0  0  0  0  0  0  0  0  0
    8.9224   -0.1998   25.4238 H   0  0  0  0  0  0  0  0  0  0  0  0
   10.0649   -2.2343   21.8258 H   0  0  0  0  0  0  0  0  0  0  0  0
   15.2326    1.4907   24.1414 H   0  0  0  0  0  0  0  0  0  0  0  0
   11.6318    2.9303   22.2615 H   0  0  0  0  0  0  0  0  0  0  0  0
    4.3967    1.9772   17.4718 H   0  0  0  0  0  0  0  0  0  0  0  0
    3.0218    2.6486   19.3697 H   0  0  0  0  0  0  0  0  0  0  0  0
    3.6566    2.0043   21.7065 H   0  0  0  0  0  0  0  0  0  0  0  0
    5.7190    0.6877   22.0810 H   0  0  0  0  0  0  0  0  0  0  0  0
    7.9325   -6.4148   28.1641 H   0  0  0  0  0  0  0  0  0  0  0  0
    8.0254   -7.0920   26.5333 H   0  0  0  0  0  0  0  0  0  0  0  0
   10.3387   -6.1267   28.2923 H   0  0  0  0  0  0  0  0  0  0  0  0
    9.9904   -7.8023   27.8537 H   0  0  0  0  0  0  0  0  0  0  0  0
   11.7037   -6.0404   26.4771 H   0  0  0  0  0  0  0  0  0  0  0  0
   11.1411   -7.6068   25.8918 H   0  0  0  0  0  0  0  0  0  0  0  0
   10.7782   -5.5162   24.3756 H   0  0  0  0  0  0  0  0  0  0  0  0
    9.4042   -6.6189   24.5807 H   0  0  0  0  0  0  0  0  0  0  0  0
    9.3974    1.2912   24.5523 H   0  0  0  0  0  0  0  0  0  0  0  0
    9.5159    2.2168   23.0553 H   0  0  0  0  0  0  0  0  0  0  0  0
    8.2565   -1.5523   21.1108 H   0  0  0  0  0  0  0  0  0  0  0  0
  1  2  2  0  0  0  0
  1  7  1  0  0  0  0
  2  9  1  0  0  0  0
  3  5  2  0  0  0  0
  3 10  1  0  0  0  0
  4  6  1  0  0  0  0
  4 10  2  0  0  0  0
  5 11  1  0  0  0  0
  6 11  2  0  0  0  0
  7 12  2  0  0  0  0
  8  9  2  0  0  0  0
  8 12  1  0  0  0  0
  9 25  1  0  0  0  0
 10 29  1  0  0  0  0
 11 31  1  0  0  0  0
 12 34  1  0  0  0  0
 13 15  1  0  0  0  0
 13 26  2  0  0  0  0
 13 28  1  0  0  0  0
 14 27  2  0  0  0  0
 14 28  1  0  0  0  0
 14 30  1  0  0  0  0
 15 16  2  0  0  0  0
 16 17  1  0  0  0  0
 17 18  2  0  0  0  0
 18 28  1  0  0  0  0
 19 21  1  0  0  0  0
 19 29  1  0  0  0  0
 19 32  2  0  0  0  0
 20 30  1  0  0  0  0
 20 31  1  0  0  0  0
 20 33  2  0  0  0  0
 21 22  1  0  0  0  0
 22 23  1  0  0  0  0
 23 24  1  0  0  0  0
 24 29  1  0  0  0  0
 25 31  1  0  0  0  0
 26 27  1  0  0  0  0
  1 35  1  0  0  0  0
  2 36  1  0  0  0  0
  3 37  1  0  0  0  0
  4 38  1  0  0  0  0
  5 39  1  0  0  0  0
  6 40  1  0  0  0  0
  7 41  1  0  0  0  0
  8 42  1  0  0  0  0
 15 43  1  0  0  0  0
 16 44  1  0  0  0  0
 17 45  1  0  0  0  0
 18 46  1  0  0  0  0
 21 47  1  0  0  0  0
 21 48  1  0  0  0  0
 22 49  1  0  0  0  0
 22 50  1  0  0  0  0
 23 51  1  0  0  0  0
 23 52  1  0  0  0  0
 24 53  1  0  0  0  0
 24 54  1  0  0  0  0
 25 55  1  0  0  0  0
 25 56  1  0  0  0  0
 30 57  1  0  0  0  0
M  END
> <clash_score>
0.7790751876189459

> <docking_score>
-7.135704517364502

> <overlap_score>
1.0151578187942505

$$$$
BENZO_163_1
  -OEChem-08222022173D

 57 61  0     0  0  0  0  0  0999 V2000
    8.9960   -2.3380   25.5320 C   0  0  0  0  0  0  0  0  0  0  0  0
    9.6730   -3.4710   23.5300 C   0  0  0  0  0  0  0  0  0  0  0  0
    9.0720   -1.1280   24.8640 C   0  0  0  0  0  0  0  0  0  0  0  0
    9.7200   -2.2600   22.8630 C   0  0  0  0  0  0  0  0  0  0  0  0
   12.1233    1.3811   24.9242 C   0  0  0  0  0  0  0  0  0  0  0  0
   12.3262    1.4247   22.7351 C   0  0  0  0  0  0  0  0  0  0  0  0
   11.3794    1.3761   23.7290 C   0  0  0  0  0  0  0  0  0  0  0  0
    9.3070   -3.5340   24.8780 C   0  0  0  0  0  0  0  0  0  0  0  0
    9.3350   -1.0880   23.5010 C   0  0  0  0  0  0  0  0  0  0  0  0
    5.8300    0.9190   18.6970 C   0  0  0  0  0  0  0  0  0  0  0  0
    7.3170   -0.1610   19.8550 C   0  0  0  0  0  0  0  0  0  0  0  0
    4.6890    1.6810   18.4640 C   0  0  0  0  0  0  0  0  0  0  0  0
    3.9160    2.0630   19.5520 C   0  0  0  0  0  0  0  0  0  0  0  0
    4.2750    1.7050   20.8490 C   0  0  0  0  0  0  0  0  0  0  0  0
    5.4210    0.9600   21.0930 C   0  0  0  0  0  0  0  0  0  0  0  0
    8.3597   -5.0073   26.6307 C   0  0  0  0  0  0  0  0  0  0  0  0
    9.0420    0.3700   21.5280 C   0  0  0  0  0  0  0  0  0  0  0  0
    8.4720   -6.3981   27.2296 C   0  0  0  0  0  0  0  0  0  0  0  0
    9.9252   -6.7605   27.4803 C   0  0  0  0  0  0  0  0  0  0  0  0
   10.7833   -6.6094   26.2282 C   0  0  0  0  0  0  0  0  0  0  0  0
   10.0539   -5.9099   25.0823 C   0  0  0  0  0  0  0  0  0  0  0  0
   14.8305    1.5084   22.7418 C   0  0  0  0  0  0  0  0  0  0  0  0
    9.8870    1.3260   23.5730 C   0  0  0  0  0  0  0  0  0  0  0  0
   13.4410    1.4289   24.7112 N   0  0  0  0  0  0  0  0  0  0  0  0
    6.7580    0.3810   17.8350 N   0  0  0  0  0  0  0  0  0  0  0  0
    7.6390   -0.2680   18.5410 N   0  0  0  0  0  0  0  0  0  0  0  0
   13.5326    1.4543   23.3706 N   0  0  0  0  0  0  0  0  0  0  0  0
    6.1790    0.5730   19.9990 N   0  0  0  0  0  0  0  0  0  0  0  0
    9.2529   -4.7797   25.5644 N   0  0  0  0  0  0  0  0  0  0  0  0
    8.1890   -0.7180   20.8700 N   0  0  0  0  0  0  0  0  0  0  0  0
    9.4560    0.1560   22.8130 N   0  0  0  0  0  0  0  0  0  0  0  0
    7.4954   -4.2356   27.0449 O   0  0  0  0  0  0  0  0  0  0  0  0
    9.2690    1.4140   20.9380 O   0  0  0  0  0  0  0  0  0  0  0  0
    8.6895   -2.3529   26.5807 H   0  0  0  0  0  0  0  0  0  0  0  0
    9.9262   -4.3897   22.9916 H   0  0  0  0  0  0  0  0  0  0  0  0
    8.9224   -0.1998   25.4238 H   0  0  0  0  0  0  0  0  0  0  0  0
   10.0649   -2.2343   21.8258 H   0  0  0  0  0  0  0  0  0  0  0  0
   11.7624    1.3510   25.9426 H   0  0  0  0  0  0  0  0  0  0  0  0
   12.2462    1.4390   21.6566 H   0  0  0  0  0  0  0  0  0  0  0  0
    4.3967    1.9772   17.4718 H   0  0  0  0  0  0  0  0  0  0  0  0
    3.0218    2.6486   19.3697 H   0  0  0  0  0  0  0  0  0  0  0  0
    3.6566    2.0043   21.7065 H   0  0  0  0  0  0  0  0  0  0  0  0
    5.7190    0.6877   22.0810 H   0  0  0  0  0  0  0  0  0  0  0  0
    7.9325   -6.4148   28.1641 H   0  0  0  0  0  0  0  0  0  0  0  0
    8.0254   -7.0920   26.5333 H   0  0  0  0  0  0  0  0  0  0  0  0
   10.3387   -6.1267   28.2923 H   0  0  0  0  0  0  0  0  0  0  0  0
    9.9904   -7.8023   27.8537 H   0  0  0  0  0  0  0  0  0  0  0  0
   11.7037   -6.0404   26.4771 H   0  0  0  0  0  0  0  0  0  0  0  0
   11.1411   -7.6068   25.8918 H   0  0  0  0  0  0  0  0  0  0  0  0
   10.7782   -5.5162   24.3756 H   0  0  0  0  0  0  0  0  0  0  0  0
    9.4042   -6.6189   24.5807 H   0  0  0  0  0  0  0  0  0  0  0  0
   15.0990    2.5601   22.6124 H   0  0  0  0  0  0  0  0  0  0  0  0
   15.5636    1.0018   23.3756 H   0  0  0  0  0  0  0  0  0  0  0  0
   14.7842    1.0025   21.7733 H   0  0  0  0  0  0  0  0  0  0  0  0
    9.3974    1.2912   24.5523 H   0  0  0  0  0  0  0  0  0  0  0  0
    9.5159    2.2168   23.0553 H   0  0  0  0  0  0  0  0  0  0  0  0
    8.2565   -1.5523   21.1108 H   0  0  0  0  0  0  0  0  0  0  0  0
  1  3  2  0  0  0  0
  1  8  1  0  0  0  0
  2  4  1  0  0  0  0
  2  8  2  0  0  0  0
  3  9  1  0  0  0  0
  4  9  2  0  0  0  0
  5  7  1  0  0  0  0
  5 24  2  0  0  0  0
  6  7  2  0  0  0  0
  6 27  1  0  0  0  0
  7 23  1  0  0  0  0
  8 29  1  0  0  0  0
  9 31  1  0  0  0  0
 10 12  1  0  0  0  0
 10 25  2  0  0  0  0
 10 28  1  0  0  0  0
 11 26  2  0  0  0  0
 11 28  1  0  0  0  0
 11 30  1  0  0  0  0
 12 13  2  0  0  0  0
 13 14  1  0  0  0  0
 14 15  2  0  0  0  0
 15 28  1  0  0  0  0
 16 18  1  0  0  0  0
 16 29  1  0  0  0  0
 16 32  2  0  0  0  0
 17 30  1  0  0  0  0
 17 31  1  0  0  0  0
 17 33  2  0  0  0  0
 18 19  1  0  0  0  0
 19 20  1  0  0  0  0
 20 21  1  0  0  0  0
 21 29  1  0  0  0  0
 22 27  1  0  0  0  0
 23 31  1  0  0  0  0
 24 27  1  0  0  0  0
 25 26  1  0  0  0  0
  1 34  1  0  0  0  0
  2 35  1  0  0  0  0
  3 36  1  0  0  0  0
  4 37  1  0  0  0  0
  5 38  1  0  0  0  0
  6 39  1  0  0  0  0
 12 40  1  0  0  0  0
 13 41  1  0  0  0  0
 14 42  1  0  0  0  0
 15 43  1  0  0  0  0
 18 44  1  0  0  0  0
 18 45  1  0  0  0  0
 19 46  1  0  0  0  0
 19 47  1  0  0  0  0
 20 48  1  0  0  0  0
 20 49  1  0  0  0  0
 21 50  1  0  0  0  0
 21 51  1  0  0  0  0
 22 52  1  0  0  0  0
 22 53  1  0  0  0  0
 22 54  1  0  0  0  0
 23 55  1  0  0  0  0
 23 56  1  0  0  0  0
 30 57  1  0  0  0  0
M  END
> <clash_score>
0.7790751876189459

> <docking_score>
-7.714873313903809

> <overlap_score>
0.9990366101264954

$$$$
BENZO_164_1
  -OEChem-08222022173D

 53 57  0     0  0  0  0  0  0999 V2000
    8.9960   -2.3380   25.5320 C   0  0  0  0  0  0  0  0  0  0  0  0
    9.6730   -3.4710   23.5300 C   0  0  0  0  0  0  0  0  0  0  0  0
    9.0720   -1.1280   24.8640 C   0  0  0  0  0  0  0  0  0  0  0  0
    9.7200   -2.2600   22.8630 C   0  0  0  0  0  0  0  0  0  0  0  0
   12.2111    0.2208   23.7905 C   0  0  0  0  0  0  0  0  0  0  0  0
   13.5412    0.5479   23.9364 C   0  0  0  0  0  0  0  0  0  0  0  0
   12.1057    2.5424   23.8305 C   0  0  0  0  0  0  0  0  0  0  0  0
   11.3794    1.3761   23.7290 C   0  0  0  0  0  0  0  0  0  0  0  0
    9.3070   -3.5340   24.8780 C   0  0  0  0  0  0  0  0  0  0  0  0
    9.3350   -1.0880   23.5010 C   0  0  0  0  0  0  0  0  0  0  0  0
    5.8300    0.9190   18.6970 C   0  0  0  0  0  0  0  0  0  0  0  0
    7.3170   -0.1610   19.8550 C   0  0  0  0  0  0  0  0  0  0  0  0
    4.6890    1.6810   18.4640 C   0  0  0  0  0  0  0  0  0  0  0  0
    3.9160    2.0630   19.5520 C   0  0  0  0  0  0  0  0  0  0  0  0
    4.2750    1.7050   20.8490 C   0  0  0  0  0  0  0  0  0  0  0  0
    5.4210    0.9600   21.0930 C   0  0  0  0  0  0  0  0  0  0  0  0
    9.0420    0.3700   21.5280 C   0  0  0  0  0  0  0  0  0  0  0  0
    9.5175   -4.8597   26.9771 C   0  0  0  0  0  0  0  0  0  0  0  0
    8.5165   -5.8725   24.9808 C   0  0  0  0  0  0  0  0  0  0  0  0
    8.1868   -5.0439   27.6987 C   0  0  0  0  0  0  0  0  0  0  0  0
    7.2200   -6.0347   25.7755 C   0  0  0  0  0  0  0  0  0  0  0  0
    9.8870    1.3260   23.5730 C   0  0  0  0  0  0  0  0  0  0  0  0
    6.7580    0.3810   17.8350 N   0  0  0  0  0  0  0  0  0  0  0  0
    7.6390   -0.2680   18.5410 N   0  0  0  0  0  0  0  0  0  0  0  0
    6.1790    0.5730   19.9990 N   0  0  0  0  0  0  0  0  0  0  0  0
    9.2563   -4.7368   25.5413 N   0  0  0  0  0  0  0  0  0  0  0  0
    8.1890   -0.7180   20.8700 N   0  0  0  0  0  0  0  0  0  0  0  0
    9.4560    0.1560   22.8130 N   0  0  0  0  0  0  0  0  0  0  0  0
    9.2690    1.4140   20.9380 O   0  0  0  0  0  0  0  0  0  0  0  0
    7.4994   -6.1853   27.1719 O   0  0  0  0  0  0  0  0  0  0  0  0
   13.7831    2.2420   23.9988 S   0  0  0  0  0  0  0  0  0  0  0  0
    8.6905   -2.3533   26.5810 H   0  0  0  0  0  0  0  0  0  0  0  0
    9.9266   -4.3896   22.9917 H   0  0  0  0  0  0  0  0  0  0  0  0
    8.9233   -0.1992   25.4232 H   0  0  0  0  0  0  0  0  0  0  0  0
   10.0650   -2.2330   21.8256 H   0  0  0  0  0  0  0  0  0  0  0  0
   11.8559   -0.8003   23.7315 H   0  0  0  0  0  0  0  0  0  0  0  0
   14.3824   -0.1267   24.0100 H   0  0  0  0  0  0  0  0  0  0  0  0
   11.7354    3.5581   23.8155 H   0  0  0  0  0  0  0  0  0  0  0  0
    4.3967    1.9772   17.4718 H   0  0  0  0  0  0  0  0  0  0  0  0
    3.0218    2.6486   19.3697 H   0  0  0  0  0  0  0  0  0  0  0  0
    3.6566    2.0043   21.7065 H   0  0  0  0  0  0  0  0  0  0  0  0
    5.7190    0.6877   22.0810 H   0  0  0  0  0  0  0  0  0  0  0  0
   10.0205   -3.9698   27.3609 H   0  0  0  0  0  0  0  0  0  0  0  0
   10.1535   -5.7310   27.1549 H   0  0  0  0  0  0  0  0  0  0  0  0
    9.1181   -6.7773   25.0755 H   0  0  0  0  0  0  0  0  0  0  0  0
    8.2812   -5.7064   23.9305 H   0  0  0  0  0  0  0  0  0  0  0  0
    8.3629   -5.2252   28.7611 H   0  0  0  0  0  0  0  0  0  0  0  0
    7.5530   -4.1570   27.6103 H   0  0  0  0  0  0  0  0  0  0  0  0
    6.5459   -5.1839   25.6221 H   0  0  0  0  0  0  0  0  0  0  0  0
    6.6948   -6.9354   25.4436 H   0  0  0  0  0  0  0  0  0  0  0  0
    9.3974    1.2912   24.5523 H   0  0  0  0  0  0  0  0  0  0  0  0
    9.5159    2.2168   23.0553 H   0  0  0  0  0  0  0  0  0  0  0  0
    8.2565   -1.5523   21.1108 H   0  0  0  0  0  0  0  0  0  0  0  0
  1  3  2  0  0  0  0
  1  9  1  0  0  0  0
  2  4  1  0  0  0  0
  2  9  2  0  0  0  0
  3 10  1  0  0  0  0
  4 10  2  0  0  0  0
  5  6  2  0  0  0  0
  5  8  1  0  0  0  0
  6 31  1  0  0  0  0
  7  8  2  0  0  0  0
  7 31  1  0  0  0  0
  8 22  1  0  0  0  0
  9 26  1  0  0  0  0
 10 28  1  0  0  0  0
 11 13  1  0  0  0  0
 11 23  2  0  0  0  0
 11 25  1  0  0  0  0
 12 24  2  0  0  0  0
 12 25  1  0  0  0  0
 12 27  1  0  0  0  0
 13 14  2  0  0  0  0
 14 15  1  0  0  0  0
 15 16  2  0  0  0  0
 16 25  1  0  0  0  0
 17 27  1  0  0  0  0
 17 28  1  0  0  0  0
 17 29  2  0  0  0  0
 18 20  1  0  0  0  0
 18 26  1  0  0  0  0
 19 21  1  0  0  0  0
 19 26  1  0  0  0  0
 20 30  1  0  0  0  0
 21 30  1  0  0  0  0
 22 28  1  0  0  0  0
 23 24  1  0  0  0  0
  1 32  1  0  0  0  0
  2 33  1  0  0  0  0
  3 34  1  0  0  0  0
  4 35  1  0  0  0  0
  5 36  1  0  0  0  0
  6 37  1  0  0  0  0
  7 38  1  0  0  0  0
 13 39  1  0  0  0  0
 14 40  1  0  0  0  0
 15 41  1  0  0  0  0
 16 42  1  0  0  0  0
 18 43  1  0  0  0  0
 18 44  1  0  0  0  0
 19 45  1  0  0  0  0
 19 46  1  0  0  0  0
 20 47  1  0  0  0  0
 20 48  1  0  0  0  0
 21 49  1  0  0  0  0
 21 50  1  0  0  0  0
 22 51  1  0  0  0  0
 22 52  1  0  0  0  0
 27 53  1  0  0  0  0
M  END
> <clash_score>
0

> <docking_score>
-8.215126037597656

> <overlap_score>
0.9791508913040161

$$$$
BENZO_166_1
  -OEChem-08222022173D

 56 60  0     0  0  0  0  0  0999 V2000
   13.4007    0.5725   24.7805 C   0  0  0  0  0  0  0  0  0  0  0  0
   12.0141    0.5273   24.6359 C   0  0  0  0  0  0  0  0  0  0  0  0
    8.9960   -2.3380   25.5320 C   0  0  0  0  0  0  0  0  0  0  0  0
    9.6730   -3.4710   23.5300 C   0  0  0  0  0  0  0  0  0  0  0  0
    9.0720   -1.1280   24.8640 C   0  0  0  0  0  0  0  0  0  0  0  0
    9.7200   -2.2600   22.8630 C   0  0  0  0  0  0  0  0  0  0  0  0
   14.1526    1.4666   24.0184 C   0  0  0  0  0  0  0  0  0  0  0  0
   12.1314    2.2702   22.9668 C   0  0  0  0  0  0  0  0  0  0  0  0
   11.3794    1.3761   23.7290 C   0  0  0  0  0  0  0  0  0  0  0  0
    9.3070   -3.5340   24.8780 C   0  0  0  0  0  0  0  0  0  0  0  0
    9.3350   -1.0880   23.5010 C   0  0  0  0  0  0  0  0  0  0  0  0
   13.5180    2.3154   23.1115 C   0  0  0  0  0  0  0  0  0  0  0  0
    5.8300    0.9190   18.6970 C   0  0  0  0  0  0  0  0  0  0  0  0
    7.3170   -0.1610   19.8550 C   0  0  0  0  0  0  0  0  0  0  0  0
    4.6890    1.6810   18.4640 C   0  0  0  0  0  0  0  0  0  0  0  0
    3.9160    2.0630   19.5520 C   0  0  0  0  0  0  0  0  0  0  0  0
    4.2750    1.7050   20.8490 C   0  0  0  0  0  0  0  0  0  0  0  0
    5.4210    0.9600   21.0930 C   0  0  0  0  0  0  0  0  0  0  0  0
    9.0420    0.3700   21.5280 C   0  0  0  0  0  0  0  0  0  0  0  0
   10.0771   -5.0255   26.7193 C   0  0  0  0  0  0  0  0  0  0  0  0
    8.0927   -5.6195   25.4071 C   0  0  0  0  0  0  0  0  0  0  0  0
    9.1933   -4.9427   27.9592 C   0  0  0  0  0  0  0  0  0  0  0  0
    7.2756   -5.5290   26.6967 C   0  0  0  0  0  0  0  0  0  0  0  0
    9.8870    1.3260   23.5730 C   0  0  0  0  0  0  0  0  0  0  0  0
    6.7580    0.3810   17.8350 N   0  0  0  0  0  0  0  0  0  0  0  0
    7.6390   -0.2680   18.5410 N   0  0  0  0  0  0  0  0  0  0  0  0
    6.1790    0.5730   19.9990 N   0  0  0  0  0  0  0  0  0  0  0  0
    9.2563   -4.7368   25.5413 N   0  0  0  0  0  0  0  0  0  0  0  0
    8.1890   -0.7180   20.8700 N   0  0  0  0  0  0  0  0  0  0  0  0
    9.4560    0.1560   22.8130 N   0  0  0  0  0  0  0  0  0  0  0  0
    9.2690    1.4140   20.9380 O   0  0  0  0  0  0  0  0  0  0  0  0
    8.0883   -5.8459   27.8325 O   0  0  0  0  0  0  0  0  0  0  0  0
   14.4463    3.4175   22.1707 Cl  0  0  0  0  0  0  0  0  0  0  0  0
   13.8945   -0.0888   25.4867 H   0  0  0  0  0  0  0  0  0  0  0  0
   11.4361   -0.1726   25.2338 H   0  0  0  0  0  0  0  0  0  0  0  0
    8.6905   -2.3533   26.5810 H   0  0  0  0  0  0  0  0  0  0  0  0
    9.9266   -4.3896   22.9917 H   0  0  0  0  0  0  0  0  0  0  0  0
    8.9233   -0.1992   25.4232 H   0  0  0  0  0  0  0  0  0  0  0  0
   10.0650   -2.2330   21.8256 H   0  0  0  0  0  0  0  0  0  0  0  0
   15.2326    1.4907   24.1414 H   0  0  0  0  0  0  0  0  0  0  0  0
   11.6318    2.9303   22.2615 H   0  0  0  0  0  0  0  0  0  0  0  0
    4.3967    1.9772   17.4718 H   0  0  0  0  0  0  0  0  0  0  0  0
    3.0218    2.6486   19.3697 H   0  0  0  0  0  0  0  0  0  0  0  0
    3.6566    2.0043   21.7065 H   0  0  0  0  0  0  0  0  0  0  0  0
    5.7190    0.6877   22.0810 H   0  0  0  0  0  0  0  0  0  0  0  0
   10.8985   -4.3115   26.8085 H   0  0  0  0  0  0  0  0  0  0  0  0
   10.4915   -6.0334   26.6323 H   0  0  0  0  0  0  0  0  0  0  0  0
    8.4327   -6.6456   25.2620 H   0  0  0  0  0  0  0  0  0  0  0  0
    7.4725   -5.3241   24.5619 H   0  0  0  0  0  0  0  0  0  0  0  0
    9.7636   -5.2398   28.8419 H   0  0  0  0  0  0  0  0  0  0  0  0
    8.8236   -3.9268   28.1248 H   0  0  0  0  0  0  0  0  0  0  0  0
    6.8339   -4.5337   26.8232 H   0  0  0  0  0  0  0  0  0  0  0  0
    6.4550   -6.2521   26.6643 H   0  0  0  0  0  0  0  0  0  0  0  0
    9.3974    1.2912   24.5523 H   0  0  0  0  0  0  0  0  0  0  0  0
    9.5159    2.2168   23.0553 H   0  0  0  0  0  0  0  0  0  0  0  0
    8.2565   -1.5523   21.1108 H   0  0  0  0  0  0  0  0  0  0  0  0
  1  2  2  0  0  0  0
  1  7  1  0  0  0  0
  2  9  1  0  0  0  0
  3  5  2  0  0  0  0
  3 10  1  0  0  0  0
  4  6  1  0  0  0  0
  4 10  2  0  0  0  0
  5 11  1  0  0  0  0
  6 11  2  0  0  0  0
  7 12  2  0  0  0  0
  8  9  2  0  0  0  0
  8 12  1  0  0  0  0
  9 24  1  0  0  0  0
 10 28  1  0  0  0  0
 11 30  1  0  0  0  0
 12 33  1  0  0  0  0
 13 15  1  0  0  0  0
 13 25  2  0  0  0  0
 13 27  1  0  0  0  0
 14 26  2  0  0  0  0
 14 27  1  0  0  0  0
 14 29  1  0  0  0  0
 15 16  2  0  0  0  0
 16 17  1  0  0  0  0
 17 18  2  0  0  0  0
 18 27  1  0  0  0  0
 19 29  1  0  0  0  0
 19 30  1  0  0  0  0
 19 31  2  0  0  0  0
 20 22  1  0  0  0  0
 20 28  1  0  0  0  0
 21 23  1  0  0  0  0
 21 28  1  0  0  0  0
 22 32  1  0  0  0  0
 23 32  1  0  0  0  0
 24 30  1  0  0  0  0
 25 26  1  0  0  0  0
  1 34  1  0  0  0  0
  2 35  1  0  0  0  0
  3 36  1  0  0  0  0
  4 37  1  0  0  0  0
  5 38  1  0  0  0  0
  6 39  1  0  0  0  0
  7 40  1  0  0  0  0
  8 41  1  0  0  0  0
 15 42  1  0  0  0  0
 16 43  1  0  0  0  0
 17 44  1  0  0  0  0
 18 45  1  0  0  0  0
 20 46  1  0  0  0  0
 20 47  1  0  0  0  0
 21 48  1  0  0  0  0
 21 49  1  0  0  0  0
 22 50  1  0  0  0  0
 22 51  1  0  0  0  0
 23 52  1  0  0  0  0
 23 53  1  0  0  0  0
 24 54  1  0  0  0  0
 24 55  1  0  0  0  0
 29 56  1  0  0  0  0
M  END
> <clash_score>
0

> <docking_score>
-8.11682415008545

> <overlap_score>
1.001425862312317

$$$$
BENZO_167_1
  -OEChem-08222022173D

 56 60  0     0  0  0  0  0  0999 V2000
    8.9960   -2.3380   25.5320 C   0  0  0  0  0  0  0  0  0  0  0  0
    9.6730   -3.4710   23.5300 C   0  0  0  0  0  0  0  0  0  0  0  0
    9.0720   -1.1280   24.8640 C   0  0  0  0  0  0  0  0  0  0  0  0
    9.7200   -2.2600   22.8630 C   0  0  0  0  0  0  0  0  0  0  0  0
   12.2914    2.2071   23.0512 C   0  0  0  0  0  0  0  0  0  0  0  0
   12.1614    0.6214   24.5689 C   0  0  0  0  0  0  0  0  0  0  0  0
   11.3794    1.3761   23.7290 C   0  0  0  0  0  0  0  0  0  0  0  0
    9.3070   -3.5340   24.8780 C   0  0  0  0  0  0  0  0  0  0  0  0
    9.3350   -1.0880   23.5010 C   0  0  0  0  0  0  0  0  0  0  0  0
    5.8300    0.9190   18.6970 C   0  0  0  0  0  0  0  0  0  0  0  0
    7.3170   -0.1610   19.8550 C   0  0  0  0  0  0  0  0  0  0  0  0
    4.6890    1.6810   18.4640 C   0  0  0  0  0  0  0  0  0  0  0  0
    3.9160    2.0630   19.5520 C   0  0  0  0  0  0  0  0  0  0  0  0
    4.2750    1.7050   20.8490 C   0  0  0  0  0  0  0  0  0  0  0  0
    5.4210    0.9600   21.0930 C   0  0  0  0  0  0  0  0  0  0  0  0
    9.0420    0.3700   21.5280 C   0  0  0  0  0  0  0  0  0  0  0  0
   10.0771   -5.0255   26.7193 C   0  0  0  0  0  0  0  0  0  0  0  0
    8.0927   -5.6195   25.4071 C   0  0  0  0  0  0  0  0  0  0  0  0
    9.1933   -4.9427   27.9592 C   0  0  0  0  0  0  0  0  0  0  0  0
    7.2756   -5.5290   26.6967 C   0  0  0  0  0  0  0  0  0  0  0  0
   14.6267    0.5248   25.0067 C   0  0  0  0  0  0  0  0  0  0  0  0
    9.8870    1.3260   23.5730 C   0  0  0  0  0  0  0  0  0  0  0  0
   13.5560    2.0002   23.4280 N   0  0  0  0  0  0  0  0  0  0  0  0
    6.7580    0.3810   17.8350 N   0  0  0  0  0  0  0  0  0  0  0  0
    7.6390   -0.2680   18.5410 N   0  0  0  0  0  0  0  0  0  0  0  0
   13.4442    1.0306   24.3518 N   0  0  0  0  0  0  0  0  0  0  0  0
    6.1790    0.5730   19.9990 N   0  0  0  0  0  0  0  0  0  0  0  0
    9.2563   -4.7368   25.5413 N   0  0  0  0  0  0  0  0  0  0  0  0
    8.1890   -0.7180   20.8700 N   0  0  0  0  0  0  0  0  0  0  0  0
    9.4560    0.1560   22.8130 N   0  0  0  0  0  0  0  0  0  0  0  0
    9.2690    1.4140   20.9380 O   0  0  0  0  0  0  0  0  0  0  0  0
    8.0883   -5.8459   27.8325 O   0  0  0  0  0  0  0  0  0  0  0  0
    8.6905   -2.3533   26.5810 H   0  0  0  0  0  0  0  0  0  0  0  0
    9.9266   -4.3896   22.9917 H   0  0  0  0  0  0  0  0  0  0  0  0
    8.9233   -0.1992   25.4232 H   0  0  0  0  0  0  0  0  0  0  0  0
   10.0650   -2.2330   21.8256 H   0  0  0  0  0  0  0  0  0  0  0  0
   12.0895    2.9562   22.2987 H   0  0  0  0  0  0  0  0  0  0  0  0
   11.9201   -0.1518   25.2857 H   0  0  0  0  0  0  0  0  0  0  0  0
    4.3967    1.9772   17.4718 H   0  0  0  0  0  0  0  0  0  0  0  0
    3.0218    2.6486   19.3697 H   0  0  0  0  0  0  0  0  0  0  0  0
    3.6566    2.0043   21.7065 H   0  0  0  0  0  0  0  0  0  0  0  0
    5.7190    0.6877   22.0810 H   0  0  0  0  0  0  0  0  0  0  0  0
   10.8985   -4.3115   26.8085 H   0  0  0  0  0  0  0  0  0  0  0  0
   10.4915   -6.0334   26.6323 H   0  0  0  0  0  0  0  0  0  0  0  0
    8.4327   -6.6456   25.2620 H   0  0  0  0  0  0  0  0  0  0  0  0
    7.4725   -5.3241   24.5619 H   0  0  0  0  0  0  0  0  0  0  0  0
    9.7636   -5.2398   28.8419 H   0  0  0  0  0  0  0  0  0  0  0  0
    8.8236   -3.9268   28.1248 H   0  0  0  0  0  0  0  0  0  0  0  0
    6.8339   -4.5337   26.8232 H   0  0  0  0  0  0  0  0  0  0  0  0
    6.4550   -6.2521   26.6643 H   0  0  0  0  0  0  0  0  0  0  0  0
   15.0068   -0.3132   24.4165 H   0  0  0  0  0  0  0  0  0  0  0  0
   15.3758    1.3189   25.0698 H   0  0  0  0  0  0  0  0  0  0  0  0
   14.3675    0.1958   26.0170 H   0  0  0  0  0  0  0  0  0  0  0  0
    9.3974    1.2912   24.5523 H   0  0  0  0  0  0  0  0  0  0  0  0
    9.5159    2.2168   23.0553 H   0  0  0  0  0  0  0  0  0  0  0  0
    8.2565   -1.5523   21.1108 H   0  0  0  0  0  0  0  0  0  0  0  0
  1  3  2  0  0  0  0
  1  8  1  0  0  0  0
  2  4  1  0  0  0  0
  2  8  2  0  0  0  0
  3  9  1  0  0  0  0
  4  9  2  0  0  0  0
  5  7  1  0  0  0  0
  5 23  2  0  0  0  0
  6  7  2  0  0  0  0
  6 26  1  0  0  0  0
  7 22  1  0  0  0  0
  8 28  1  0  0  0  0
  9 30  1  0  0  0  0
 10 12  1  0  0  0  0
 10 24  2  0  0  0  0
 10 27  1  0  0  0  0
 11 25  2  0  0  0  0
 11 27  1  0  0  0  0
 11 29  1  0  0  0  0
 12 13  2  0  0  0  0
 13 14  1  0  0  0  0
 14 15  2  0  0  0  0
 15 27  1  0  0  0  0
 16 29  1  0  0  0  0
 16 30  1  0  0  0  0
 16 31  2  0  0  0  0
 17 19  1  0  0  0  0
 17 28  1  0  0  0  0
 18 20  1  0  0  0  0
 18 28  1  0  0  0  0
 19 32  1  0  0  0  0
 20 32  1  0  0  0  0
 21 26  1  0  0  0  0
 22 30  1  0  0  0  0
 23 26  1  0  0  0  0
 24 25  1  0  0  0  0
  1 33  1  0  0  0  0
  2 34  1  0  0  0  0
  3 35  1  0  0  0  0
  4 36  1  0  0  0  0
  5 37  1  0  0  0  0
  6 38  1  0  0  0  0
 12 39  1  0  0  0  0
 13 40  1  0  0  0  0
 14 41  1  0  0  0  0
 15 42  1  0  0  0  0
 17 43  1  0  0  0  0
 17 44  1  0  0  0  0
 18 45  1  0  0  0  0
 18 46  1  0  0  0  0
 19 47  1  0  0  0  0
 19 48  1  0  0  0  0
 20 49  1  0  0  0  0
 20 50  1  0  0  0  0
 21 51  1  0  0  0  0
 21 52  1  0  0  0  0
 21 53  1  0  0  0  0
 22 54  1  0  0  0  0
 22 55  1  0  0  0  0
 29 56  1  0  0  0  0
M  END
> <clash_score>
0.6199424094734003

> <docking_score>
-8.687849044799805

> <overlap_score>
0.9891132712364197

$$$$
BENZO_168_1
  -OEChem-08222022173D

 49 52  0     1  0  0  0  0  0999 V2000
    3.9160    2.0630   19.5520 C   0  0  0  0  0  0  0  0  0  0  0  0
    4.2750    1.7050   20.8490 C   0  0  0  0  0  0  0  0  0  0  0  0
    9.0720   -1.1280   24.8640 C   0  0  0  0  0  0  0  0  0  0  0  0
    9.7200   -2.2600   22.8630 C   0  0  0  0  0  0  0  0  0  0  0  0
    4.6890    1.6810   18.4640 C   0  0  0  0  0  0  0  0  0  0  0  0
    5.4210    0.9600   21.0930 C   0  0  0  0  0  0  0  0  0  0  0  0
    8.9960   -2.3380   25.5320 C   0  0  0  0  0  0  0  0  0  0  0  0
    9.6730   -3.4710   23.5300 C   0  0  0  0  0  0  0  0  0  0  0  0
   12.3421    0.5158   23.4032 C   0  0  0  0  0  0  0  0  0  0  0  0
   13.6305    1.0023   23.3744 C   0  0  0  0  0  0  0  0  0  0  0  0
   11.9672    2.8035   23.5716 C   0  0  0  0  0  0  0  0  0  0  0  0
    9.3350   -1.0880   23.5010 C   0  0  0  0  0  0  0  0  0  0  0  0
   11.3785    1.5592   23.5173 C   0  0  0  0  0  0  0  0  0  0  0  0
    5.8300    0.9190   18.6970 C   0  0  0  0  0  0  0  0  0  0  0  0
    6.1790    0.5730   19.9990 C   0  0  0  0  0  0  0  0  0  0  0  0
    9.3070   -3.5340   24.8780 C   0  0  0  0  0  0  0  0  0  0  0  0
    9.0420    0.3700   21.5280 C   0  0  0  0  0  0  0  0  0  0  0  0
    8.0148   -5.2164   26.1419 C   0  0  0  0  0  0  0  0  0  0  0  0
   10.4390   -5.5857   25.6570 C   0  0  0  0  0  0  0  0  0  0  0  0
    9.8870    1.3260   23.5730 C   0  0  0  0  0  0  0  0  0  0  0  0
    9.4560    0.1560   22.8130 C   0  0  1  0  0  0  0  0  0  0  0  0
    6.7580    0.3810   17.8350 N   0  0  0  0  0  0  0  0  0  0  0  0
    7.6390   -0.2680   18.5410 N   0  0  0  0  0  0  0  0  0  0  0  0
    7.3170   -0.1610   19.8550 N   0  0  0  0  0  0  0  0  0  0  0  0
    8.1890   -0.7180   20.8700 N   0  0  0  0  0  0  0  0  0  0  0  0
    9.2556   -4.7554   25.5514 N   0  0  0  0  0  0  0  0  0  0  0  0
    9.2690    1.4140   20.9380 O   0  0  0  0  0  0  0  0  0  0  0  0
   13.6749    2.7106   23.4848 S   0  0  0  0  0  0  0  0  0  0  0  0
    3.0136    2.6526   19.3908 H   0  0  0  0  0  0  0  0  0  0  0  0
    3.6480    2.0140   21.6821 H   0  0  0  0  0  0  0  0  0  0  0  0
    8.9214   -0.1986   25.4206 H   0  0  0  0  0  0  0  0  0  0  0  0
   10.0622   -2.2326   21.8251 H   0  0  0  0  0  0  0  0  0  0  0  0
    4.4042    1.9741   17.4524 H   0  0  0  0  0  0  0  0  0  0  0  0
    5.7089    0.6919   22.1150 H   0  0  0  0  0  0  0  0  0  0  0  0
    8.6882   -2.3542   26.5803 H   0  0  0  0  0  0  0  0  0  0  0  0
    9.9258   -4.3896   22.9914 H   0  0  0  0  0  0  0  0  0  0  0  0
   12.1065   -0.5394   23.3454 H   0  0  0  0  0  0  0  0  0  0  0  0
   14.5479    0.4364   23.2946 H   0  0  0  0  0  0  0  0  0  0  0  0
   11.4802    3.7648   23.6592 H   0  0  0  0  0  0  0  0  0  0  0  0
    8.1775   -6.1919   26.6236 H   0  0  0  0  0  0  0  0  0  0  0  0
    7.6740   -4.4889   26.8933 H   0  0  0  0  0  0  0  0  0  0  0  0
    7.2508   -5.3181   25.3570 H   0  0  0  0  0  0  0  0  0  0  0  0
   10.1974   -6.4996   26.2196 H   0  0  0  0  0  0  0  0  0  0  0  0
   10.7877   -5.8568   24.6496 H   0  0  0  0  0  0  0  0  0  0  0  0
   11.2305   -5.0307   26.1819 H   0  0  0  0  0  0  0  0  0  0  0  0
    9.6026    1.2057   24.6276 H   0  0  0  0  0  0  0  0  0  0  0  0
    9.3596    2.2290   23.2378 H   0  0  0  0  0  0  0  0  0  0  0  0
    8.0683    0.4897   23.2524 H   0  0  0  0  0  0  0  0  0  0  0  0
    8.2712   -1.5583   21.1209 H   0  0  0  0  0  0  0  0  0  0  0  0
  1  2  1  0  0  0  0
  1  5  2  0  0  0  0
  2  6  2  0  0  0  0
  3  7  2  0  0  0  0
  3 12  1  0  0  0  0
  4  8  1  0  0  0  0
  4 12  2  0  0  0  0
  5 14  1  0  0  0  0
  6 15  1  0  0  0  0
  7 16  1  0  0  0  0
  8 16  2  0  0  0  0
  9 10  2  0  0  0  0
  9 13  1  0  0  0  0
 10 28  1  0  0  0  0
 11 13  2  0  0  0  0
 11 28  1  0  0  0  0
 12 21  1  0  0  0  0
 13 20  1  0  0  0  0
 14 15  2  0  0  0  0
 14 22  1  0  0  0  0
 15 24  1  0  0  0  0
 16 26  1  0  0  0  0
 17 21  1  0  0  0  0
 17 25  1  0  0  0  0
 17 27  2  0  0  0  0
 18 26  1  0  0  0  0
 19 26  1  0  0  0  0
 20 21  1  1  0  0  0
 22 23  2  0  0  0  0
 23 24  1  0  0  0  0
 24 25  1  0  0  0  0
  1 29  1  0  0  0  0
  2 30  1  0  0  0  0
  3 31  1  0  0  0  0
  4 32  1  0  0  0  0
  5 33  1  0  0  0  0
  6 34  1  0  0  0  0
  7 35  1  0  0  0  0
  8 36  1  0  0  0  0
  9 37  1  0  0  0  0
 10 38  1  0  0  0  0
 11 39  1  0  0  0  0
 18 40  1  0  0  0  0
 18 41  1  0  0  0  0
 18 42  1  0  0  0  0
 19 43  1  0  0  0  0
 19 44  1  0  0  0  0
 19 45  1  0  0  0  0
 20 46  1  0  0  0  0
 20 47  1  0  0  0  0
 21 48  1  0  0  0  0
 25 49  1  0  0  0  0
M  END
> <clash_score>
0

> <docking_score>
-10.002148628234863

> <overlap_score>
0.9824103713035583

$$$$
BENZO_168_2
  -OEChem-08222022173D

 49 52  0     1  0  0  0  0  0999 V2000
    3.9160    2.0630   19.5520 C   0  0  0  0  0  0  0  0  0  0  0  0
    4.2750    1.7050   20.8490 C   0  0  0  0  0  0  0  0  0  0  0  0
    9.0720   -1.1280   24.8640 C   0  0  0  0  0  0  0  0  0  0  0  0
    9.7200   -2.2600   22.8630 C   0  0  0  0  0  0  0  0  0  0  0  0
    4.6890    1.6810   18.4640 C   0  0  0  0  0  0  0  0  0  0  0  0
    5.4210    0.9600   21.0930 C   0  0  0  0  0  0  0  0  0  0  0  0
    8.9960   -2.3380   25.5320 C   0  0  0  0  0  0  0  0  0  0  0  0
    9.6730   -3.4710   23.5300 C   0  0  0  0  0  0  0  0  0  0  0  0
   12.4120    0.7557   23.6805 C   0  0  0  0  0  0  0  0  0  0  0  0
   13.4422    0.6233   24.5853 C   0  0  0  0  0  0  0  0  0  0  0  0
   11.3266    1.2397   25.6779 C   0  0  0  0  0  0  0  0  0  0  0  0
    9.3350   -1.0880   23.5010 C   0  0  0  0  0  0  0  0  0  0  0  0
   11.1864    1.1129   24.3133 C   0  0  0  0  0  0  0  0  0  0  0  0
    5.8300    0.9190   18.6970 C   0  0  0  0  0  0  0  0  0  0  0  0
    6.1790    0.5730   19.9990 C   0  0  0  0  0  0  0  0  0  0  0  0
    9.3070   -3.5340   24.8780 C   0  0  0  0  0  0  0  0  0  0  0  0
    9.0420    0.3700   21.5280 C   0  0  0  0  0  0  0  0  0  0  0  0
    8.0148   -5.2164   26.1419 C   0  0  0  0  0  0  0  0  0  0  0  0
   10.4390   -5.5857   25.6570 C   0  0  0  0  0  0  0  0  0  0  0  0
    9.8870    1.3260   23.5730 C   0  0  0  0  0  0  0  0  0  0  0  0
    9.4560    0.1560   22.8130 C   0  0  2  0  0  0  0  0  0  0  0  0
    6.7580    0.3810   17.8350 N   0  0  0  0  0  0  0  0  0  0  0  0
    7.6390   -0.2680   18.5410 N   0  0  0  0  0  0  0  0  0  0  0  0
    7.3170   -0.1610   19.8550 N   0  0  0  0  0  0  0  0  0  0  0  0
    8.1890   -0.7180   20.8700 N   0  0  0  0  0  0  0  0  0  0  0  0
    9.2556   -4.7554   25.5514 N   0  0  0  0  0  0  0  0  0  0  0  0
    9.2690    1.4140   20.9380 O   0  0  0  0  0  0  0  0  0  0  0  0
   12.9305    0.9290   26.1907 S   0  0  0  0  0  0  0  0  0  0  0  0
    3.0136    2.6526   19.3908 H   0  0  0  0  0  0  0  0  0  0  0  0
    3.6480    2.0140   21.6821 H   0  0  0  0  0  0  0  0  0  0  0  0
    8.9214   -0.1986   25.4206 H   0  0  0  0  0  0  0  0  0  0  0  0
   10.0622   -2.2326   21.8251 H   0  0  0  0  0  0  0  0  0  0  0  0
    4.4042    1.9741   17.4524 H   0  0  0  0  0  0  0  0  0  0  0  0
    5.7089    0.6919   22.1150 H   0  0  0  0  0  0  0  0  0  0  0  0
    8.6882   -2.3542   26.5803 H   0  0  0  0  0  0  0  0  0  0  0  0
    9.9258   -4.3896   22.9914 H   0  0  0  0  0  0  0  0  0  0  0  0
   12.5361    0.6022   22.6159 H   0  0  0  0  0  0  0  0  0  0  0  0
   14.4706    0.3610   24.3807 H   0  0  0  0  0  0  0  0  0  0  0  0
   10.5663    1.4985   26.4019 H   0  0  0  0  0  0  0  0  0  0  0  0
    8.1775   -6.1919   26.6236 H   0  0  0  0  0  0  0  0  0  0  0  0
    7.6740   -4.4889   26.8933 H   0  0  0  0  0  0  0  0  0  0  0  0
    7.2508   -5.3181   25.3570 H   0  0  0  0  0  0  0  0  0  0  0  0
   10.1974   -6.4996   26.2196 H   0  0  0  0  0  0  0  0  0  0  0  0
   10.7877   -5.8568   24.6496 H   0  0  0  0  0  0  0  0  0  0  0  0
   11.2305   -5.0307   26.1819 H   0  0  0  0  0  0  0  0  0  0  0  0
    9.1168    1.5904   24.3109 H   0  0  0  0  0  0  0  0  0  0  0  0
    9.9726    2.2073   22.9235 H   0  0  0  0  0  0  0  0  0  0  0  0
   10.7792   -0.1072   22.4110 H   0  0  0  0  0  0  0  0  0  0  0  0
    8.2712   -1.5583   21.1209 H   0  0  0  0  0  0  0  0  0  0  0  0
  1  2  1  0  0  0  0
  1  5  2  0  0  0  0
  2  6  2  0  0  0  0
  3  7  2  0  0  0  0
  3 12  1  0  0  0  0
  4  8  1  0  0  0  0
  4 12  2  0  0  0  0
  5 14  1  0  0  0  0
  6 15  1  0  0  0  0
  7 16  1  0  0  0  0
  8 16  2  0  0  0  0
  9 10  2  0  0  0  0
  9 13  1  0  0  0  0
 10 28  1  0  0  0  0
 11 13  2  0  0  0  0
 11 28  1  0  0  0  0
 12 21  1  0  0  0  0
 13 20  1  0  0  0  0
 14 15  2  0  0  0  0
 14 22  1  0  0  0  0
 15 24  1  0  0  0  0
 16 26  1  0  0  0  0
 17 21  1  0  0  0  0
 17 25  1  0  0  0  0
 17 27  2  0  0  0  0
 18 26  1  0  0  0  0
 19 26  1  0  0  0  0
 20 21  1  6  0  0  0
 22 23  2  0  0  0  0
 23 24  1  0  0  0  0
 24 25  1  0  0  0  0
  1 29  1  0  0  0  0
  2 30  1  0  0  0  0
  3 31  1  0  0  0  0
  4 32  1  0  0  0  0
  5 33  1  0  0  0  0
  6 34  1  0  0  0  0
  7 35  1  0  0  0  0
  8 36  1  0  0  0  0
  9 37  1  0  0  0  0
 10 38  1  0  0  0  0
 11 39  1  0  0  0  0
 18 40  1  0  0  0  0
 18 41  1  0  0  0  0
 18 42  1  0  0  0  0
 19 43  1  0  0  0  0
 19 44  1  0  0  0  0
 19 45  1  0  0  0  0
 20 46  1  0  0  0  0
 20 47  1  0  0  0  0
 21 48  1  0  0  0  0
 25 49  1  0  0  0  0
M  END
> <clash_score>
0.6256197707787204

> <docking_score>
-8.095808982849121

> <overlap_score>
0.9089251160621643

$$$$
BENZO_169_1
  -OEChem-08222022173D

 52 55  0     1  0  0  0  0  0999 V2000
   14.1331    1.9885   23.4148 C   0  0  0  0  0  0  0  0  0  0  0  0
   13.2637    3.0696   23.5597 C   0  0  0  0  0  0  0  0  0  0  0  0
   13.6252    0.6927   23.3211 C   0  0  0  0  0  0  0  0  0  0  0  0
    3.9160    2.0630   19.5520 C   0  0  0  0  0  0  0  0  0  0  0  0
    4.2750    1.7050   20.8490 C   0  0  0  0  0  0  0  0  0  0  0  0
   11.8864    2.8549   23.6110 C   0  0  0  0  0  0  0  0  0  0  0  0
   12.2479    0.4781   23.3723 C   0  0  0  0  0  0  0  0  0  0  0  0
    9.0720   -1.1280   24.8640 C   0  0  0  0  0  0  0  0  0  0  0  0
    9.7200   -2.2600   22.8630 C   0  0  0  0  0  0  0  0  0  0  0  0
    4.6890    1.6810   18.4640 C   0  0  0  0  0  0  0  0  0  0  0  0
    5.4210    0.9600   21.0930 C   0  0  0  0  0  0  0  0  0  0  0  0
    8.9960   -2.3380   25.5320 C   0  0  0  0  0  0  0  0  0  0  0  0
    9.6730   -3.4710   23.5300 C   0  0  0  0  0  0  0  0  0  0  0  0
   11.3785    1.5592   23.5173 C   0  0  0  0  0  0  0  0  0  0  0  0
    9.3350   -1.0880   23.5010 C   0  0  0  0  0  0  0  0  0  0  0  0
    5.8300    0.9190   18.6970 C   0  0  0  0  0  0  0  0  0  0  0  0
    6.1790    0.5730   19.9990 C   0  0  0  0  0  0  0  0  0  0  0  0
    9.3070   -3.5340   24.8780 C   0  0  0  0  0  0  0  0  0  0  0  0
    9.0420    0.3700   21.5280 C   0  0  0  0  0  0  0  0  0  0  0  0
    8.0148   -5.2164   26.1419 C   0  0  0  0  0  0  0  0  0  0  0  0
   10.4390   -5.5857   25.6570 C   0  0  0  0  0  0  0  0  0  0  0  0
    9.8870    1.3260   23.5730 C   0  0  0  0  0  0  0  0  0  0  0  0
    9.4560    0.1560   22.8130 C   0  0  1  0  0  0  0  0  0  0  0  0
    6.7580    0.3810   17.8350 N   0  0  0  0  0  0  0  0  0  0  0  0
    7.6390   -0.2680   18.5410 N   0  0  0  0  0  0  0  0  0  0  0  0
    7.3170   -0.1610   19.8550 N   0  0  0  0  0  0  0  0  0  0  0  0
    8.1890   -0.7180   20.8700 N   0  0  0  0  0  0  0  0  0  0  0  0
    9.2556   -4.7554   25.5514 N   0  0  0  0  0  0  0  0  0  0  0  0
    9.2690    1.4140   20.9380 O   0  0  0  0  0  0  0  0  0  0  0  0
   15.2054    2.1559   23.3735 H   0  0  0  0  0  0  0  0  0  0  0  0
   13.6589    4.0787   23.6315 H   0  0  0  0  0  0  0  0  0  0  0  0
   14.3017   -0.1491   23.2071 H   0  0  0  0  0  0  0  0  0  0  0  0
    3.0136    2.6526   19.3908 H   0  0  0  0  0  0  0  0  0  0  0  0
    3.6480    2.0140   21.6821 H   0  0  0  0  0  0  0  0  0  0  0  0
   11.2166    3.7033   23.7242 H   0  0  0  0  0  0  0  0  0  0  0  0
   11.8612   -0.5349   23.2987 H   0  0  0  0  0  0  0  0  0  0  0  0
    8.9214   -0.1986   25.4206 H   0  0  0  0  0  0  0  0  0  0  0  0
   10.0622   -2.2326   21.8251 H   0  0  0  0  0  0  0  0  0  0  0  0
    4.4042    1.9741   17.4524 H   0  0  0  0  0  0  0  0  0  0  0  0
    5.7089    0.6919   22.1150 H   0  0  0  0  0  0  0  0  0  0  0  0
    8.6882   -2.3542   26.5803 H   0  0  0  0  0  0  0  0  0  0  0  0
    9.9258   -4.3896   22.9914 H   0  0  0  0  0  0  0  0  0  0  0  0
    8.1775   -6.1919   26.6236 H   0  0  0  0  0  0  0  0  0  0  0  0
    7.6740   -4.4889   26.8933 H   0  0  0  0  0  0  0  0  0  0  0  0
    7.2508   -5.3181   25.3570 H   0  0  0  0  0  0  0  0  0  0  0  0
   10.1974   -6.4996   26.2196 H   0  0  0  0  0  0  0  0  0  0  0  0
   10.7877   -5.8568   24.6496 H   0  0  0  0  0  0  0  0  0  0  0  0
   11.2305   -5.0307   26.1819 H   0  0  0  0  0  0  0  0  0  0  0  0
    9.6026    1.2057   24.6276 H   0  0  0  0  0  0  0  0  0  0  0  0
    9.3596    2.2290   23.2378 H   0  0  0  0  0  0  0  0  0  0  0  0
    8.0683    0.4897   23.2524 H   0  0  0  0  0  0  0  0  0  0  0  0
    8.2712   -1.5583   21.1209 H   0  0  0  0  0  0  0  0  0  0  0  0
  1  2  1  0  0  0  0
  1  3  2  0  0  0  0
  2  6  2  0  0  0  0
  3  7  1  0  0  0  0
  4  5  1  0  0  0  0
  4 10  2  0  0  0  0
  5 11  2  0  0  0  0
  6 14  1  0  0  0  0
  7 14  2  0  0  0  0
  8 12  2  0  0  0  0
  8 15  1  0  0  0  0
  9 13  1  0  0  0  0
  9 15  2  0  0  0  0
 10 16  1  0  0  0  0
 11 17  1  0  0  0  0
 12 18  1  0  0  0  0
 13 18  2  0  0  0  0
 14 22  1  0  0  0  0
 15 23  1  0  0  0  0
 16 17  2  0  0  0  0
 16 24  1  0  0  0  0
 17 26  1  0  0  0  0
 18 28  1  0  0  0  0
 19 23  1  0  0  0  0
 19 27  1  0  0  0  0
 19 29  2  0  0  0  0
 20 28  1  0  0  0  0
 21 28  1  0  0  0  0
 22 23  1  1  0  0  0
 24 25  2  0  0  0  0
 25 26  1  0  0  0  0
 26 27  1  0  0  0  0
  1 30  1  0  0  0  0
  2 31  1  0  0  0  0
  3 32  1  0  0  0  0
  4 33  1  0  0  0  0
  5 34  1  0  0  0  0
  6 35  1  0  0  0  0
  7 36  1  0  0  0  0
  8 37  1  0  0  0  0
  9 38  1  0  0  0  0
 10 39  1  0  0  0  0
 11 40  1  0  0  0  0
 12 41  1  0  0  0  0
 13 42  1  0  0  0  0
 20 43  1  0  0  0  0
 20 44  1  0  0  0  0
 20 45  1  0  0  0  0
 21 46  1  0  0  0  0
 21 47  1  0  0  0  0
 21 48  1  0  0  0  0
 22 49  1  0  0  0  0
 22 50  1  0  0  0  0
 23 51  1  0  0  0  0
 27 52  1  0  0  0  0
M  END
> <clash_score>
0

> <docking_score>
-9.522687911987305

> <overlap_score>
0.9981404542922974

$$$$
BENZO_169_2
  -OEChem-08222022173D

 52 55  0     1  0  0  0  0  0999 V2000
   12.9175    3.6318   21.5749 C   0  0  0  0  0  0  0  0  0  0  0  0
   13.2831    2.5951   22.4336 C   0  0  0  0  0  0  0  0  0  0  0  0
   11.5692    3.9205   21.3646 C   0  0  0  0  0  0  0  0  0  0  0  0
    3.9160    2.0630   19.5520 C   0  0  0  0  0  0  0  0  0  0  0  0
    4.2750    1.7050   20.8490 C   0  0  0  0  0  0  0  0  0  0  0  0
   12.3003    1.8471   23.0818 C   0  0  0  0  0  0  0  0  0  0  0  0
   10.5864    3.1725   22.0128 C   0  0  0  0  0  0  0  0  0  0  0  0
    9.0720   -1.1280   24.8640 C   0  0  0  0  0  0  0  0  0  0  0  0
    9.7200   -2.2600   22.8630 C   0  0  0  0  0  0  0  0  0  0  0  0
    4.6890    1.6810   18.4640 C   0  0  0  0  0  0  0  0  0  0  0  0
    5.4210    0.9600   21.0930 C   0  0  0  0  0  0  0  0  0  0  0  0
    8.9960   -2.3380   25.5320 C   0  0  0  0  0  0  0  0  0  0  0  0
    9.6730   -3.4710   23.5300 C   0  0  0  0  0  0  0  0  0  0  0  0
   10.9519    2.1358   22.8715 C   0  0  0  0  0  0  0  0  0  0  0  0
    9.3350   -1.0880   23.5010 C   0  0  0  0  0  0  0  0  0  0  0  0
    5.8300    0.9190   18.6970 C   0  0  0  0  0  0  0  0  0  0  0  0
    6.1790    0.5730   19.9990 C   0  0  0  0  0  0  0  0  0  0  0  0
    9.3070   -3.5340   24.8780 C   0  0  0  0  0  0  0  0  0  0  0  0
    9.0420    0.3700   21.5280 C   0  0  0  0  0  0  0  0  0  0  0  0
    8.8766   -4.8075   26.9494 C   0  0  0  0  0  0  0  0  0  0  0  0
    9.5670   -5.9896   24.8578 C   0  0  0  0  0  0  0  0  0  0  0  0
    9.8870    1.3260   23.5730 C   0  0  0  0  0  0  0  0  0  0  0  0
    9.4560    0.1560   22.8130 C   0  0  2  0  0  0  0  0  0  0  0  0
    6.7580    0.3810   17.8350 N   0  0  0  0  0  0  0  0  0  0  0  0
    7.6390   -0.2680   18.5410 N   0  0  0  0  0  0  0  0  0  0  0  0
    7.3170   -0.1610   19.8550 N   0  0  0  0  0  0  0  0  0  0  0  0
    8.1890   -0.7180   20.8700 N   0  0  0  0  0  0  0  0  0  0  0  0
    9.2556   -4.7554   25.5514 N   0  0  0  0  0  0  0  0  0  0  0  0
    9.2690    1.4140   20.9380 O   0  0  0  0  0  0  0  0  0  0  0  0
   13.6830    4.2150   21.0713 H   0  0  0  0  0  0  0  0  0  0  0  0
   14.3329    2.3708   22.5984 H   0  0  0  0  0  0  0  0  0  0  0  0
   11.2842    4.7283   20.6970 H   0  0  0  0  0  0  0  0  0  0  0  0
    3.0136    2.6526   19.3908 H   0  0  0  0  0  0  0  0  0  0  0  0
    3.6480    2.0140   21.6821 H   0  0  0  0  0  0  0  0  0  0  0  0
   12.5944    1.0411   23.7490 H   0  0  0  0  0  0  0  0  0  0  0  0
    9.5383    3.4046   21.8428 H   0  0  0  0  0  0  0  0  0  0  0  0
    8.9214   -0.1986   25.4206 H   0  0  0  0  0  0  0  0  0  0  0  0
   10.0622   -2.2326   21.8251 H   0  0  0  0  0  0  0  0  0  0  0  0
    4.4042    1.9741   17.4524 H   0  0  0  0  0  0  0  0  0  0  0  0
    5.7089    0.6919   22.1150 H   0  0  0  0  0  0  0  0  0  0  0  0
    8.6882   -2.3542   26.5803 H   0  0  0  0  0  0  0  0  0  0  0  0
    9.9258   -4.3896   22.9914 H   0  0  0  0  0  0  0  0  0  0  0  0
    8.8956   -5.8512   27.2963 H   0  0  0  0  0  0  0  0  0  0  0  0
    9.5845   -4.2109   27.5435 H   0  0  0  0  0  0  0  0  0  0  0  0
    7.8621   -4.3997   27.0696 H   0  0  0  0  0  0  0  0  0  0  0  0
    9.4708   -6.8361   25.5536 H   0  0  0  0  0  0  0  0  0  0  0  0
    8.8693   -6.1242   24.0181 H   0  0  0  0  0  0  0  0  0  0  0  0
   10.5973   -5.9450   24.4750 H   0  0  0  0  0  0  0  0  0  0  0  0
   10.2899    1.0067   24.5442 H   0  0  0  0  0  0  0  0  0  0  0  0
    9.0336    1.9722   23.8180 H   0  0  0  0  0  0  0  0  0  0  0  0
   10.7792   -0.1072   22.4110 H   0  0  0  0  0  0  0  0  0  0  0  0
    8.2712   -1.5583   21.1209 H   0  0  0  0  0  0  0  0  0  0  0  0
  1  2  1  0  0  0  0
  1  3  2  0  0  0  0
  2  6  2  0  0  0  0
  3  7  1  0  0  0  0
  4  5  1  0  0  0  0
  4 10  2  0  0  0  0
  5 11  2  0  0  0  0
  6 14  1  0  0  0  0
  7 14  2  0  0  0  0
  8 12  2  0  0  0  0
  8 15  1  0  0  0  0
  9 13  1  0  0  0  0
  9 15  2  0  0  0  0
 10 16  1  0  0  0  0
 11 17  1  0  0  0  0
 12 18  1  0  0  0  0
 13 18  2  0  0  0  0
 14 22  1  0  0  0  0
 15 23  1  0  0  0  0
 16 17  2  0  0  0  0
 16 24  1  0  0  0  0
 17 26  1  0  0  0  0
 18 28  1  0  0  0  0
 19 23  1  0  0  0  0
 19 27  1  0  0  0  0
 19 29  2  0  0  0  0
 20 28  1  0  0  0  0
 21 28  1  0  0  0  0
 22 23  1  6  0  0  0
 24 25  2  0  0  0  0
 25 26  1  0  0  0  0
 26 27  1  0  0  0  0
  1 30  1  0  0  0  0
  2 31  1  0  0  0  0
  3 32  1  0  0  0  0
  4 33  1  0  0  0  0
  5 34  1  0  0  0  0
  6 35  1  0  0  0  0
  7 36  1  0  0  0  0
  8 37  1  0  0  0  0
  9 38  1  0  0  0  0
 10 39  1  0  0  0  0
 11 40  1  0  0  0  0
 12 41  1  0  0  0  0
 13 42  1  0  0  0  0
 20 43  1  0  0  0  0
 20 44  1  0  0  0  0
 20 45  1  0  0  0  0
 21 46  1  0  0  0  0
 21 47  1  0  0  0  0
 21 48  1  0  0  0  0
 22 49  1  0  0  0  0
 22 50  1  0  0  0  0
 23 51  1  0  0  0  0
 27 52  1  0  0  0  0
M  END
> <clash_score>
0.6231716091146392

> <docking_score>
-9.246442794799805

> <overlap_score>
0.9609171748161316

$$$$
BENZO_170_1
  -OEChem-08222022173D

 52 55  0     1  0  0  0  0  0999 V2000
    3.9160    2.0630   19.5520 C   0  0  0  0  0  0  0  0  0  0  0  0
    4.2750    1.7050   20.8490 C   0  0  0  0  0  0  0  0  0  0  0  0
   13.6250    0.6929   23.3186 C   0  0  0  0  0  0  0  0  0  0  0  0
   12.2478    0.4782   23.3713 C   0  0  0  0  0  0  0  0  0  0  0  0
    9.0720   -1.1280   24.8640 C   0  0  0  0  0  0  0  0  0  0  0  0
    9.7200   -2.2600   22.8630 C   0  0  0  0  0  0  0  0  0  0  0  0
    4.6890    1.6810   18.4640 C   0  0  0  0  0  0  0  0  0  0  0  0
    5.4210    0.9600   21.0930 C   0  0  0  0  0  0  0  0  0  0  0  0
    8.9960   -2.3380   25.5320 C   0  0  0  0  0  0  0  0  0  0  0  0
    9.6730   -3.4710   23.5300 C   0  0  0  0  0  0  0  0  0  0  0  0
   14.1329    1.9886   23.4121 C   0  0  0  0  0  0  0  0  0  0  0  0
   11.8864    2.8550   23.6107 C   0  0  0  0  0  0  0  0  0  0  0  0
    9.3350   -1.0880   23.5010 C   0  0  0  0  0  0  0  0  0  0  0  0
   11.3785    1.5592   23.5173 C   0  0  0  0  0  0  0  0  0  0  0  0
    5.8300    0.9190   18.6970 C   0  0  0  0  0  0  0  0  0  0  0  0
    6.1790    0.5730   19.9990 C   0  0  0  0  0  0  0  0  0  0  0  0
    9.3070   -3.5340   24.8780 C   0  0  0  0  0  0  0  0  0  0  0  0
   13.2636    3.0696   23.5581 C   0  0  0  0  0  0  0  0  0  0  0  0
    9.0420    0.3700   21.5280 C   0  0  0  0  0  0  0  0  0  0  0  0
    8.0148   -5.2164   26.1419 C   0  0  0  0  0  0  0  0  0  0  0  0
   10.4390   -5.5857   25.6570 C   0  0  0  0  0  0  0  0  0  0  0  0
    9.8870    1.3260   23.5730 C   0  0  0  0  0  0  0  0  0  0  0  0
    9.4560    0.1560   22.8130 C   0  0  1  0  0  0  0  0  0  0  0  0
    6.7580    0.3810   17.8350 N   0  0  0  0  0  0  0  0  0  0  0  0
    7.6390   -0.2680   18.5410 N   0  0  0  0  0  0  0  0  0  0  0  0
    7.3170   -0.1610   19.8550 N   0  0  0  0  0  0  0  0  0  0  0  0
    8.1890   -0.7180   20.8700 N   0  0  0  0  0  0  0  0  0  0  0  0
    9.2556   -4.7554   25.5514 N   0  0  0  0  0  0  0  0  0  0  0  0
    9.2690    1.4140   20.9380 O   0  0  0  0  0  0  0  0  0  0  0  0
   13.8909    4.6682   23.6722 Cl  0  0  0  0  0  0  0  0  0  0  0  0
    3.0136    2.6526   19.3908 H   0  0  0  0  0  0  0  0  0  0  0  0
    3.6480    2.0140   21.6821 H   0  0  0  0  0  0  0  0  0  0  0  0
   14.3015   -0.1492   23.2047 H   0  0  0  0  0  0  0  0  0  0  0  0
   11.8608   -0.5348   23.2975 H   0  0  0  0  0  0  0  0  0  0  0  0
    8.9214   -0.1986   25.4206 H   0  0  0  0  0  0  0  0  0  0  0  0
   10.0622   -2.2326   21.8251 H   0  0  0  0  0  0  0  0  0  0  0  0
    4.4042    1.9741   17.4524 H   0  0  0  0  0  0  0  0  0  0  0  0
    5.7089    0.6919   22.1150 H   0  0  0  0  0  0  0  0  0  0  0  0
    8.6882   -2.3542   26.5803 H   0  0  0  0  0  0  0  0  0  0  0  0
    9.9258   -4.3896   22.9914 H   0  0  0  0  0  0  0  0  0  0  0  0
   15.2086    2.1410   23.3692 H   0  0  0  0  0  0  0  0  0  0  0  0
   11.2045    3.6944   23.7250 H   0  0  0  0  0  0  0  0  0  0  0  0
    8.1775   -6.1919   26.6236 H   0  0  0  0  0  0  0  0  0  0  0  0
    7.6740   -4.4889   26.8933 H   0  0  0  0  0  0  0  0  0  0  0  0
    7.2508   -5.3181   25.3570 H   0  0  0  0  0  0  0  0  0  0  0  0
   10.1974   -6.4996   26.2196 H   0  0  0  0  0  0  0  0  0  0  0  0
   10.7877   -5.8568   24.6496 H   0  0  0  0  0  0  0  0  0  0  0  0
   11.2305   -5.0307   26.1819 H   0  0  0  0  0  0  0  0  0  0  0  0
    9.6026    1.2057   24.6276 H   0  0  0  0  0  0  0  0  0  0  0  0
    9.3596    2.2290   23.2378 H   0  0  0  0  0  0  0  0  0  0  0  0
    8.0683    0.4897   23.2524 H   0  0  0  0  0  0  0  0  0  0  0  0
    8.2712   -1.5583   21.1209 H   0  0  0  0  0  0  0  0  0  0  0  0
  1  2  1  0  0  0  0
  1  7  2  0  0  0  0
  2  8  2  0  0  0  0
  3  4  2  0  0  0  0
  3 11  1  0  0  0  0
  4 14  1  0  0  0  0
  5  9  2  0  0  0  0
  5 13  1  0  0  0  0
  6 10  1  0  0  0  0
  6 13  2  0  0  0  0
  7 15  1  0  0  0  0
  8 16  1  0  0  0  0
  9 17  1  0  0  0  0
 10 17  2  0  0  0  0
 11 18  2  0  0  0  0
 12 14  2  0  0  0  0
 12 18  1  0  0  0  0
 13 23  1  0  0  0  0
 14 22  1  0  0  0  0
 15 16  2  0  0  0  0
 15 24  1  0  0  0  0
 16 26  1  0  0  0  0
 17 28  1  0  0  0  0
 18 30  1  0  0  0  0
 19 23  1  0  0  0  0
 19 27  1  0  0  0  0
 19 29  2  0  0  0  0
 20 28  1  0  0  0  0
 21 28  1  0  0  0  0
 22 23  1  1  0  0  0
 24 25  2  0  0  0  0
 25 26  1  0  0  0  0
 26 27  1  0  0  0  0
  1 31  1  0  0  0  0
  2 32  1  0  0  0  0
  3 33  1  0  0  0  0
  4 34  1  0  0  0  0
  5 35  1  0  0  0  0
  6 36  1  0  0  0  0
  7 37  1  0  0  0  0
  8 38  1  0  0  0  0
  9 39  1  0  0  0  0
 10 40  1  0  0  0  0
 11 41  1  0  0  0  0
 12 42  1  0  0  0  0
 20 43  1  0  0  0  0
 20 44  1  0  0  0  0
 20 45  1  0  0  0  0
 21 46  1  0  0  0  0
 21 47  1  0  0  0  0
 21 48  1  0  0  0  0
 22 49  1  0  0  0  0
 22 50  1  0  0  0  0
 23 51  1  0  0  0  0
 27 52  1  0  0  0  0
M  END
> <clash_score>
0

> <docking_score>
-9.19648551940918

> <overlap_score>
1.0000269412994385

$$$$
BENZO_170_2
  -OEChem-08222022173D

 52 55  0     1  0  0  0  0  0999 V2000
    3.9160    2.0630   19.5520 C   0  0  0  0  0  0  0  0  0  0  0  0
    4.2750    1.7050   20.8490 C   0  0  0  0  0  0  0  0  0  0  0  0
   13.2836    2.5921   22.4338 C   0  0  0  0  0  0  0  0  0  0  0  0
   12.2999    1.8455   23.0821 C   0  0  0  0  0  0  0  0  0  0  0  0
    9.0720   -1.1280   24.8640 C   0  0  0  0  0  0  0  0  0  0  0  0
    9.7200   -2.2600   22.8630 C   0  0  0  0  0  0  0  0  0  0  0  0
    4.6890    1.6810   18.4640 C   0  0  0  0  0  0  0  0  0  0  0  0
    5.4210    0.9600   21.0930 C   0  0  0  0  0  0  0  0  0  0  0  0
    8.9960   -2.3380   25.5320 C   0  0  0  0  0  0  0  0  0  0  0  0
    9.6730   -3.4710   23.5300 C   0  0  0  0  0  0  0  0  0  0  0  0
   12.9195    3.6292   21.5749 C   0  0  0  0  0  0  0  0  0  0  0  0
   10.5877    3.1728   22.0126 C   0  0  0  0  0  0  0  0  0  0  0  0
    9.3350   -1.0880   23.5010 C   0  0  0  0  0  0  0  0  0  0  0  0
   10.9519    2.1358   22.8715 C   0  0  0  0  0  0  0  0  0  0  0  0
    5.8300    0.9190   18.6970 C   0  0  0  0  0  0  0  0  0  0  0  0
    6.1790    0.5730   19.9990 C   0  0  0  0  0  0  0  0  0  0  0  0
    9.3070   -3.5340   24.8780 C   0  0  0  0  0  0  0  0  0  0  0  0
   11.5715    3.9195   21.3643 C   0  0  0  0  0  0  0  0  0  0  0  0
    9.0420    0.3700   21.5280 C   0  0  0  0  0  0  0  0  0  0  0  0
    8.8766   -4.8075   26.9494 C   0  0  0  0  0  0  0  0  0  0  0  0
    9.5670   -5.9896   24.8578 C   0  0  0  0  0  0  0  0  0  0  0  0
    9.8870    1.3260   23.5730 C   0  0  0  0  0  0  0  0  0  0  0  0
    9.4560    0.1560   22.8130 C   0  0  2  0  0  0  0  0  0  0  0  0
    6.7580    0.3810   17.8350 N   0  0  0  0  0  0  0  0  0  0  0  0
    7.6390   -0.2680   18.5410 N   0  0  0  0  0  0  0  0  0  0  0  0
    7.3170   -0.1610   19.8550 N   0  0  0  0  0  0  0  0  0  0  0  0
    8.1890   -0.7180   20.8700 N   0  0  0  0  0  0  0  0  0  0  0  0
    9.2556   -4.7554   25.5514 N   0  0  0  0  0  0  0  0  0  0  0  0
    9.2690    1.4140   20.9380 O   0  0  0  0  0  0  0  0  0  0  0  0
   11.1228    5.1983   20.3036 Cl  0  0  0  0  0  0  0  0  0  0  0  0
    3.0136    2.6526   19.3908 H   0  0  0  0  0  0  0  0  0  0  0  0
    3.6480    2.0140   21.6821 H   0  0  0  0  0  0  0  0  0  0  0  0
   14.3332    2.3656   22.5979 H   0  0  0  0  0  0  0  0  0  0  0  0
   12.5928    1.0392   23.7495 H   0  0  0  0  0  0  0  0  0  0  0  0
    8.9214   -0.1986   25.4206 H   0  0  0  0  0  0  0  0  0  0  0  0
   10.0622   -2.2326   21.8251 H   0  0  0  0  0  0  0  0  0  0  0  0
    4.4042    1.9741   17.4524 H   0  0  0  0  0  0  0  0  0  0  0  0
    5.7089    0.6919   22.1150 H   0  0  0  0  0  0  0  0  0  0  0  0
    8.6882   -2.3542   26.5803 H   0  0  0  0  0  0  0  0  0  0  0  0
    9.9258   -4.3896   22.9914 H   0  0  0  0  0  0  0  0  0  0  0  0
   13.6970    4.2025   21.0761 H   0  0  0  0  0  0  0  0  0  0  0  0
    9.5353    3.3956   21.8521 H   0  0  0  0  0  0  0  0  0  0  0  0
    8.8956   -5.8512   27.2963 H   0  0  0  0  0  0  0  0  0  0  0  0
    9.5845   -4.2109   27.5435 H   0  0  0  0  0  0  0  0  0  0  0  0
    7.8621   -4.3997   27.0696 H   0  0  0  0  0  0  0  0  0  0  0  0
    9.4708   -6.8361   25.5536 H   0  0  0  0  0  0  0  0  0  0  0  0
    8.8693   -6.1242   24.0181 H   0  0  0  0  0  0  0  0  0  0  0  0
   10.5973   -5.9450   24.4750 H   0  0  0  0  0  0  0  0  0  0  0  0
   10.2899    1.0067   24.5442 H   0  0  0  0  0  0  0  0  0  0  0  0
    9.0336    1.9722   23.8180 H   0  0  0  0  0  0  0  0  0  0  0  0
   10.7792   -0.1072   22.4110 H   0  0  0  0  0  0  0  0  0  0  0  0
    8.2712   -1.5583   21.1209 H   0  0  0  0  0  0  0  0  0  0  0  0
  1  2  1  0  0  0  0
  1  7  2  0  0  0  0
  2  8  2  0  0  0  0
  3  4  2  0  0  0  0
  3 11  1  0  0  0  0
  4 14  1  0  0  0  0
  5  9  2  0  0  0  0
  5 13  1  0  0  0  0
  6 10  1  0  0  0  0
  6 13  2  0  0  0  0
  7 15  1  0  0  0  0
  8 16  1  0  0  0  0
  9 17  1  0  0  0  0
 10 17  2  0  0  0  0
 11 18  2  0  0  0  0
 12 14  2  0  0  0  0
 12 18  1  0  0  0  0
 13 23  1  0  0  0  0
 14 22  1  0  0  0  0
 15 16  2  0  0  0  0
 15 24  1  0  0  0  0
 16 26  1  0  0  0  0
 17 28  1  0  0  0  0
 18 30  1  0  0  0  0
 19 23  1  0  0  0  0
 19 27  1  0  0  0  0
 19 29  2  0  0  0  0
 20 28  1  0  0  0  0
 21 28  1  0  0  0  0
 22 23  1  6  0  0  0
 24 25  2  0  0  0  0
 25 26  1  0  0  0  0
 26 27  1  0  0  0  0
  1 31  1  0  0  0  0
  2 32  1  0  0  0  0
  3 33  1  0  0  0  0
  4 34  1  0  0  0  0
  5 35  1  0  0  0  0
  6 36  1  0  0  0  0
  7 37  1  0  0  0  0
  8 38  1  0  0  0  0
  9 39  1  0  0  0  0
 10 40  1  0  0  0  0
 11 41  1  0  0  0  0
 12 42  1  0  0  0  0
 20 43  1  0  0  0  0
 20 44  1  0  0  0  0
 20 45  1  0  0  0  0
 21 46  1  0  0  0  0
 21 47  1  0  0  0  0
 21 48  1  0  0  0  0
 22 49  1  0  0  0  0
 22 50  1  0  0  0  0
 23 51  1  0  0  0  0
 27 52  1  0  0  0  0
M  END
> <clash_score>
2.2169697570105162

> <docking_score>
-8.536982536315918

> <overlap_score>
0.9597316384315491

$$$$
BENZO_171_1
  -OEChem-08222022173D

 52 55  0     1  0  0  0  0  0999 V2000
    3.9160    2.0630   19.5520 C   0  0  0  0  0  0  0  0  0  0  0  0
    4.2750    1.7050   20.8490 C   0  0  0  0  0  0  0  0  0  0  0  0
    9.0720   -1.1280   24.8640 C   0  0  0  0  0  0  0  0  0  0  0  0
    9.7200   -2.2600   22.8630 C   0  0  0  0  0  0  0  0  0  0  0  0
    4.6890    1.6810   18.4640 C   0  0  0  0  0  0  0  0  0  0  0  0
    5.4210    0.9600   21.0930 C   0  0  0  0  0  0  0  0  0  0  0  0
    8.9960   -2.3380   25.5320 C   0  0  0  0  0  0  0  0  0  0  0  0
    9.6730   -3.4710   23.5300 C   0  0  0  0  0  0  0  0  0  0  0  0
   12.0646    2.7858   23.5979 C   0  0  0  0  0  0  0  0  0  0  0  0
   12.3704    0.6193   23.3790 C   0  0  0  0  0  0  0  0  0  0  0  0
    9.3350   -1.0880   23.5010 C   0  0  0  0  0  0  0  0  0  0  0  0
   11.3785    1.5592   23.5173 C   0  0  0  0  0  0  0  0  0  0  0  0
    5.8300    0.9190   18.6970 C   0  0  0  0  0  0  0  0  0  0  0  0
    6.1790    0.5730   19.9990 C   0  0  0  0  0  0  0  0  0  0  0  0
    9.3070   -3.5340   24.8780 C   0  0  0  0  0  0  0  0  0  0  0  0
    9.0420    0.3700   21.5280 C   0  0  0  0  0  0  0  0  0  0  0  0
   14.8700    0.7541   23.2663 C   0  0  0  0  0  0  0  0  0  0  0  0
    8.0148   -5.2164   26.1419 C   0  0  0  0  0  0  0  0  0  0  0  0
   10.4390   -5.5857   25.6570 C   0  0  0  0  0  0  0  0  0  0  0  0
    9.8870    1.3260   23.5730 C   0  0  0  0  0  0  0  0  0  0  0  0
    9.4560    0.1560   22.8130 C   0  0  1  0  0  0  0  0  0  0  0  0
   13.3900    2.6414   23.5177 N   0  0  0  0  0  0  0  0  0  0  0  0
    6.7580    0.3810   17.8350 N   0  0  0  0  0  0  0  0  0  0  0  0
    7.6390   -0.2680   18.5410 N   0  0  0  0  0  0  0  0  0  0  0  0
   13.5447    1.3130   23.3854 N   0  0  0  0  0  0  0  0  0  0  0  0
    7.3170   -0.1610   19.8550 N   0  0  0  0  0  0  0  0  0  0  0  0
    8.1890   -0.7180   20.8700 N   0  0  0  0  0  0  0  0  0  0  0  0
    9.2556   -4.7554   25.5514 N   0  0  0  0  0  0  0  0  0  0  0  0
    9.2690    1.4140   20.9380 O   0  0  0  0  0  0  0  0  0  0  0  0
    3.0136    2.6526   19.3908 H   0  0  0  0  0  0  0  0  0  0  0  0
    3.6480    2.0140   21.6821 H   0  0  0  0  0  0  0  0  0  0  0  0
    8.9214   -0.1986   25.4206 H   0  0  0  0  0  0  0  0  0  0  0  0
   10.0622   -2.2326   21.8251 H   0  0  0  0  0  0  0  0  0  0  0  0
    4.4042    1.9741   17.4524 H   0  0  0  0  0  0  0  0  0  0  0  0
    5.7089    0.6919   22.1150 H   0  0  0  0  0  0  0  0  0  0  0  0
    8.6882   -2.3542   26.5803 H   0  0  0  0  0  0  0  0  0  0  0  0
    9.9258   -4.3896   22.9914 H   0  0  0  0  0  0  0  0  0  0  0  0
   11.6563    3.7799   23.7126 H   0  0  0  0  0  0  0  0  0  0  0  0
   12.3415   -0.4574   23.2805 H   0  0  0  0  0  0  0  0  0  0  0  0
   15.1278    0.7207   22.2045 H   0  0  0  0  0  0  0  0  0  0  0  0
   15.5801    1.3811   23.8126 H   0  0  0  0  0  0  0  0  0  0  0  0
   14.8776   -0.2522   23.6945 H   0  0  0  0  0  0  0  0  0  0  0  0
    8.1775   -6.1919   26.6236 H   0  0  0  0  0  0  0  0  0  0  0  0
    7.6740   -4.4889   26.8933 H   0  0  0  0  0  0  0  0  0  0  0  0
    7.2508   -5.3181   25.3570 H   0  0  0  0  0  0  0  0  0  0  0  0
   10.1974   -6.4996   26.2196 H   0  0  0  0  0  0  0  0  0  0  0  0
   10.7877   -5.8568   24.6496 H   0  0  0  0  0  0  0  0  0  0  0  0
   11.2305   -5.0307   26.1819 H   0  0  0  0  0  0  0  0  0  0  0  0
    9.6026    1.2057   24.6276 H   0  0  0  0  0  0  0  0  0  0  0  0
    9.3596    2.2290   23.2378 H   0  0  0  0  0  0  0  0  0  0  0  0
    8.0683    0.4897   23.2524 H   0  0  0  0  0  0  0  0  0  0  0  0
    8.2712   -1.5583   21.1209 H   0  0  0  0  0  0  0  0  0  0  0  0
  1  2  1  0  0  0  0
  1  5  2  0  0  0  0
  2  6  2  0  0  0  0
  3  7  2  0  0  0  0
  3 11  1  0  0  0  0
  4  8  1  0  0  0  0
  4 11  2  0  0  0  0
  5 13  1  0  0  0  0
  6 14  1  0  0  0  0
  7 15  1  0  0  0  0
  8 15  2  0  0  0  0
  9 12  1  0  0  0  0
  9 22  2  0  0  0  0
 10 12  2  0  0  0  0
 10 25  1  0  0  0  0
 11 21  1  0  0  0  0
 12 20  1  0  0  0  0
 13 14  2  0  0  0  0
 13 23  1  0  0  0  0
 14 26  1  0  0  0  0
 15 28  1  0  0  0  0
 16 21  1  0  0  0  0
 16 27  1  0  0  0  0
 16 29  2  0  0  0  0
 17 25  1  0  0  0  0
 18 28  1  0  0  0  0
 19 28  1  0  0  0  0
 20 21  1  1  0  0  0
 22 25  1  0  0  0  0
 23 24  2  0  0  0  0
 24 26  1  0  0  0  0
 26 27  1  0  0  0  0
  1 30  1  0  0  0  0
  2 31  1  0  0  0  0
  3 32  1  0  0  0  0
  4 33  1  0  0  0  0
  5 34  1  0  0  0  0
  6 35  1  0  0  0  0
  7 36  1  0  0  0  0
  8 37  1  0  0  0  0
  9 38  1  0  0  0  0
 10 39  1  0  0  0  0
 17 40  1  0  0  0  0
 17 41  1  0  0  0  0
 17 42  1  0  0  0  0
 18 43  1  0  0  0  0
 18 44  1  0  0  0  0
 18 45  1  0  0  0  0
 19 46  1  0  0  0  0
 19 47  1  0  0  0  0
 19 48  1  0  0  0  0
 20 49  1  0  0  0  0
 20 50  1  0  0  0  0
 21 51  1  0  0  0  0
 27 52  1  0  0  0  0
M  END
> <clash_score>
0

> <docking_score>
-9.567228317260742

> <overlap_score>
0.999101996421814

$$$$
BENZO_171_2
  -OEChem-08222022173D

 52 55  0     1  0  0  0  0  0999 V2000
    3.9160    2.0630   19.5520 C   0  0  0  0  0  0  0  0  0  0  0  0
    4.2750    1.7050   20.8490 C   0  0  0  0  0  0  0  0  0  0  0  0
    9.0720   -1.1280   24.8640 C   0  0  0  0  0  0  0  0  0  0  0  0
    9.7200   -2.2600   22.8630 C   0  0  0  0  0  0  0  0  0  0  0  0
    4.6890    1.6810   18.4640 C   0  0  0  0  0  0  0  0  0  0  0  0
    5.4210    0.9600   21.0930 C   0  0  0  0  0  0  0  0  0  0  0  0
    8.9960   -2.3380   25.5320 C   0  0  0  0  0  0  0  0  0  0  0  0
    9.6730   -3.4710   23.5300 C   0  0  0  0  0  0  0  0  0  0  0  0
   12.3489    1.9871   22.9604 C   0  0  0  0  0  0  0  0  0  0  0  0
   10.7728    3.1825   22.0003 C   0  0  0  0  0  0  0  0  0  0  0  0
    9.3350   -1.0880   23.5010 C   0  0  0  0  0  0  0  0  0  0  0  0
   10.9519    2.1358   22.8715 C   0  0  0  0  0  0  0  0  0  0  0  0
    5.8300    0.9190   18.6970 C   0  0  0  0  0  0  0  0  0  0  0  0
    6.1790    0.5730   19.9990 C   0  0  0  0  0  0  0  0  0  0  0  0
    9.3070   -3.5340   24.8780 C   0  0  0  0  0  0  0  0  0  0  0  0
    9.0420    0.3700   21.5280 C   0  0  0  0  0  0  0  0  0  0  0  0
   12.3501    4.6554   20.7270 C   0  0  0  0  0  0  0  0  0  0  0  0
    8.8766   -4.8075   26.9494 C   0  0  0  0  0  0  0  0  0  0  0  0
    9.5670   -5.9896   24.8578 C   0  0  0  0  0  0  0  0  0  0  0  0
    9.8870    1.3260   23.5730 C   0  0  0  0  0  0  0  0  0  0  0  0
    9.4560    0.1560   22.8130 C   0  0  2  0  0  0  0  0  0  0  0  0
   13.0104    2.8686   22.2058 N   0  0  0  0  0  0  0  0  0  0  0  0
    6.7580    0.3810   17.8350 N   0  0  0  0  0  0  0  0  0  0  0  0
    7.6390   -0.2680   18.5410 N   0  0  0  0  0  0  0  0  0  0  0  0
   12.0247    3.5812   21.6343 N   0  0  0  0  0  0  0  0  0  0  0  0
    7.3170   -0.1610   19.8550 N   0  0  0  0  0  0  0  0  0  0  0  0
    8.1890   -0.7180   20.8700 N   0  0  0  0  0  0  0  0  0  0  0  0
    9.2556   -4.7554   25.5514 N   0  0  0  0  0  0  0  0  0  0  0  0
    9.2690    1.4140   20.9380 O   0  0  0  0  0  0  0  0  0  0  0  0
    3.0136    2.6526   19.3908 H   0  0  0  0  0  0  0  0  0  0  0  0
    3.6480    2.0140   21.6821 H   0  0  0  0  0  0  0  0  0  0  0  0
    8.9214   -0.1986   25.4206 H   0  0  0  0  0  0  0  0  0  0  0  0
   10.0622   -2.2326   21.8251 H   0  0  0  0  0  0  0  0  0  0  0  0
    4.4042    1.9741   17.4524 H   0  0  0  0  0  0  0  0  0  0  0  0
    5.7089    0.6919   22.1150 H   0  0  0  0  0  0  0  0  0  0  0  0
    8.6882   -2.3542   26.5803 H   0  0  0  0  0  0  0  0  0  0  0  0
    9.9258   -4.3896   22.9914 H   0  0  0  0  0  0  0  0  0  0  0  0
   12.9149    1.2733   23.5422 H   0  0  0  0  0  0  0  0  0  0  0  0
    9.8832    3.6646   21.6181 H   0  0  0  0  0  0  0  0  0  0  0  0
   12.4467    5.5737   21.3122 H   0  0  0  0  0  0  0  0  0  0  0  0
   13.2892    4.4277   20.2151 H   0  0  0  0  0  0  0  0  0  0  0  0
   11.5530    4.7557   19.9850 H   0  0  0  0  0  0  0  0  0  0  0  0
    8.8956   -5.8512   27.2963 H   0  0  0  0  0  0  0  0  0  0  0  0
    9.5845   -4.2109   27.5435 H   0  0  0  0  0  0  0  0  0  0  0  0
    7.8621   -4.3997   27.0696 H   0  0  0  0  0  0  0  0  0  0  0  0
    9.4708   -6.8361   25.5536 H   0  0  0  0  0  0  0  0  0  0  0  0
    8.8693   -6.1242   24.0181 H   0  0  0  0  0  0  0  0  0  0  0  0
   10.5973   -5.9450   24.4750 H   0  0  0  0  0  0  0  0  0  0  0  0
   10.2899    1.0067   24.5442 H   0  0  0  0  0  0  0  0  0  0  0  0
    9.0336    1.9722   23.8181 H   0  0  0  0  0  0  0  0  0  0  0  0
   10.7792   -0.1072   22.4110 H   0  0  0  0  0  0  0  0  0  0  0  0
    8.2712   -1.5583   21.1209 H   0  0  0  0  0  0  0  0  0  0  0  0
  1  2  1  0  0  0  0
  1  5  2  0  0  0  0
  2  6  2  0  0  0  0
  3  7  2  0  0  0  0
  3 11  1  0  0  0  0
  4  8  1  0  0  0  0
  4 11  2  0  0  0  0
  5 13  1  0  0  0  0
  6 14  1  0  0  0  0
  7 15  1  0  0  0  0
  8 15  2  0  0  0  0
  9 12  1  0  0  0  0
  9 22  2  0  0  0  0
 10 12  2  0  0  0  0
 10 25  1  0  0  0  0
 11 21  1  0  0  0  0
 12 20  1  0  0  0  0
 13 14  2  0  0  0  0
 13 23  1  0  0  0  0
 14 26  1  0  0  0  0
 15 28  1  0  0  0  0
 16 21  1  0  0  0  0
 16 27  1  0  0  0  0
 16 29  2  0  0  0  0
 17 25  1  0  0  0  0
 18 28  1  0  0  0  0
 19 28  1  0  0  0  0
 20 21  1  6  0  0  0
 22 25  1  0  0  0  0
 23 24  2  0  0  0  0
 24 26  1  0  0  0  0
 26 27  1  0  0  0  0
  1 30  1  0  0  0  0
  2 31  1  0  0  0  0
  3 32  1  0  0  0  0
  4 33  1  0  0  0  0
  5 34  1  0  0  0  0
  6 35  1  0  0  0  0
  7 36  1  0  0  0  0
  8 37  1  0  0  0  0
  9 38  1  0  0  0  0
 10 39  1  0  0  0  0
 17 40  1  0  0  0  0
 17 41  1  0  0  0  0
 17 42  1  0  0  0  0
 18 43  1  0  0  0  0
 18 44  1  0  0  0  0
 18 45  1  0  0  0  0
 19 46  1  0  0  0  0
 19 47  1  0  0  0  0
 19 48  1  0  0  0  0
 20 49  1  0  0  0  0
 20 50  1  0  0  0  0
 21 51  1  0  0  0  0
 27 52  1  0  0  0  0
M  END
> <clash_score>
0

> <docking_score>
-7.987442970275879

> <overlap_score>
0.9541588425636292

$$$$
BENZO_173_2
  -OEChem-08222022173D

 54 57  0     1  0  0  0  0  0999 V2000
   12.9175    3.6318   21.5749 C   0  0  0  0  0  0  0  0  0  0  0  0
   13.2831    2.5951   22.4336 C   0  0  0  0  0  0  0  0  0  0  0  0
   11.5692    3.9205   21.3646 C   0  0  0  0  0  0  0  0  0  0  0  0
    3.9160    2.0630   19.5520 C   0  0  0  0  0  0  0  0  0  0  0  0
    4.2750    1.7050   20.8490 C   0  0  0  0  0  0  0  0  0  0  0  0
   12.3003    1.8471   23.0818 C   0  0  0  0  0  0  0  0  0  0  0  0
   10.5864    3.1725   22.0128 C   0  0  0  0  0  0  0  0  0  0  0  0
    9.0720   -1.1280   24.8640 C   0  0  0  0  0  0  0  0  0  0  0  0
    9.7200   -2.2600   22.8630 C   0  0  0  0  0  0  0  0  0  0  0  0
    4.6890    1.6810   18.4640 C   0  0  0  0  0  0  0  0  0  0  0  0
    5.4210    0.9600   21.0930 C   0  0  0  0  0  0  0  0  0  0  0  0
    8.9960   -2.3380   25.5320 C   0  0  0  0  0  0  0  0  0  0  0  0
    9.6730   -3.4710   23.5300 C   0  0  0  0  0  0  0  0  0  0  0  0
   10.9519    2.1358   22.8715 C   0  0  0  0  0  0  0  0  0  0  0  0
    9.3350   -1.0880   23.5010 C   0  0  0  0  0  0  0  0  0  0  0  0
    5.8300    0.9190   18.6970 C   0  0  0  0  0  0  0  0  0  0  0  0
    6.1790    0.5730   19.9990 C   0  0  0  0  0  0  0  0  0  0  0  0
    9.3070   -3.5340   24.8780 C   0  0  0  0  0  0  0  0  0  0  0  0
    8.4227   -5.1089   26.6141 C   0  0  0  0  0  0  0  0  0  0  0  0
    9.0420    0.3700   21.5280 C   0  0  0  0  0  0  0  0  0  0  0  0
    8.4173   -7.5520   25.9532 C   0  0  0  0  0  0  0  0  0  0  0  0
    9.8870    1.3260   23.5730 C   0  0  0  0  0  0  0  0  0  0  0  0
    8.6900   -6.5411   27.0525 C   0  0  0  0  0  0  0  0  0  0  0  0
    9.4560    0.1560   22.8130 C   0  0  2  0  0  0  0  0  0  0  0  0
    6.7580    0.3810   17.8350 N   0  0  0  0  0  0  0  0  0  0  0  0
    7.6390   -0.2680   18.5410 N   0  0  0  0  0  0  0  0  0  0  0  0
    7.3170   -0.1610   19.8550 N   0  0  0  0  0  0  0  0  0  0  0  0
    9.2546   -4.7423   25.5437 N   0  0  0  0  0  0  0  0  0  0  0  0
    8.1890   -0.7180   20.8700 N   0  0  0  0  0  0  0  0  0  0  0  0
    7.5768   -4.4085   27.1603 O   0  0  0  0  0  0  0  0  0  0  0  0
    9.2690    1.4140   20.9380 O   0  0  0  0  0  0  0  0  0  0  0  0
   13.6830    4.2150   21.0713 H   0  0  0  0  0  0  0  0  0  0  0  0
   14.3329    2.3708   22.5984 H   0  0  0  0  0  0  0  0  0  0  0  0
   11.2842    4.7283   20.6970 H   0  0  0  0  0  0  0  0  0  0  0  0
    3.0136    2.6526   19.3908 H   0  0  0  0  0  0  0  0  0  0  0  0
    3.6480    2.0140   21.6821 H   0  0  0  0  0  0  0  0  0  0  0  0
   12.5944    1.0411   23.7490 H   0  0  0  0  0  0  0  0  0  0  0  0
    9.5383    3.4046   21.8428 H   0  0  0  0  0  0  0  0  0  0  0  0
    8.9202   -0.1986   25.4206 H   0  0  0  0  0  0  0  0  0  0  0  0
   10.0631   -2.2319   21.8252 H   0  0  0  0  0  0  0  0  0  0  0  0
    4.4042    1.9741   17.4524 H   0  0  0  0  0  0  0  0  0  0  0  0
    5.7089    0.6919   22.1150 H   0  0  0  0  0  0  0  0  0  0  0  0
    8.6898   -2.3534   26.5810 H   0  0  0  0  0  0  0  0  0  0  0  0
    9.9254   -4.3899   22.9914 H   0  0  0  0  0  0  0  0  0  0  0  0
    7.3765   -7.4970   25.6177 H   0  0  0  0  0  0  0  0  0  0  0  0
    8.6071   -8.5677   26.3139 H   0  0  0  0  0  0  0  0  0  0  0  0
    9.0598   -7.3717   25.0851 H   0  0  0  0  0  0  0  0  0  0  0  0
   10.2899    1.0067   24.5442 H   0  0  0  0  0  0  0  0  0  0  0  0
    9.0336    1.9722   23.8180 H   0  0  0  0  0  0  0  0  0  0  0  0
    9.7367   -6.6182   27.3685 H   0  0  0  0  0  0  0  0  0  0  0  0
    8.0565   -6.7633   27.9189 H   0  0  0  0  0  0  0  0  0  0  0  0
   10.7792   -0.1072   22.4110 H   0  0  0  0  0  0  0  0  0  0  0  0
    9.9034   -5.4689   25.2194 H   0  0  0  0  0  0  0  0  0  0  0  0
    8.2712   -1.5583   21.1209 H   0  0  0  0  0  0  0  0  0  0  0  0
  1  2  1  0  0  0  0
  1  3  2  0  0  0  0
  2  6  2  0  0  0  0
  3  7  1  0  0  0  0
  4  5  1  0  0  0  0
  4 10  2  0  0  0  0
  5 11  2  0  0  0  0
  6 14  1  0  0  0  0
  7 14  2  0  0  0  0
  8 12  2  0  0  0  0
  8 15  1  0  0  0  0
  9 13  1  0  0  0  0
  9 15  2  0  0  0  0
 10 16  1  0  0  0  0
 11 17  1  0  0  0  0
 12 18  1  0  0  0  0
 13 18  2  0  0  0  0
 14 22  1  0  0  0  0
 15 24  1  0  0  0  0
 16 17  2  0  0  0  0
 16 25  1  0  0  0  0
 17 27  1  0  0  0  0
 18 28  1  0  0  0  0
 19 23  1  0  0  0  0
 19 28  1  0  0  0  0
 19 30  2  0  0  0  0
 20 24  1  0  0  0  0
 20 29  1  0  0  0  0
 20 31  2  0  0  0  0
 21 23  1  0  0  0  0
 22 24  1  6  0  0  0
 25 26  2  0  0  0  0
 26 27  1  0  0  0  0
 27 29  1  0  0  0  0
  1 32  1  0  0  0  0
  2 33  1  0  0  0  0
  3 34  1  0  0  0  0
  4 35  1  0  0  0  0
  5 36  1  0  0  0  0
  6 37  1  0  0  0  0
  7 38  1  0  0  0  0
  8 39  1  0  0  0  0
  9 40  1  0  0  0  0
 10 41  1  0  0  0  0
 11 42  1  0  0  0  0
 12 43  1  0  0  0  0
 13 44  1  0  0  0  0
 21 45  1  0  0  0  0
 21 46  1  0  0  0  0
 21 47  1  0  0  0  0
 22 48  1  0  0  0  0
 22 49  1  0  0  0  0
 23 50  1  0  0  0  0
 23 51  1  0  0  0  0
 24 52  1  0  0  0  0
 28 53  1  0  0  0  0
 29 54  1  0  0  0  0
M  END
> <clash_score>
1.2657981469860844

> <docking_score>
-7.891426086425781

> <overlap_score>
0.9580297470092773

$$$$
BENZO_173_1
  -OEChem-08222022173D

 54 57  0     1  0  0  0  0  0999 V2000
   14.1327    1.9902   23.4130 C   0  0  0  0  0  0  0  0  0  0  0  0
   13.5893    1.1922   24.4197 C   0  0  0  0  0  0  0  0  0  0  0  0
   13.2990    2.5728   22.4585 C   0  0  0  0  0  0  0  0  0  0  0  0
    3.9160    2.0630   19.5520 C   0  0  0  0  0  0  0  0  0  0  0  0
    4.2750    1.7050   20.8490 C   0  0  0  0  0  0  0  0  0  0  0  0
   12.2122    0.9766   24.4719 C   0  0  0  0  0  0  0  0  0  0  0  0
   11.9219    2.3573   22.5106 C   0  0  0  0  0  0  0  0  0  0  0  0
    9.0720   -1.1280   24.8640 C   0  0  0  0  0  0  0  0  0  0  0  0
    9.7200   -2.2600   22.8630 C   0  0  0  0  0  0  0  0  0  0  0  0
    4.6890    1.6810   18.4640 C   0  0  0  0  0  0  0  0  0  0  0  0
    5.4210    0.9600   21.0930 C   0  0  0  0  0  0  0  0  0  0  0  0
    8.9960   -2.3380   25.5320 C   0  0  0  0  0  0  0  0  0  0  0  0
    9.6730   -3.4710   23.5300 C   0  0  0  0  0  0  0  0  0  0  0  0
   11.3785    1.5592   23.5173 C   0  0  0  0  0  0  0  0  0  0  0  0
    9.3350   -1.0880   23.5010 C   0  0  0  0  0  0  0  0  0  0  0  0
    5.8300    0.9190   18.6970 C   0  0  0  0  0  0  0  0  0  0  0  0
    6.1790    0.5730   19.9990 C   0  0  0  0  0  0  0  0  0  0  0  0
    9.3070   -3.5340   24.8780 C   0  0  0  0  0  0  0  0  0  0  0  0
    8.4227   -5.1089   26.6141 C   0  0  0  0  0  0  0  0  0  0  0  0
    9.0420    0.3700   21.5280 C   0  0  0  0  0  0  0  0  0  0  0  0
    8.4173   -7.5520   25.9532 C   0  0  0  0  0  0  0  0  0  0  0  0
    9.8870    1.3260   23.5730 C   0  0  0  0  0  0  0  0  0  0  0  0
    8.6900   -6.5411   27.0525 C   0  0  0  0  0  0  0  0  0  0  0  0
    9.4560    0.1560   22.8130 C   0  0  1  0  0  0  0  0  0  0  0  0
    6.7580    0.3810   17.8350 N   0  0  0  0  0  0  0  0  0  0  0  0
    7.6390   -0.2680   18.5410 N   0  0  0  0  0  0  0  0  0  0  0  0
    7.3170   -0.1610   19.8550 N   0  0  0  0  0  0  0  0  0  0  0  0
    9.2546   -4.7423   25.5437 N   0  0  0  0  0  0  0  0  0  0  0  0
    8.1890   -0.7180   20.8700 N   0  0  0  0  0  0  0  0  0  0  0  0
    7.5768   -4.4085   27.1603 O   0  0  0  0  0  0  0  0  0  0  0  0
    9.2690    1.4140   20.9380 O   0  0  0  0  0  0  0  0  0  0  0  0
   15.2049    2.1590   23.3734 H   0  0  0  0  0  0  0  0  0  0  0  0
   14.2383    0.7393   25.1637 H   0  0  0  0  0  0  0  0  0  0  0  0
   13.7216    3.1950   21.6752 H   0  0  0  0  0  0  0  0  0  0  0  0
    3.0136    2.6526   19.3908 H   0  0  0  0  0  0  0  0  0  0  0  0
    3.6480    2.0140   21.6821 H   0  0  0  0  0  0  0  0  0  0  0  0
   11.7977    0.3532   25.2597 H   0  0  0  0  0  0  0  0  0  0  0  0
   11.2800    2.8151   21.7626 H   0  0  0  0  0  0  0  0  0  0  0  0
    8.9202   -0.1986   25.4206 H   0  0  0  0  0  0  0  0  0  0  0  0
   10.0631   -2.2319   21.8252 H   0  0  0  0  0  0  0  0  0  0  0  0
    4.4042    1.9741   17.4524 H   0  0  0  0  0  0  0  0  0  0  0  0
    5.7089    0.6919   22.1150 H   0  0  0  0  0  0  0  0  0  0  0  0
    8.6898   -2.3534   26.5810 H   0  0  0  0  0  0  0  0  0  0  0  0
    9.9254   -4.3899   22.9914 H   0  0  0  0  0  0  0  0  0  0  0  0
    7.3765   -7.4970   25.6177 H   0  0  0  0  0  0  0  0  0  0  0  0
    8.6071   -8.5677   26.3139 H   0  0  0  0  0  0  0  0  0  0  0  0
    9.0598   -7.3717   25.0851 H   0  0  0  0  0  0  0  0  0  0  0  0
    9.6026    1.2057   24.6276 H   0  0  0  0  0  0  0  0  0  0  0  0
    9.3596    2.2290   23.2378 H   0  0  0  0  0  0  0  0  0  0  0  0
    9.7367   -6.6182   27.3685 H   0  0  0  0  0  0  0  0  0  0  0  0
    8.0565   -6.7633   27.9189 H   0  0  0  0  0  0  0  0  0  0  0  0
    8.0683    0.4897   23.2524 H   0  0  0  0  0  0  0  0  0  0  0  0
    9.9034   -5.4689   25.2194 H   0  0  0  0  0  0  0  0  0  0  0  0
    8.2712   -1.5583   21.1209 H   0  0  0  0  0  0  0  0  0  0  0  0
  1  2  1  0  0  0  0
  1  3  2  0  0  0  0
  2  6  2  0  0  0  0
  3  7  1  0  0  0  0
  4  5  1  0  0  0  0
  4 10  2  0  0  0  0
  5 11  2  0  0  0  0
  6 14  1  0  0  0  0
  7 14  2  0  0  0  0
  8 12  2  0  0  0  0
  8 15  1  0  0  0  0
  9 13  1  0  0  0  0
  9 15  2  0  0  0  0
 10 16  1  0  0  0  0
 11 17  1  0  0  0  0
 12 18  1  0  0  0  0
 13 18  2  0  0  0  0
 14 22  1  0  0  0  0
 15 24  1  0  0  0  0
 16 17  2  0  0  0  0
 16 25  1  0  0  0  0
 17 27  1  0  0  0  0
 18 28  1  0  0  0  0
 19 23  1  0  0  0  0
 19 28  1  0  0  0  0
 19 30  2  0  0  0  0
 20 24  1  0  0  0  0
 20 29  1  0  0  0  0
 20 31  2  0  0  0  0
 21 23  1  0  0  0  0
 22 24  1  1  0  0  0
 25 26  2  0  0  0  0
 26 27  1  0  0  0  0
 27 29  1  0  0  0  0
  1 32  1  0  0  0  0
  2 33  1  0  0  0  0
  3 34  1  0  0  0  0
  4 35  1  0  0  0  0
  5 36  1  0  0  0  0
  6 37  1  0  0  0  0
  7 38  1  0  0  0  0
  8 39  1  0  0  0  0
  9 40  1  0  0  0  0
 10 41  1  0  0  0  0
 11 42  1  0  0  0  0
 12 43  1  0  0  0  0
 13 44  1  0  0  0  0
 21 45  1  0  0  0  0
 21 46  1  0  0  0  0
 21 47  1  0  0  0  0
 22 48  1  0  0  0  0
 22 49  1  0  0  0  0
 23 50  1  0  0  0  0
 23 51  1  0  0  0  0
 24 52  1  0  0  0  0
 28 53  1  0  0  0  0
 29 54  1  0  0  0  0
M  END
> <clash_score>
0.6426265378714453

> <docking_score>
-7.996771812438965

> <overlap_score>
0.9950611591339111

$$$$
BENZO_172_1
  -OEChem-08222022173D

 51 54  0     1  0  0  0  0  0999 V2000
    3.9160    2.0630   19.5520 C   0  0  0  0  0  0  0  0  0  0  0  0
    4.2750    1.7050   20.8490 C   0  0  0  0  0  0  0  0  0  0  0  0
    9.0720   -1.1280   24.8640 C   0  0  0  0  0  0  0  0  0  0  0  0
    9.7200   -2.2600   22.8630 C   0  0  0  0  0  0  0  0  0  0  0  0
    4.6890    1.6810   18.4640 C   0  0  0  0  0  0  0  0  0  0  0  0
    5.4210    0.9600   21.0930 C   0  0  0  0  0  0  0  0  0  0  0  0
    8.9960   -2.3380   25.5320 C   0  0  0  0  0  0  0  0  0  0  0  0
    9.6730   -3.4710   23.5300 C   0  0  0  0  0  0  0  0  0  0  0  0
   12.3421    0.5158   23.4032 C   0  0  0  0  0  0  0  0  0  0  0  0
   13.6305    1.0023   23.3744 C   0  0  0  0  0  0  0  0  0  0  0  0
   11.9672    2.8035   23.5716 C   0  0  0  0  0  0  0  0  0  0  0  0
    9.3350   -1.0880   23.5010 C   0  0  0  0  0  0  0  0  0  0  0  0
   11.3785    1.5592   23.5173 C   0  0  0  0  0  0  0  0  0  0  0  0
    5.8300    0.9190   18.6970 C   0  0  0  0  0  0  0  0  0  0  0  0
    6.1790    0.5730   19.9990 C   0  0  0  0  0  0  0  0  0  0  0  0
    9.3070   -3.5340   24.8780 C   0  0  0  0  0  0  0  0  0  0  0  0
    8.4227   -5.1089   26.6141 C   0  0  0  0  0  0  0  0  0  0  0  0
    9.0420    0.3700   21.5280 C   0  0  0  0  0  0  0  0  0  0  0  0
    8.4173   -7.5520   25.9532 C   0  0  0  0  0  0  0  0  0  0  0  0
    9.8870    1.3260   23.5730 C   0  0  0  0  0  0  0  0  0  0  0  0
    8.6900   -6.5411   27.0525 C   0  0  0  0  0  0  0  0  0  0  0  0
    9.4560    0.1560   22.8130 C   0  0  1  0  0  0  0  0  0  0  0  0
    6.7580    0.3810   17.8350 N   0  0  0  0  0  0  0  0  0  0  0  0
    7.6390   -0.2680   18.5410 N   0  0  0  0  0  0  0  0  0  0  0  0
    7.3170   -0.1610   19.8550 N   0  0  0  0  0  0  0  0  0  0  0  0
    9.2546   -4.7423   25.5437 N   0  0  0  0  0  0  0  0  0  0  0  0
    8.1890   -0.7180   20.8700 N   0  0  0  0  0  0  0  0  0  0  0  0
    7.5768   -4.4085   27.1603 O   0  0  0  0  0  0  0  0  0  0  0  0
    9.2690    1.4140   20.9380 O   0  0  0  0  0  0  0  0  0  0  0  0
   13.6749    2.7106   23.4848 S   0  0  0  0  0  0  0  0  0  0  0  0
    3.0136    2.6526   19.3908 H   0  0  0  0  0  0  0  0  0  0  0  0
    3.6480    2.0140   21.6821 H   0  0  0  0  0  0  0  0  0  0  0  0
    8.9202   -0.1986   25.4206 H   0  0  0  0  0  0  0  0  0  0  0  0
   10.0631   -2.2319   21.8252 H   0  0  0  0  0  0  0  0  0  0  0  0
    4.4042    1.9741   17.4524 H   0  0  0  0  0  0  0  0  0  0  0  0
    5.7089    0.6919   22.1150 H   0  0  0  0  0  0  0  0  0  0  0  0
    8.6898   -2.3534   26.5810 H   0  0  0  0  0  0  0  0  0  0  0  0
    9.9254   -4.3899   22.9914 H   0  0  0  0  0  0  0  0  0  0  0  0
   12.1065   -0.5394   23.3454 H   0  0  0  0  0  0  0  0  0  0  0  0
   14.5479    0.4364   23.2946 H   0  0  0  0  0  0  0  0  0  0  0  0
   11.4802    3.7648   23.6592 H   0  0  0  0  0  0  0  0  0  0  0  0
    7.3765   -7.4970   25.6177 H   0  0  0  0  0  0  0  0  0  0  0  0
    8.6071   -8.5677   26.3139 H   0  0  0  0  0  0  0  0  0  0  0  0
    9.0598   -7.3717   25.0851 H   0  0  0  0  0  0  0  0  0  0  0  0
    9.6026    1.2057   24.6276 H   0  0  0  0  0  0  0  0  0  0  0  0
    9.3596    2.2290   23.2378 H   0  0  0  0  0  0  0  0  0  0  0  0
    9.7367   -6.6182   27.3685 H   0  0  0  0  0  0  0  0  0  0  0  0
    8.0565   -6.7633   27.9189 H   0  0  0  0  0  0  0  0  0  0  0  0
    8.0683    0.4897   23.2524 H   0  0  0  0  0  0  0  0  0  0  0  0
    9.9034   -5.4689   25.2194 H   0  0  0  0  0  0  0  0  0  0  0  0
    8.2712   -1.5583   21.1209 H   0  0  0  0  0  0  0  0  0  0  0  0
  1  2  1  0  0  0  0
  1  5  2  0  0  0  0
  2  6  2  0  0  0  0
  3  7  2  0  0  0  0
  3 12  1  0  0  0  0
  4  8  1  0  0  0  0
  4 12  2  0  0  0  0
  5 14  1  0  0  0  0
  6 15  1  0  0  0  0
  7 16  1  0  0  0  0
  8 16  2  0  0  0  0
  9 10  2  0  0  0  0
  9 13  1  0  0  0  0
 10 30  1  0  0  0  0
 11 13  2  0  0  0  0
 11 30  1  0  0  0  0
 12 22  1  0  0  0  0
 13 20  1  0  0  0  0
 14 15  2  0  0  0  0
 14 23  1  0  0  0  0
 15 25  1  0  0  0  0
 16 26  1  0  0  0  0
 17 21  1  0  0  0  0
 17 26  1  0  0  0  0
 17 28  2  0  0  0  0
 18 22  1  0  0  0  0
 18 27  1  0  0  0  0
 18 29  2  0  0  0  0
 19 21  1  0  0  0  0
 20 22  1  1  0  0  0
 23 24  2  0  0  0  0
 24 25  1  0  0  0  0
 25 27  1  0  0  0  0
  1 31  1  0  0  0  0
  2 32  1  0  0  0  0
  3 33  1  0  0  0  0
  4 34  1  0  0  0  0
  5 35  1  0  0  0  0
  6 36  1  0  0  0  0
  7 37  1  0  0  0  0
  8 38  1  0  0  0  0
  9 39  1  0  0  0  0
 10 40  1  0  0  0  0
 11 41  1  0  0  0  0
 19 42  1  0  0  0  0
 19 43  1  0  0  0  0
 19 44  1  0  0  0  0
 20 45  1  0  0  0  0
 20 46  1  0  0  0  0
 21 47  1  0  0  0  0
 21 48  1  0  0  0  0
 22 49  1  0  0  0  0
 26 50  1  0  0  0  0
 27 51  1  0  0  0  0
M  END
> <clash_score>
0.6426265378714453

> <docking_score>
-8.32593059539795

> <overlap_score>
0.9857840538024902

$$$$
BENZO_172_2
  -OEChem-08222022173D

 51 54  0     1  0  0  0  0  0999 V2000
    3.9160    2.0630   19.5520 C   0  0  0  0  0  0  0  0  0  0  0  0
    4.2750    1.7050   20.8490 C   0  0  0  0  0  0  0  0  0  0  0  0
    9.0720   -1.1280   24.8640 C   0  0  0  0  0  0  0  0  0  0  0  0
    9.7200   -2.2600   22.8630 C   0  0  0  0  0  0  0  0  0  0  0  0
    4.6890    1.6810   18.4640 C   0  0  0  0  0  0  0  0  0  0  0  0
    5.4210    0.9600   21.0930 C   0  0  0  0  0  0  0  0  0  0  0  0
    8.9960   -2.3380   25.5320 C   0  0  0  0  0  0  0  0  0  0  0  0
    9.6730   -3.4710   23.5300 C   0  0  0  0  0  0  0  0  0  0  0  0
   12.4120    0.7557   23.6805 C   0  0  0  0  0  0  0  0  0  0  0  0
   13.4422    0.6233   24.5853 C   0  0  0  0  0  0  0  0  0  0  0  0
   11.3266    1.2397   25.6779 C   0  0  0  0  0  0  0  0  0  0  0  0
    9.3350   -1.0880   23.5010 C   0  0  0  0  0  0  0  0  0  0  0  0
   11.1864    1.1129   24.3133 C   0  0  0  0  0  0  0  0  0  0  0  0
    5.8300    0.9190   18.6970 C   0  0  0  0  0  0  0  0  0  0  0  0
    6.1790    0.5730   19.9990 C   0  0  0  0  0  0  0  0  0  0  0  0
    9.3070   -3.5340   24.8780 C   0  0  0  0  0  0  0  0  0  0  0  0
    8.4227   -5.1089   26.6141 C   0  0  0  0  0  0  0  0  0  0  0  0
    9.0420    0.3700   21.5280 C   0  0  0  0  0  0  0  0  0  0  0  0
    8.4173   -7.5520   25.9532 C   0  0  0  0  0  0  0  0  0  0  0  0
    9.8870    1.3260   23.5730 C   0  0  0  0  0  0  0  0  0  0  0  0
    8.6900   -6.5411   27.0525 C   0  0  0  0  0  0  0  0  0  0  0  0
    9.4560    0.1560   22.8130 C   0  0  2  0  0  0  0  0  0  0  0  0
    6.7580    0.3810   17.8350 N   0  0  0  0  0  0  0  0  0  0  0  0
    7.6390   -0.2680   18.5410 N   0  0  0  0  0  0  0  0  0  0  0  0
    7.3170   -0.1610   19.8550 N   0  0  0  0  0  0  0  0  0  0  0  0
    9.2546   -4.7423   25.5437 N   0  0  0  0  0  0  0  0  0  0  0  0
    8.1890   -0.7180   20.8700 N   0  0  0  0  0  0  0  0  0  0  0  0
    7.5768   -4.4085   27.1603 O   0  0  0  0  0  0  0  0  0  0  0  0
    9.2690    1.4140   20.9380 O   0  0  0  0  0  0  0  0  0  0  0  0
   12.9305    0.9290   26.1907 S   0  0  0  0  0  0  0  0  0  0  0  0
    3.0136    2.6526   19.3908 H   0  0  0  0  0  0  0  0  0  0  0  0
    3.6480    2.0140   21.6821 H   0  0  0  0  0  0  0  0  0  0  0  0
    8.9202   -0.1986   25.4206 H   0  0  0  0  0  0  0  0  0  0  0  0
   10.0631   -2.2319   21.8252 H   0  0  0  0  0  0  0  0  0  0  0  0
    4.4042    1.9741   17.4524 H   0  0  0  0  0  0  0  0  0  0  0  0
    5.7089    0.6919   22.1150 H   0  0  0  0  0  0  0  0  0  0  0  0
    8.6898   -2.3534   26.5810 H   0  0  0  0  0  0  0  0  0  0  0  0
    9.9254   -4.3899   22.9914 H   0  0  0  0  0  0  0  0  0  0  0  0
   12.5361    0.6022   22.6159 H   0  0  0  0  0  0  0  0  0  0  0  0
   14.4706    0.3610   24.3807 H   0  0  0  0  0  0  0  0  0  0  0  0
   10.5663    1.4985   26.4019 H   0  0  0  0  0  0  0  0  0  0  0  0
    7.3765   -7.4970   25.6177 H   0  0  0  0  0  0  0  0  0  0  0  0
    8.6071   -8.5677   26.3139 H   0  0  0  0  0  0  0  0  0  0  0  0
    9.0598   -7.3717   25.0851 H   0  0  0  0  0  0  0  0  0  0  0  0
    9.1168    1.5904   24.3109 H   0  0  0  0  0  0  0  0  0  0  0  0
    9.9726    2.2073   22.9235 H   0  0  0  0  0  0  0  0  0  0  0  0
    9.7367   -6.6182   27.3685 H   0  0  0  0  0  0  0  0  0  0  0  0
    8.0565   -6.7633   27.9189 H   0  0  0  0  0  0  0  0  0  0  0  0
   10.7792   -0.1072   22.4110 H   0  0  0  0  0  0  0  0  0  0  0  0
    9.9034   -5.4689   25.2194 H   0  0  0  0  0  0  0  0  0  0  0  0
    8.2712   -1.5583   21.1209 H   0  0  0  0  0  0  0  0  0  0  0  0
  1  2  1  0  0  0  0
  1  5  2  0  0  0  0
  2  6  2  0  0  0  0
  3  7  2  0  0  0  0
  3 12  1  0  0  0  0
  4  8  1  0  0  0  0
  4 12  2  0  0  0  0
  5 14  1  0  0  0  0
  6 15  1  0  0  0  0
  7 16  1  0  0  0  0
  8 16  2  0  0  0  0
  9 10  2  0  0  0  0
  9 13  1  0  0  0  0
 10 30  1  0  0  0  0
 11 13  2  0  0  0  0
 11 30  1  0  0  0  0
 12 22  1  0  0  0  0
 13 20  1  0  0  0  0
 14 15  2  0  0  0  0
 14 23  1  0  0  0  0
 15 25  1  0  0  0  0
 16 26  1  0  0  0  0
 17 21  1  0  0  0  0
 17 26  1  0  0  0  0
 17 28  2  0  0  0  0
 18 22  1  0  0  0  0
 18 27  1  0  0  0  0
 18 29  2  0  0  0  0
 19 21  1  0  0  0  0
 20 22  1  6  0  0  0
 23 24  2  0  0  0  0
 24 25  1  0  0  0  0
 25 27  1  0  0  0  0
  1 31  1  0  0  0  0
  2 32  1  0  0  0  0
  3 33  1  0  0  0  0
  4 34  1  0  0  0  0
  5 35  1  0  0  0  0
  6 36  1  0  0  0  0
  7 37  1  0  0  0  0
  8 38  1  0  0  0  0
  9 39  1  0  0  0  0
 10 40  1  0  0  0  0
 11 41  1  0  0  0  0
 19 42  1  0  0  0  0
 19 43  1  0  0  0  0
 19 44  1  0  0  0  0
 20 45  1  0  0  0  0
 20 46  1  0  0  0  0
 21 47  1  0  0  0  0
 21 48  1  0  0  0  0
 22 49  1  0  0  0  0
 26 50  1  0  0  0  0
 27 51  1  0  0  0  0
M  END
> <clash_score>
1.2682463086501659

> <docking_score>
-6.4195966720581055

> <overlap_score>
0.9125455617904663

$$$$
BENZO_174_2
  -OEChem-08222022173D

 54 57  0     1  0  0  0  0  0999 V2000
    3.9160    2.0630   19.5520 C   0  0  0  0  0  0  0  0  0  0  0  0
    4.2750    1.7050   20.8490 C   0  0  0  0  0  0  0  0  0  0  0  0
   13.2836    2.5921   22.4338 C   0  0  0  0  0  0  0  0  0  0  0  0
   12.2999    1.8455   23.0821 C   0  0  0  0  0  0  0  0  0  0  0  0
    9.0720   -1.1280   24.8640 C   0  0  0  0  0  0  0  0  0  0  0  0
    9.7200   -2.2600   22.8630 C   0  0  0  0  0  0  0  0  0  0  0  0
    4.6890    1.6810   18.4640 C   0  0  0  0  0  0  0  0  0  0  0  0
    5.4210    0.9600   21.0930 C   0  0  0  0  0  0  0  0  0  0  0  0
    8.9960   -2.3380   25.5320 C   0  0  0  0  0  0  0  0  0  0  0  0
    9.6730   -3.4710   23.5300 C   0  0  0  0  0  0  0  0  0  0  0  0
   12.9195    3.6292   21.5749 C   0  0  0  0  0  0  0  0  0  0  0  0
   10.5877    3.1728   22.0126 C   0  0  0  0  0  0  0  0  0  0  0  0
    9.3350   -1.0880   23.5010 C   0  0  0  0  0  0  0  0  0  0  0  0
   10.9519    2.1358   22.8715 C   0  0  0  0  0  0  0  0  0  0  0  0
    5.8300    0.9190   18.6970 C   0  0  0  0  0  0  0  0  0  0  0  0
    6.1790    0.5730   19.9990 C   0  0  0  0  0  0  0  0  0  0  0  0
    9.3070   -3.5340   24.8780 C   0  0  0  0  0  0  0  0  0  0  0  0
   11.5715    3.9195   21.3643 C   0  0  0  0  0  0  0  0  0  0  0  0
    8.9098   -4.9814   26.8838 C   0  0  0  0  0  0  0  0  0  0  0  0
    9.0420    0.3700   21.5280 C   0  0  0  0  0  0  0  0  0  0  0  0
   10.3590   -6.8979   27.6793 C   0  0  0  0  0  0  0  0  0  0  0  0
    9.8870    1.3260   23.5730 C   0  0  0  0  0  0  0  0  0  0  0  0
    8.9804   -6.4651   27.2134 C   0  0  0  0  0  0  0  0  0  0  0  0
    9.4560    0.1560   22.8130 C   0  0  2  0  0  0  0  0  0  0  0  0
    6.7580    0.3810   17.8350 N   0  0  0  0  0  0  0  0  0  0  0  0
    7.6390   -0.2680   18.5410 N   0  0  0  0  0  0  0  0  0  0  0  0
    7.3170   -0.1610   19.8550 N   0  0  0  0  0  0  0  0  0  0  0  0
    9.2546   -4.7423   25.5437 N   0  0  0  0  0  0  0  0  0  0  0  0
    8.1890   -0.7180   20.8700 N   0  0  0  0  0  0  0  0  0  0  0  0
    8.5868   -4.1440   27.7198 O   0  0  0  0  0  0  0  0  0  0  0  0
    9.2690    1.4140   20.9380 O   0  0  0  0  0  0  0  0  0  0  0  0
   11.1228    5.1983   20.3036 Cl  0  0  0  0  0  0  0  0  0  0  0  0
    3.0136    2.6526   19.3908 H   0  0  0  0  0  0  0  0  0  0  0  0
    3.6480    2.0140   21.6821 H   0  0  0  0  0  0  0  0  0  0  0  0
   14.3332    2.3656   22.5979 H   0  0  0  0  0  0  0  0  0  0  0  0
   12.5928    1.0392   23.7495 H   0  0  0  0  0  0  0  0  0  0  0  0
    8.9202   -0.1986   25.4206 H   0  0  0  0  0  0  0  0  0  0  0  0
   10.0631   -2.2319   21.8252 H   0  0  0  0  0  0  0  0  0  0  0  0
    4.4042    1.9741   17.4524 H   0  0  0  0  0  0  0  0  0  0  0  0
    5.7089    0.6919   22.1150 H   0  0  0  0  0  0  0  0  0  0  0  0
    8.6898   -2.3534   26.5810 H   0  0  0  0  0  0  0  0  0  0  0  0
    9.9254   -4.3899   22.9914 H   0  0  0  0  0  0  0  0  0  0  0  0
   13.6970    4.2025   21.0761 H   0  0  0  0  0  0  0  0  0  0  0  0
    9.5353    3.3956   21.8521 H   0  0  0  0  0  0  0  0  0  0  0  0
   11.1151   -6.6920   26.9145 H   0  0  0  0  0  0  0  0  0  0  0  0
   10.3701   -7.9715   27.8908 H   0  0  0  0  0  0  0  0  0  0  0  0
   10.6506   -6.3665   28.5912 H   0  0  0  0  0  0  0  0  0  0  0  0
   10.2899    1.0067   24.5442 H   0  0  0  0  0  0  0  0  0  0  0  0
    9.0336    1.9722   23.8180 H   0  0  0  0  0  0  0  0  0  0  0  0
    8.2451   -6.6824   27.9967 H   0  0  0  0  0  0  0  0  0  0  0  0
    8.7016   -7.0335   26.3187 H   0  0  0  0  0  0  0  0  0  0  0  0
   10.7792   -0.1072   22.4110 H   0  0  0  0  0  0  0  0  0  0  0  0
    9.4970   -5.5752   24.9945 H   0  0  0  0  0  0  0  0  0  0  0  0
    8.2712   -1.5583   21.1209 H   0  0  0  0  0  0  0  0  0  0  0  0
  1  2  1  0  0  0  0
  1  7  2  0  0  0  0
  2  8  2  0  0  0  0
  3  4  2  0  0  0  0
  3 11  1  0  0  0  0
  4 14  1  0  0  0  0
  5  9  2  0  0  0  0
  5 13  1  0  0  0  0
  6 10  1  0  0  0  0
  6 13  2  0  0  0  0
  7 15  1  0  0  0  0
  8 16  1  0  0  0  0
  9 17  1  0  0  0  0
 10 17  2  0  0  0  0
 11 18  2  0  0  0  0
 12 14  2  0  0  0  0
 12 18  1  0  0  0  0
 13 24  1  0  0  0  0
 14 22  1  0  0  0  0
 15 16  2  0  0  0  0
 15 25  1  0  0  0  0
 16 27  1  0  0  0  0
 17 28  1  0  0  0  0
 18 32  1  0  0  0  0
 19 23  1  0  0  0  0
 19 28  1  0  0  0  0
 19 30  2  0  0  0  0
 20 24  1  0  0  0  0
 20 29  1  0  0  0  0
 20 31  2  0  0  0  0
 21 23  1  0  0  0  0
 22 24  1  6  0  0  0
 25 26  2  0  0  0  0
 26 27  1  0  0  0  0
 27 29  1  0  0  0  0
  1 33  1  0  0  0  0
  2 34  1  0  0  0  0
  3 35  1  0  0  0  0
  4 36  1  0  0  0  0
  5 37  1  0  0  0  0
  6 38  1  0  0  0  0
  7 39  1  0  0  0  0
  8 40  1  0  0  0  0
  9 41  1  0  0  0  0
 10 42  1  0  0  0  0
 11 43  1  0  0  0  0
 12 44  1  0  0  0  0
 21 45  1  0  0  0  0
 21 46  1  0  0  0  0
 21 47  1  0  0  0  0
 22 48  1  0  0  0  0
 22 49  1  0  0  0  0
 23 50  1  0  0  0  0
 23 51  1  0  0  0  0
 24 52  1  0  0  0  0
 28 53  1  0  0  0  0
 29 54  1  0  0  0  0
M  END
> <clash_score>
3.7861167795510524

> <docking_score>
-6.297414779663086

> <overlap_score>
0.9504812359809875

$$$$
BENZO_174_1
  -OEChem-08222022173D

 54 57  0     1  0  0  0  0  0999 V2000
    3.9160    2.0630   19.5520 C   0  0  0  0  0  0  0  0  0  0  0  0
    4.2750    1.7050   20.8490 C   0  0  0  0  0  0  0  0  0  0  0  0
   13.6250    0.6929   23.3186 C   0  0  0  0  0  0  0  0  0  0  0  0
   12.2478    0.4782   23.3713 C   0  0  0  0  0  0  0  0  0  0  0  0
    9.0720   -1.1280   24.8640 C   0  0  0  0  0  0  0  0  0  0  0  0
    9.7200   -2.2600   22.8630 C   0  0  0  0  0  0  0  0  0  0  0  0
    4.6890    1.6810   18.4640 C   0  0  0  0  0  0  0  0  0  0  0  0
    5.4210    0.9600   21.0930 C   0  0  0  0  0  0  0  0  0  0  0  0
    8.9960   -2.3380   25.5320 C   0  0  0  0  0  0  0  0  0  0  0  0
    9.6730   -3.4710   23.5300 C   0  0  0  0  0  0  0  0  0  0  0  0
   14.1329    1.9886   23.4121 C   0  0  0  0  0  0  0  0  0  0  0  0
   11.8864    2.8550   23.6107 C   0  0  0  0  0  0  0  0  0  0  0  0
    9.3350   -1.0880   23.5010 C   0  0  0  0  0  0  0  0  0  0  0  0
   11.3785    1.5592   23.5173 C   0  0  0  0  0  0  0  0  0  0  0  0
    5.8300    0.9190   18.6970 C   0  0  0  0  0  0  0  0  0  0  0  0
    6.1790    0.5730   19.9990 C   0  0  0  0  0  0  0  0  0  0  0  0
    9.3070   -3.5340   24.8780 C   0  0  0  0  0  0  0  0  0  0  0  0
   13.2636    3.0696   23.5581 C   0  0  0  0  0  0  0  0  0  0  0  0
    8.4227   -5.1089   26.6141 C   0  0  0  0  0  0  0  0  0  0  0  0
    9.0420    0.3700   21.5280 C   0  0  0  0  0  0  0  0  0  0  0  0
    8.4173   -7.5520   25.9532 C   0  0  0  0  0  0  0  0  0  0  0  0
    9.8870    1.3260   23.5730 C   0  0  0  0  0  0  0  0  0  0  0  0
    8.6900   -6.5411   27.0525 C   0  0  0  0  0  0  0  0  0  0  0  0
    9.4560    0.1560   22.8130 C   0  0  1  0  0  0  0  0  0  0  0  0
    6.7580    0.3810   17.8350 N   0  0  0  0  0  0  0  0  0  0  0  0
    7.6390   -0.2680   18.5410 N   0  0  0  0  0  0  0  0  0  0  0  0
    7.3170   -0.1610   19.8550 N   0  0  0  0  0  0  0  0  0  0  0  0
    9.2546   -4.7423   25.5437 N   0  0  0  0  0  0  0  0  0  0  0  0
    8.1890   -0.7180   20.8700 N   0  0  0  0  0  0  0  0  0  0  0  0
    7.5768   -4.4085   27.1603 O   0  0  0  0  0  0  0  0  0  0  0  0
    9.2690    1.4140   20.9380 O   0  0  0  0  0  0  0  0  0  0  0  0
   13.8909    4.6682   23.6722 Cl  0  0  0  0  0  0  0  0  0  0  0  0
    3.0136    2.6526   19.3908 H   0  0  0  0  0  0  0  0  0  0  0  0
    3.6480    2.0140   21.6821 H   0  0  0  0  0  0  0  0  0  0  0  0
   14.3015   -0.1492   23.2047 H   0  0  0  0  0  0  0  0  0  0  0  0
   11.8608   -0.5348   23.2975 H   0  0  0  0  0  0  0  0  0  0  0  0
    8.9202   -0.1986   25.4206 H   0  0  0  0  0  0  0  0  0  0  0  0
   10.0631   -2.2319   21.8252 H   0  0  0  0  0  0  0  0  0  0  0  0
    4.4042    1.9741   17.4524 H   0  0  0  0  0  0  0  0  0  0  0  0
    5.7089    0.6919   22.1150 H   0  0  0  0  0  0  0  0  0  0  0  0
    8.6898   -2.3534   26.5810 H   0  0  0  0  0  0  0  0  0  0  0  0
    9.9254   -4.3899   22.9914 H   0  0  0  0  0  0  0  0  0  0  0  0
   15.2086    2.1410   23.3692 H   0  0  0  0  0  0  0  0  0  0  0  0
   11.2045    3.6944   23.7250 H   0  0  0  0  0  0  0  0  0  0  0  0
    7.3765   -7.4970   25.6177 H   0  0  0  0  0  0  0  0  0  0  0  0
    8.6071   -8.5677   26.3139 H   0  0  0  0  0  0  0  0  0  0  0  0
    9.0598   -7.3717   25.0851 H   0  0  0  0  0  0  0  0  0  0  0  0
    9.6026    1.2057   24.6276 H   0  0  0  0  0  0  0  0  0  0  0  0
    9.3596    2.2290   23.2378 H   0  0  0  0  0  0  0  0  0  0  0  0
    9.7367   -6.6182   27.3685 H   0  0  0  0  0  0  0  0  0  0  0  0
    8.0565   -6.7633   27.9189 H   0  0  0  0  0  0  0  0  0  0  0  0
    8.0683    0.4897   23.2524 H   0  0  0  0  0  0  0  0  0  0  0  0
    9.9034   -5.4689   25.2194 H   0  0  0  0  0  0  0  0  0  0  0  0
    8.2712   -1.5583   21.1209 H   0  0  0  0  0  0  0  0  0  0  0  0
  1  2  1  0  0  0  0
  1  7  2  0  0  0  0
  2  8  2  0  0  0  0
  3  4  2  0  0  0  0
  3 11  1  0  0  0  0
  4 14  1  0  0  0  0
  5  9  2  0  0  0  0
  5 13  1  0  0  0  0
  6 10  1  0  0  0  0
  6 13  2  0  0  0  0
  7 15  1  0  0  0  0
  8 16  1  0  0  0  0
  9 17  1  0  0  0  0
 10 17  2  0  0  0  0
 11 18  2  0  0  0  0
 12 14  2  0  0  0  0
 12 18  1  0  0  0  0
 13 24  1  0  0  0  0
 14 22  1  0  0  0  0
 15 16  2  0  0  0  0
 15 25  1  0  0  0  0
 16 27  1  0  0  0  0
 17 28  1  0  0  0  0
 18 32  1  0  0  0  0
 19 23  1  0  0  0  0
 19 28  1  0  0  0  0
 19 30  2  0  0  0  0
 20 24  1  0  0  0  0
 20 29  1  0  0  0  0
 20 31  2  0  0  0  0
 21 23  1  0  0  0  0
 22 24  1  1  0  0  0
 25 26  2  0  0  0  0
 26 27  1  0  0  0  0
 27 29  1  0  0  0  0
  1 33  1  0  0  0  0
  2 34  1  0  0  0  0
  3 35  1  0  0  0  0
  4 36  1  0  0  0  0
  5 37  1  0  0  0  0
  6 38  1  0  0  0  0
  7 39  1  0  0  0  0
  8 40  1  0  0  0  0
  9 41  1  0  0  0  0
 10 42  1  0  0  0  0
 11 43  1  0  0  0  0
 12 44  1  0  0  0  0
 21 45  1  0  0  0  0
 21 46  1  0  0  0  0
 21 47  1  0  0  0  0
 22 48  1  0  0  0  0
 22 49  1  0  0  0  0
 23 50  1  0  0  0  0
 23 51  1  0  0  0  0
 24 52  1  0  0  0  0
 28 53  1  0  0  0  0
 29 54  1  0  0  0  0
M  END
> <clash_score>
0.6426265378714453

> <docking_score>
-7.520271301269531

> <overlap_score>
1.0033291578292847

$$$$
BENZO_175_2
  -OEChem-08222022173D

 54 57  0     1  0  0  0  0  0999 V2000
    3.9160    2.0630   19.5520 C   0  0  0  0  0  0  0  0  0  0  0  0
    4.2750    1.7050   20.8490 C   0  0  0  0  0  0  0  0  0  0  0  0
    9.0720   -1.1280   24.8640 C   0  0  0  0  0  0  0  0  0  0  0  0
    9.7200   -2.2600   22.8630 C   0  0  0  0  0  0  0  0  0  0  0  0
    4.6890    1.6810   18.4640 C   0  0  0  0  0  0  0  0  0  0  0  0
    5.4210    0.9600   21.0930 C   0  0  0  0  0  0  0  0  0  0  0  0
    8.9960   -2.3380   25.5320 C   0  0  0  0  0  0  0  0  0  0  0  0
    9.6730   -3.4710   23.5300 C   0  0  0  0  0  0  0  0  0  0  0  0
   10.7727    3.2107   21.9803 C   0  0  0  0  0  0  0  0  0  0  0  0
   12.3145    1.9892   22.9630 C   0  0  0  0  0  0  0  0  0  0  0  0
    9.3350   -1.0880   23.5010 C   0  0  0  0  0  0  0  0  0  0  0  0
   10.9519    2.1358   22.8715 C   0  0  0  0  0  0  0  0  0  0  0  0
    5.8300    0.9190   18.6970 C   0  0  0  0  0  0  0  0  0  0  0  0
    6.1790    0.5730   19.9990 C   0  0  0  0  0  0  0  0  0  0  0  0
    9.3070   -3.5340   24.8780 C   0  0  0  0  0  0  0  0  0  0  0  0
    8.4227   -5.1089   26.6141 C   0  0  0  0  0  0  0  0  0  0  0  0
    9.0420    0.3700   21.5280 C   0  0  0  0  0  0  0  0  0  0  0  0
    8.4173   -7.5520   25.9532 C   0  0  0  0  0  0  0  0  0  0  0  0
   14.2518    3.1890   21.9210 C   0  0  0  0  0  0  0  0  0  0  0  0
    9.8870    1.3260   23.5730 C   0  0  0  0  0  0  0  0  0  0  0  0
    8.6900   -6.5411   27.0525 C   0  0  0  0  0  0  0  0  0  0  0  0
    9.4560    0.1560   22.8130 C   0  0  2  0  0  0  0  0  0  0  0  0
   11.9290    3.7116   21.5374 N   0  0  0  0  0  0  0  0  0  0  0  0
    6.7580    0.3810   17.8350 N   0  0  0  0  0  0  0  0  0  0  0  0
    7.6390   -0.2680   18.5410 N   0  0  0  0  0  0  0  0  0  0  0  0
   12.8478    2.9481   22.1529 N   0  0  0  0  0  0  0  0  0  0  0  0
    7.3170   -0.1610   19.8550 N   0  0  0  0  0  0  0  0  0  0  0  0
    9.2546   -4.7423   25.5437 N   0  0  0  0  0  0  0  0  0  0  0  0
    8.1890   -0.7180   20.8700 N   0  0  0  0  0  0  0  0  0  0  0  0
    7.5768   -4.4085   27.1603 O   0  0  0  0  0  0  0  0  0  0  0  0
    9.2690    1.4140   20.9380 O   0  0  0  0  0  0  0  0  0  0  0  0
    3.0136    2.6526   19.3908 H   0  0  0  0  0  0  0  0  0  0  0  0
    3.6480    2.0140   21.6821 H   0  0  0  0  0  0  0  0  0  0  0  0
    8.9202   -0.1986   25.4206 H   0  0  0  0  0  0  0  0  0  0  0  0
   10.0631   -2.2319   21.8252 H   0  0  0  0  0  0  0  0  0  0  0  0
    4.4042    1.9741   17.4524 H   0  0  0  0  0  0  0  0  0  0  0  0
    5.7089    0.6919   22.1150 H   0  0  0  0  0  0  0  0  0  0  0  0
    8.6898   -2.3534   26.5810 H   0  0  0  0  0  0  0  0  0  0  0  0
    9.9254   -4.3899   22.9914 H   0  0  0  0  0  0  0  0  0  0  0  0
    9.8488    3.6523   21.6343 H   0  0  0  0  0  0  0  0  0  0  0  0
   12.9346    1.3021   23.5227 H   0  0  0  0  0  0  0  0  0  0  0  0
    7.3765   -7.4970   25.6177 H   0  0  0  0  0  0  0  0  0  0  0  0
    8.6071   -8.5677   26.3139 H   0  0  0  0  0  0  0  0  0  0  0  0
    9.0598   -7.3717   25.0851 H   0  0  0  0  0  0  0  0  0  0  0  0
   14.5621    2.5802   21.0677 H   0  0  0  0  0  0  0  0  0  0  0  0
   14.4091    4.2506   21.7105 H   0  0  0  0  0  0  0  0  0  0  0  0
   14.8182    2.9134   22.8149 H   0  0  0  0  0  0  0  0  0  0  0  0
   10.2899    1.0067   24.5442 H   0  0  0  0  0  0  0  0  0  0  0  0
    9.0336    1.9722   23.8181 H   0  0  0  0  0  0  0  0  0  0  0  0
    9.7367   -6.6182   27.3685 H   0  0  0  0  0  0  0  0  0  0  0  0
    8.0565   -6.7633   27.9189 H   0  0  0  0  0  0  0  0  0  0  0  0
   10.7792   -0.1072   22.4110 H   0  0  0  0  0  0  0  0  0  0  0  0
    9.9034   -5.4689   25.2194 H   0  0  0  0  0  0  0  0  0  0  0  0
    8.2712   -1.5583   21.1209 H   0  0  0  0  0  0  0  0  0  0  0  0
  1  2  1  0  0  0  0
  1  5  2  0  0  0  0
  2  6  2  0  0  0  0
  3  7  2  0  0  0  0
  3 11  1  0  0  0  0
  4  8  1  0  0  0  0
  4 11  2  0  0  0  0
  5 13  1  0  0  0  0
  6 14  1  0  0  0  0
  7 15  1  0  0  0  0
  8 15  2  0  0  0  0
  9 12  1  0  0  0  0
  9 23  2  0  0  0  0
 10 12  2  0  0  0  0
 10 26  1  0  0  0  0
 11 22  1  0  0  0  0
 12 20  1  0  0  0  0
 13 14  2  0  0  0  0
 13 24  1  0  0  0  0
 14 27  1  0  0  0  0
 15 28  1  0  0  0  0
 16 21  1  0  0  0  0
 16 28  1  0  0  0  0
 16 30  2  0  0  0  0
 17 22  1  0  0  0  0
 17 29  1  0  0  0  0
 17 31  2  0  0  0  0
 18 21  1  0  0  0  0
 19 26  1  0  0  0  0
 20 22  1  6  0  0  0
 23 26  1  0  0  0  0
 24 25  2  0  0  0  0
 25 27  1  0  0  0  0
 27 29  1  0  0  0  0
  1 32  1  0  0  0  0
  2 33  1  0  0  0  0
  3 34  1  0  0  0  0
  4 35  1  0  0  0  0
  5 36  1  0  0  0  0
  6 37  1  0  0  0  0
  7 38  1  0  0  0  0
  8 39  1  0  0  0  0
  9 40  1  0  0  0  0
 10 41  1  0  0  0  0
 18 42  1  0  0  0  0
 18 43  1  0  0  0  0
 18 44  1  0  0  0  0
 19 45  1  0  0  0  0
 19 46  1  0  0  0  0
 19 47  1  0  0  0  0
 20 48  1  0  0  0  0
 20 49  1  0  0  0  0
 21 50  1  0  0  0  0
 21 51  1  0  0  0  0
 22 52  1  0  0  0  0
 28 53  1  0  0  0  0
 29 54  1  0  0  0  0
M  END
> <clash_score>
0.6426265378714453

> <docking_score>
-6.212890625

> <overlap_score>
0.9567599296569824

$$$$
BENZO_177_1
  -OEChem-08222022173D

 59 63  0     1  0  0  0  0  0999 V2000
   12.9098    3.6168   21.5462 C   0  0  0  0  0  0  0  0  0  0  0  0
   13.2786    2.5833   22.4073 C   0  0  0  0  0  0  0  0  0  0  0  0
   11.5608    3.9073   21.3428 C   0  0  0  0  0  0  0  0  0  0  0  0
    3.9160    2.0630   19.5520 C   0  0  0  0  0  0  0  0  0  0  0  0
    4.2750    1.7050   20.8490 C   0  0  0  0  0  0  0  0  0  0  0  0
   12.2983    1.8401   23.0649 C   0  0  0  0  0  0  0  0  0  0  0  0
   10.5805    3.1641   22.0003 C   0  0  0  0  0  0  0  0  0  0  0  0
    9.0720   -1.1280   24.8640 C   0  0  0  0  0  0  0  0  0  0  0  0
    9.7200   -2.2600   22.8630 C   0  0  0  0  0  0  0  0  0  0  0  0
    4.6890    1.6810   18.4640 C   0  0  0  0  0  0  0  0  0  0  0  0
    5.4210    0.9600   21.0930 C   0  0  0  0  0  0  0  0  0  0  0  0
    8.9960   -2.3380   25.5320 C   0  0  0  0  0  0  0  0  0  0  0  0
    9.6730   -3.4710   23.5300 C   0  0  0  0  0  0  0  0  0  0  0  0
   10.9492    2.1306   22.8614 C   0  0  0  0  0  0  0  0  0  0  0  0
    9.3350   -1.0880   23.5010 C   0  0  0  0  0  0  0  0  0  0  0  0
    5.8300    0.9190   18.6970 C   0  0  0  0  0  0  0  0  0  0  0  0
    6.1790    0.5730   19.9990 C   0  0  0  0  0  0  0  0  0  0  0  0
    9.3070   -3.5340   24.8780 C   0  0  0  0  0  0  0  0  0  0  0  0
    9.0420    0.3700   21.5280 C   0  0  0  0  0  0  0  0  0  0  0  0
    7.3637   -6.1365   27.1885 C   0  0  0  0  0  0  0  0  0  0  0  0
    8.1962   -4.9739   27.7340 C   0  0  0  0  0  0  0  0  0  0  0  0
    7.1943   -6.0395   25.6706 C   0  0  0  0  0  0  0  0  0  0  0  0
    9.5197   -4.8493   26.9795 C   0  0  0  0  0  0  0  0  0  0  0  0
    8.5443   -5.8838   24.9636 C   0  0  0  0  0  0  0  0  0  0  0  0
    9.8870    1.3260   23.5730 C   0  0  0  0  0  0  0  0  0  0  0  0
    9.4560    0.1560   22.8130 C   0  0  1  0  0  0  0  0  0  0  0  0
    6.7580    0.3810   17.8350 N   0  0  0  0  0  0  0  0  0  0  0  0
    7.6390   -0.2680   18.5410 N   0  0  0  0  0  0  0  0  0  0  0  0
    7.3170   -0.1610   19.8550 N   0  0  0  0  0  0  0  0  0  0  0  0
    9.2563   -4.7385   25.5420 N   0  0  0  0  0  0  0  0  0  0  0  0
    8.1890   -0.7180   20.8700 N   0  0  0  0  0  0  0  0  0  0  0  0
    9.2690    1.4140   20.9380 O   0  0  0  0  0  0  0  0  0  0  0  0
   13.6733    4.1962   21.0354 H   0  0  0  0  0  0  0  0  0  0  0  0
   14.3290    2.3577   22.5667 H   0  0  0  0  0  0  0  0  0  0  0  0
   11.2734    4.7126   20.6733 H   0  0  0  0  0  0  0  0  0  0  0  0
    3.0136    2.6526   19.3908 H   0  0  0  0  0  0  0  0  0  0  0  0
    3.6480    2.0140   21.6821 H   0  0  0  0  0  0  0  0  0  0  0  0
   12.5949    1.0365   23.7338 H   0  0  0  0  0  0  0  0  0  0  0  0
    9.5319    3.3975   21.8356 H   0  0  0  0  0  0  0  0  0  0  0  0
    8.9214   -0.1986   25.4206 H   0  0  0  0  0  0  0  0  0  0  0  0
   10.0622   -2.2326   21.8251 H   0  0  0  0  0  0  0  0  0  0  0  0
    4.4042    1.9741   17.4524 H   0  0  0  0  0  0  0  0  0  0  0  0
    5.7089    0.6919   22.1150 H   0  0  0  0  0  0  0  0  0  0  0  0
    8.6882   -2.3542   26.5803 H   0  0  0  0  0  0  0  0  0  0  0  0
    9.9258   -4.3896   22.9914 H   0  0  0  0  0  0  0  0  0  0  0  0
    7.8484   -7.0905   27.4464 H   0  0  0  0  0  0  0  0  0  0  0  0
    6.3761   -6.1442   27.6721 H   0  0  0  0  0  0  0  0  0  0  0  0
    7.6308   -4.0428   27.6404 H   0  0  0  0  0  0  0  0  0  0  0  0
    8.3917   -5.1316   28.7967 H   0  0  0  0  0  0  0  0  0  0  0  0
    6.6889   -6.9376   25.3006 H   0  0  0  0  0  0  0  0  0  0  0  0
    6.5516   -5.1860   25.4256 H   0  0  0  0  0  0  0  0  0  0  0  0
   10.0494   -3.9643   27.3413 H   0  0  0  0  0  0  0  0  0  0  0  0
   10.1432   -5.7258   27.1775 H   0  0  0  0  0  0  0  0  0  0  0  0
    9.1338   -6.7931   25.0863 H   0  0  0  0  0  0  0  0  0  0  0  0
    8.3657   -5.7262   23.8995 H   0  0  0  0  0  0  0  0  0  0  0  0
   10.2886    1.0256   24.5508 H   0  0  0  0  0  0  0  0  0  0  0  0
    9.0288    1.9709   23.8044 H   0  0  0  0  0  0  0  0  0  0  0  0
   10.7829   -0.1040   22.4083 H   0  0  0  0  0  0  0  0  0  0  0  0
    8.2487   -1.5564   21.0972 H   0  0  0  0  0  0  0  0  0  0  0  0
  1  2  1  0  0  0  0
  1  3  2  0  0  0  0
  2  6  2  0  0  0  0
  3  7  1  0  0  0  0
  4  5  1  0  0  0  0
  4 10  2  0  0  0  0
  5 11  2  0  0  0  0
  6 14  1  0  0  0  0
  7 14  2  0  0  0  0
  8 12  2  0  0  0  0
  8 15  1  0  0  0  0
  9 13  1  0  0  0  0
  9 15  2  0  0  0  0
 10 16  1  0  0  0  0
 11 17  1  0  0  0  0
 12 18  1  0  0  0  0
 13 18  2  0  0  0  0
 14 25  1  0  0  0  0
 15 26  1  0  0  0  0
 16 17  2  0  0  0  0
 16 27  1  0  0  0  0
 17 29  1  0  0  0  0
 18 30  1  0  0  0  0
 19 26  1  1  0  0  0
 19 31  1  0  0  0  0
 19 32  2  0  0  0  0
 20 21  1  0  0  0  0
 20 22  1  0  0  0  0
 21 23  1  0  0  0  0
 22 24  1  0  0  0  0
 23 30  1  0  0  0  0
 24 30  1  0  0  0  0
 25 26  1  0  0  0  0
 27 28  2  0  0  0  0
 28 29  1  0  0  0  0
 29 31  1  0  0  0  0
  1 33  1  0  0  0  0
  2 34  1  0  0  0  0
  3 35  1  0  0  0  0
  4 36  1  0  0  0  0
  5 37  1  0  0  0  0
  6 38  1  0  0  0  0
  7 39  1  0  0  0  0
  8 40  1  0  0  0  0
  9 41  1  0  0  0  0
 10 42  1  0  0  0  0
 11 43  1  0  0  0  0
 12 44  1  0  0  0  0
 13 45  1  0  0  0  0
 20 46  1  0  0  0  0
 20 47  1  0  0  0  0
 21 48  1  0  0  0  0
 21 49  1  0  0  0  0
 22 50  1  0  0  0  0
 22 51  1  0  0  0  0
 23 52  1  0  0  0  0
 23 53  1  0  0  0  0
 24 54  1  0  0  0  0
 24 55  1  0  0  0  0
 25 56  1  0  0  0  0
 25 57  1  0  0  0  0
 26 58  1  0  0  0  0
 31 59  1  0  0  0  0
M  END
> <clash_score>
0.6270130811898733

> <docking_score>
-8.620002746582031

> <overlap_score>
0.9691499471664429

$$$$
BENZO_175_1
  -OEChem-08222022173D

 54 57  0     1  0  0  0  0  0999 V2000
    3.9160    2.0630   19.5520 C   0  0  0  0  0  0  0  0  0  0  0  0
    4.2750    1.7050   20.8490 C   0  0  0  0  0  0  0  0  0  0  0  0
    9.0720   -1.1280   24.8640 C   0  0  0  0  0  0  0  0  0  0  0  0
    9.7200   -2.2600   22.8630 C   0  0  0  0  0  0  0  0  0  0  0  0
    4.6890    1.6810   18.4640 C   0  0  0  0  0  0  0  0  0  0  0  0
    5.4210    0.9600   21.0930 C   0  0  0  0  0  0  0  0  0  0  0  0
    8.9960   -2.3380   25.5320 C   0  0  0  0  0  0  0  0  0  0  0  0
    9.6730   -3.4710   23.5300 C   0  0  0  0  0  0  0  0  0  0  0  0
   12.0646    2.7858   23.5979 C   0  0  0  0  0  0  0  0  0  0  0  0
   12.3704    0.6193   23.3790 C   0  0  0  0  0  0  0  0  0  0  0  0
    9.3350   -1.0880   23.5010 C   0  0  0  0  0  0  0  0  0  0  0  0
   11.3785    1.5592   23.5173 C   0  0  0  0  0  0  0  0  0  0  0  0
    5.8300    0.9190   18.6970 C   0  0  0  0  0  0  0  0  0  0  0  0
    6.1790    0.5730   19.9990 C   0  0  0  0  0  0  0  0  0  0  0  0
    9.3070   -3.5340   24.8780 C   0  0  0  0  0  0  0  0  0  0  0  0
    8.4227   -5.1089   26.6141 C   0  0  0  0  0  0  0  0  0  0  0  0
    9.0420    0.3700   21.5280 C   0  0  0  0  0  0  0  0  0  0  0  0
    8.4173   -7.5520   25.9532 C   0  0  0  0  0  0  0  0  0  0  0  0
   14.8700    0.7541   23.2663 C   0  0  0  0  0  0  0  0  0  0  0  0
    9.8870    1.3260   23.5730 C   0  0  0  0  0  0  0  0  0  0  0  0
    8.6900   -6.5411   27.0525 C   0  0  0  0  0  0  0  0  0  0  0  0
    9.4560    0.1560   22.8130 C   0  0  1  0  0  0  0  0  0  0  0  0
   13.3900    2.6414   23.5177 N   0  0  0  0  0  0  0  0  0  0  0  0
    6.7580    0.3810   17.8350 N   0  0  0  0  0  0  0  0  0  0  0  0
    7.6390   -0.2680   18.5410 N   0  0  0  0  0  0  0  0  0  0  0  0
   13.5447    1.3130   23.3854 N   0  0  0  0  0  0  0  0  0  0  0  0
    7.3170   -0.1610   19.8550 N   0  0  0  0  0  0  0  0  0  0  0  0
    9.2546   -4.7423   25.5437 N   0  0  0  0  0  0  0  0  0  0  0  0
    8.1890   -0.7180   20.8700 N   0  0  0  0  0  0  0  0  0  0  0  0
    7.5768   -4.4085   27.1603 O   0  0  0  0  0  0  0  0  0  0  0  0
    9.2690    1.4140   20.9380 O   0  0  0  0  0  0  0  0  0  0  0  0
    3.0136    2.6526   19.3908 H   0  0  0  0  0  0  0  0  0  0  0  0
    3.6480    2.0140   21.6821 H   0  0  0  0  0  0  0  0  0  0  0  0
    8.9202   -0.1986   25.4206 H   0  0  0  0  0  0  0  0  0  0  0  0
   10.0631   -2.2319   21.8252 H   0  0  0  0  0  0  0  0  0  0  0  0
    4.4042    1.9741   17.4524 H   0  0  0  0  0  0  0  0  0  0  0  0
    5.7089    0.6919   22.1150 H   0  0  0  0  0  0  0  0  0  0  0  0
    8.6898   -2.3534   26.5810 H   0  0  0  0  0  0  0  0  0  0  0  0
    9.9254   -4.3899   22.9914 H   0  0  0  0  0  0  0  0  0  0  0  0
   11.6563    3.7799   23.7126 H   0  0  0  0  0  0  0  0  0  0  0  0
   12.3415   -0.4574   23.2805 H   0  0  0  0  0  0  0  0  0  0  0  0
    7.3765   -7.4970   25.6177 H   0  0  0  0  0  0  0  0  0  0  0  0
    8.6071   -8.5677   26.3139 H   0  0  0  0  0  0  0  0  0  0  0  0
    9.0598   -7.3717   25.0851 H   0  0  0  0  0  0  0  0  0  0  0  0
   15.1278    0.7207   22.2045 H   0  0  0  0  0  0  0  0  0  0  0  0
   15.5801    1.3811   23.8126 H   0  0  0  0  0  0  0  0  0  0  0  0
   14.8776   -0.2522   23.6945 H   0  0  0  0  0  0  0  0  0  0  0  0
    9.6026    1.2057   24.6276 H   0  0  0  0  0  0  0  0  0  0  0  0
    9.3596    2.2290   23.2378 H   0  0  0  0  0  0  0  0  0  0  0  0
    9.7367   -6.6182   27.3685 H   0  0  0  0  0  0  0  0  0  0  0  0
    8.0565   -6.7633   27.9189 H   0  0  0  0  0  0  0  0  0  0  0  0
    8.0683    0.4897   23.2524 H   0  0  0  0  0  0  0  0  0  0  0  0
    9.9034   -5.4689   25.2194 H   0  0  0  0  0  0  0  0  0  0  0  0
    8.2712   -1.5583   21.1209 H   0  0  0  0  0  0  0  0  0  0  0  0
  1  2  1  0  0  0  0
  1  5  2  0  0  0  0
  2  6  2  0  0  0  0
  3  7  2  0  0  0  0
  3 11  1  0  0  0  0
  4  8  1  0  0  0  0
  4 11  2  0  0  0  0
  5 13  1  0  0  0  0
  6 14  1  0  0  0  0
  7 15  1  0  0  0  0
  8 15  2  0  0  0  0
  9 12  1  0  0  0  0
  9 23  2  0  0  0  0
 10 12  2  0  0  0  0
 10 26  1  0  0  0  0
 11 22  1  0  0  0  0
 12 20  1  0  0  0  0
 13 14  2  0  0  0  0
 13 24  1  0  0  0  0
 14 27  1  0  0  0  0
 15 28  1  0  0  0  0
 16 21  1  0  0  0  0
 16 28  1  0  0  0  0
 16 30  2  0  0  0  0
 17 22  1  0  0  0  0
 17 29  1  0  0  0  0
 17 31  2  0  0  0  0
 18 21  1  0  0  0  0
 19 26  1  0  0  0  0
 20 22  1  1  0  0  0
 23 26  1  0  0  0  0
 24 25  2  0  0  0  0
 25 27  1  0  0  0  0
 27 29  1  0  0  0  0
  1 32  1  0  0  0  0
  2 33  1  0  0  0  0
  3 34  1  0  0  0  0
  4 35  1  0  0  0  0
  5 36  1  0  0  0  0
  6 37  1  0  0  0  0
  7 38  1  0  0  0  0
  8 39  1  0  0  0  0
  9 40  1  0  0  0  0
 10 41  1  0  0  0  0
 18 42  1  0  0  0  0
 18 43  1  0  0  0  0
 18 44  1  0  0  0  0
 19 45  1  0  0  0  0
 19 46  1  0  0  0  0
 19 47  1  0  0  0  0
 20 48  1  0  0  0  0
 20 49  1  0  0  0  0
 21 50  1  0  0  0  0
 21 51  1  0  0  0  0
 22 52  1  0  0  0  0
 28 53  1  0  0  0  0
 29 54  1  0  0  0  0
M  END
> <clash_score>
0.6426265378714453

> <docking_score>
-7.891013145446777

> <overlap_score>
1.002410888671875

$$$$
BENZO_177_2
  -OEChem-08222022173D

 59 63  0     1  0  0  0  0  0999 V2000
   14.1377    1.9562   23.4064 C   0  0  0  0  0  0  0  0  0  0  0  0
   13.5892    1.1645   24.4154 C   0  0  0  0  0  0  0  0  0  0  0  0
   13.3074    2.5435   22.4518 C   0  0  0  0  0  0  0  0  0  0  0  0
    3.9160    2.0630   19.5520 C   0  0  0  0  0  0  0  0  0  0  0  0
    4.2750    1.7050   20.8490 C   0  0  0  0  0  0  0  0  0  0  0  0
   12.2105    0.9600   24.4697 C   0  0  0  0  0  0  0  0  0  0  0  0
   11.9286    2.3390   22.5060 C   0  0  0  0  0  0  0  0  0  0  0  0
    9.0720   -1.1280   24.8640 C   0  0  0  0  0  0  0  0  0  0  0  0
    9.7200   -2.2600   22.8630 C   0  0  0  0  0  0  0  0  0  0  0  0
    4.6890    1.6810   18.4640 C   0  0  0  0  0  0  0  0  0  0  0  0
    5.4210    0.9600   21.0930 C   0  0  0  0  0  0  0  0  0  0  0  0
    8.9960   -2.3380   25.5320 C   0  0  0  0  0  0  0  0  0  0  0  0
    9.6730   -3.4710   23.5300 C   0  0  0  0  0  0  0  0  0  0  0  0
   11.3802    1.5472   23.5150 C   0  0  0  0  0  0  0  0  0  0  0  0
    9.3350   -1.0880   23.5010 C   0  0  0  0  0  0  0  0  0  0  0  0
    5.8300    0.9190   18.6970 C   0  0  0  0  0  0  0  0  0  0  0  0
    6.1790    0.5730   19.9990 C   0  0  0  0  0  0  0  0  0  0  0  0
    9.3070   -3.5340   24.8780 C   0  0  0  0  0  0  0  0  0  0  0  0
    9.0420    0.3700   21.5280 C   0  0  0  0  0  0  0  0  0  0  0  0
    7.2237   -6.6201   26.3005 C   0  0  0  0  0  0  0  0  0  0  0  0
    7.4295   -5.3104   27.0650 C   0  0  0  0  0  0  0  0  0  0  0  0
    7.7218   -6.5099   24.8576 C   0  0  0  0  0  0  0  0  0  0  0  0
    8.8783   -4.8360   26.9547 C   0  0  0  0  0  0  0  0  0  0  0  0
    9.1653   -6.0007   24.7991 C   0  0  0  0  0  0  0  0  0  0  0  0
    9.8870    1.3260   23.5730 C   0  0  0  0  0  0  0  0  0  0  0  0
    9.4560    0.1560   22.8130 C   0  0  2  0  0  0  0  0  0  0  0  0
    6.7580    0.3810   17.8350 N   0  0  0  0  0  0  0  0  0  0  0  0
    7.6390   -0.2680   18.5410 N   0  0  0  0  0  0  0  0  0  0  0  0
    7.3170   -0.1610   19.8550 N   0  0  0  0  0  0  0  0  0  0  0  0
    9.2563   -4.7385   25.5420 N   0  0  0  0  0  0  0  0  0  0  0  0
    8.1890   -0.7180   20.8700 N   0  0  0  0  0  0  0  0  0  0  0  0
    9.2690    1.4140   20.9380 O   0  0  0  0  0  0  0  0  0  0  0  0
   15.2111    2.1164   23.3651 H   0  0  0  0  0  0  0  0  0  0  0  0
   14.2355    0.7080   25.1594 H   0  0  0  0  0  0  0  0  0  0  0  0
   13.7339    3.1609   21.6667 H   0  0  0  0  0  0  0  0  0  0  0  0
    3.0136    2.6526   19.3908 H   0  0  0  0  0  0  0  0  0  0  0  0
    3.6481    2.0140   21.6821 H   0  0  0  0  0  0  0  0  0  0  0  0
   11.7920    0.3414   25.2593 H   0  0  0  0  0  0  0  0  0  0  0  0
   11.2895    2.8005   21.7579 H   0  0  0  0  0  0  0  0  0  0  0  0
    8.9214   -0.1986   25.4206 H   0  0  0  0  0  0  0  0  0  0  0  0
   10.0622   -2.2326   21.8251 H   0  0  0  0  0  0  0  0  0  0  0  0
    4.4042    1.9741   17.4524 H   0  0  0  0  0  0  0  0  0  0  0  0
    5.7089    0.6919   22.1150 H   0  0  0  0  0  0  0  0  0  0  0  0
    8.6882   -2.3542   26.5803 H   0  0  0  0  0  0  0  0  0  0  0  0
    9.9258   -4.3896   22.9914 H   0  0  0  0  0  0  0  0  0  0  0  0
    7.7561   -7.4351   26.8143 H   0  0  0  0  0  0  0  0  0  0  0  0
    6.1574   -6.8886   26.3051 H   0  0  0  0  0  0  0  0  0  0  0  0
    6.7603   -4.5438   26.6651 H   0  0  0  0  0  0  0  0  0  0  0  0
    7.1686   -5.4557   28.1153 H   0  0  0  0  0  0  0  0  0  0  0  0
    7.6596   -7.4899   24.3731 H   0  0  0  0  0  0  0  0  0  0  0  0
    7.0707   -5.8316   24.2940 H   0  0  0  0  0  0  0  0  0  0  0  0
    8.9682   -3.8625   27.4435 H   0  0  0  0  0  0  0  0  0  0  0  0
    9.5389   -5.5394   27.4694 H   0  0  0  0  0  0  0  0  0  0  0  0
    9.8375   -6.7414   25.2339 H   0  0  0  0  0  0  0  0  0  0  0  0
    9.4414   -5.8513   23.7549 H   0  0  0  0  0  0  0  0  0  0  0  0
    9.6004    1.2281   24.6293 H   0  0  0  0  0  0  0  0  0  0  0  0
    9.3666    2.2262   23.2198 H   0  0  0  0  0  0  0  0  0  0  0  0
    8.0666    0.4961   23.2504 H   0  0  0  0  0  0  0  0  0  0  0  0
    8.2487   -1.5564   21.0972 H   0  0  0  0  0  0  0  0  0  0  0  0
  1  2  1  0  0  0  0
  1  3  2  0  0  0  0
  2  6  2  0  0  0  0
  3  7  1  0  0  0  0
  4  5  1  0  0  0  0
  4 10  2  0  0  0  0
  5 11  2  0  0  0  0
  6 14  1  0  0  0  0
  7 14  2  0  0  0  0
  8 12  2  0  0  0  0
  8 15  1  0  0  0  0
  9 13  1  0  0  0  0
  9 15  2  0  0  0  0
 10 16  1  0  0  0  0
 11 17  1  0  0  0  0
 12 18  1  0  0  0  0
 13 18  2  0  0  0  0
 14 25  1  0  0  0  0
 15 26  1  0  0  0  0
 16 17  2  0  0  0  0
 16 27  1  0  0  0  0
 17 29  1  0  0  0  0
 18 30  1  0  0  0  0
 19 26  1  6  0  0  0
 19 31  1  0  0  0  0
 19 32  2  0  0  0  0
 20 21  1  0  0  0  0
 20 22  1  0  0  0  0
 21 23  1  0  0  0  0
 22 24  1  0  0  0  0
 23 30  1  0  0  0  0
 24 30  1  0  0  0  0
 25 26  1  0  0  0  0
 27 28  2  0  0  0  0
 28 29  1  0  0  0  0
 29 31  1  0  0  0  0
  1 33  1  0  0  0  0
  2 34  1  0  0  0  0
  3 35  1  0  0  0  0
  4 36  1  0  0  0  0
  5 37  1  0  0  0  0
  6 38  1  0  0  0  0
  7 39  1  0  0  0  0
  8 40  1  0  0  0  0
  9 41  1  0  0  0  0
 10 42  1  0  0  0  0
 11 43  1  0  0  0  0
 12 44  1  0  0  0  0
 13 45  1  0  0  0  0
 20 46  1  0  0  0  0
 20 47  1  0  0  0  0
 21 48  1  0  0  0  0
 21 49  1  0  0  0  0
 22 50  1  0  0  0  0
 22 51  1  0  0  0  0
 23 52  1  0  0  0  0
 23 53  1  0  0  0  0
 24 54  1  0  0  0  0
 24 55  1  0  0  0  0
 25 56  1  0  0  0  0
 25 57  1  0  0  0  0
 26 58  1  0  0  0  0
 31 59  1  0  0  0  0
M  END
> <clash_score>
0

> <docking_score>
-8.62077522277832

> <overlap_score>
1.0122568607330322

$$$$
BENZO_176_1
  -OEChem-08222022173D

 56 60  0     1  0  0  0  0  0999 V2000
    3.9160    2.0630   19.5520 C   0  0  0  0  0  0  0  0  0  0  0  0
    4.2750    1.7050   20.8490 C   0  0  0  0  0  0  0  0  0  0  0  0
    9.0720   -1.1280   24.8640 C   0  0  0  0  0  0  0  0  0  0  0  0
    9.7200   -2.2600   22.8630 C   0  0  0  0  0  0  0  0  0  0  0  0
    4.6890    1.6810   18.4640 C   0  0  0  0  0  0  0  0  0  0  0  0
    5.4210    0.9600   21.0930 C   0  0  0  0  0  0  0  0  0  0  0  0
    8.9960   -2.3380   25.5320 C   0  0  0  0  0  0  0  0  0  0  0  0
    9.6730   -3.4710   23.5300 C   0  0  0  0  0  0  0  0  0  0  0  0
   12.4051    0.7237   23.6691 C   0  0  0  0  0  0  0  0  0  0  0  0
   13.4398    0.5873   24.5682 C   0  0  0  0  0  0  0  0  0  0  0  0
   11.3401    1.2429   25.6687 C   0  0  0  0  0  0  0  0  0  0  0  0
    9.3350   -1.0880   23.5010 C   0  0  0  0  0  0  0  0  0  0  0  0
   11.1887    1.1036   24.3065 C   0  0  0  0  0  0  0  0  0  0  0  0
    5.8300    0.9190   18.6970 C   0  0  0  0  0  0  0  0  0  0  0  0
    6.1790    0.5730   19.9990 C   0  0  0  0  0  0  0  0  0  0  0  0
    9.3070   -3.5340   24.8780 C   0  0  0  0  0  0  0  0  0  0  0  0
    9.0420    0.3700   21.5280 C   0  0  0  0  0  0  0  0  0  0  0  0
    7.3637   -6.1365   27.1885 C   0  0  0  0  0  0  0  0  0  0  0  0
    8.1962   -4.9739   27.7340 C   0  0  0  0  0  0  0  0  0  0  0  0
    7.1943   -6.0395   25.6706 C   0  0  0  0  0  0  0  0  0  0  0  0
    9.5197   -4.8493   26.9795 C   0  0  0  0  0  0  0  0  0  0  0  0
    8.5443   -5.8838   24.9636 C   0  0  0  0  0  0  0  0  0  0  0  0
    9.8870    1.3260   23.5730 C   0  0  0  0  0  0  0  0  0  0  0  0
    9.4560    0.1560   22.8130 C   0  0  1  0  0  0  0  0  0  0  0  0
    6.7580    0.3810   17.8350 N   0  0  0  0  0  0  0  0  0  0  0  0
    7.6390   -0.2680   18.5410 N   0  0  0  0  0  0  0  0  0  0  0  0
    7.3170   -0.1610   19.8550 N   0  0  0  0  0  0  0  0  0  0  0  0
    9.2563   -4.7385   25.5420 N   0  0  0  0  0  0  0  0  0  0  0  0
    8.1890   -0.7180   20.8700 N   0  0  0  0  0  0  0  0  0  0  0  0
    9.2690    1.4140   20.9380 O   0  0  0  0  0  0  0  0  0  0  0  0
   12.9435    0.9166   26.1737 S   0  0  0  0  0  0  0  0  0  0  0  0
    3.0136    2.6526   19.3908 H   0  0  0  0  0  0  0  0  0  0  0  0
    3.6480    2.0140   21.6821 H   0  0  0  0  0  0  0  0  0  0  0  0
    8.9214   -0.1986   25.4206 H   0  0  0  0  0  0  0  0  0  0  0  0
   10.0622   -2.2326   21.8251 H   0  0  0  0  0  0  0  0  0  0  0  0
    4.4042    1.9741   17.4524 H   0  0  0  0  0  0  0  0  0  0  0  0
    5.7089    0.6919   22.1150 H   0  0  0  0  0  0  0  0  0  0  0  0
    8.6882   -2.3542   26.5803 H   0  0  0  0  0  0  0  0  0  0  0  0
    9.9258   -4.3896   22.9914 H   0  0  0  0  0  0  0  0  0  0  0  0
   12.5196    0.5574   22.6054 H   0  0  0  0  0  0  0  0  0  0  0  0
   14.4632    0.3094   24.3592 H   0  0  0  0  0  0  0  0  0  0  0  0
   10.5884    1.5193   26.3951 H   0  0  0  0  0  0  0  0  0  0  0  0
    7.8484   -7.0905   27.4464 H   0  0  0  0  0  0  0  0  0  0  0  0
    6.3761   -6.1442   27.6721 H   0  0  0  0  0  0  0  0  0  0  0  0
    7.6308   -4.0428   27.6404 H   0  0  0  0  0  0  0  0  0  0  0  0
    8.3917   -5.1316   28.7967 H   0  0  0  0  0  0  0  0  0  0  0  0
    6.6889   -6.9376   25.3006 H   0  0  0  0  0  0  0  0  0  0  0  0
    6.5516   -5.1860   25.4256 H   0  0  0  0  0  0  0  0  0  0  0  0
   10.0494   -3.9643   27.3413 H   0  0  0  0  0  0  0  0  0  0  0  0
   10.1432   -5.7258   27.1775 H   0  0  0  0  0  0  0  0  0  0  0  0
    9.1338   -6.7931   25.0863 H   0  0  0  0  0  0  0  0  0  0  0  0
    8.3657   -5.7262   23.8995 H   0  0  0  0  0  0  0  0  0  0  0  0
    9.1255    1.6083   24.3133 H   0  0  0  0  0  0  0  0  0  0  0  0
    9.9796    2.1992   22.9136 H   0  0  0  0  0  0  0  0  0  0  0  0
   10.7829   -0.1040   22.4083 H   0  0  0  0  0  0  0  0  0  0  0  0
    8.2487   -1.5564   21.0972 H   0  0  0  0  0  0  0  0  0  0  0  0
  1  2  1  0  0  0  0
  1  5  2  0  0  0  0
  2  6  2  0  0  0  0
  3  7  2  0  0  0  0
  3 12  1  0  0  0  0
  4  8  1  0  0  0  0
  4 12  2  0  0  0  0
  5 14  1  0  0  0  0
  6 15  1  0  0  0  0
  7 16  1  0  0  0  0
  8 16  2  0  0  0  0
  9 10  2  0  0  0  0
  9 13  1  0  0  0  0
 10 31  1  0  0  0  0
 11 13  2  0  0  0  0
 11 31  1  0  0  0  0
 12 24  1  0  0  0  0
 13 23  1  0  0  0  0
 14 15  2  0  0  0  0
 14 25  1  0  0  0  0
 15 27  1  0  0  0  0
 16 28  1  0  0  0  0
 17 24  1  1  0  0  0
 17 29  1  0  0  0  0
 17 30  2  0  0  0  0
 18 19  1  0  0  0  0
 18 20  1  0  0  0  0
 19 21  1  0  0  0  0
 20 22  1  0  0  0  0
 21 28  1  0  0  0  0
 22 28  1  0  0  0  0
 23 24  1  0  0  0  0
 25 26  2  0  0  0  0
 26 27  1  0  0  0  0
 27 29  1  0  0  0  0
  1 32  1  0  0  0  0
  2 33  1  0  0  0  0
  3 34  1  0  0  0  0
  4 35  1  0  0  0  0
  5 36  1  0  0  0  0
  6 37  1  0  0  0  0
  7 38  1  0  0  0  0
  8 39  1  0  0  0  0
  9 40  1  0  0  0  0
 10 41  1  0  0  0  0
 11 42  1  0  0  0  0
 18 43  1  0  0  0  0
 18 44  1  0  0  0  0
 19 45  1  0  0  0  0
 19 46  1  0  0  0  0
 20 47  1  0  0  0  0
 20 48  1  0  0  0  0
 21 49  1  0  0  0  0
 21 50  1  0  0  0  0
 22 51  1  0  0  0  0
 22 52  1  0  0  0  0
 23 53  1  0  0  0  0
 23 54  1  0  0  0  0
 24 55  1  0  0  0  0
 29 56  1  0  0  0  0
M  END
> <clash_score>
0.6210418892547654

> <docking_score>
-7.181585311889648

> <overlap_score>
0.9244956374168396

$$$$
BENZO_176_2
  -OEChem-08222022173D

 56 60  0     1  0  0  0  0  0999 V2000
    3.9160    2.0630   19.5520 C   0  0  0  0  0  0  0  0  0  0  0  0
    4.2750    1.7050   20.8490 C   0  0  0  0  0  0  0  0  0  0  0  0
    9.0720   -1.1280   24.8640 C   0  0  0  0  0  0  0  0  0  0  0  0
    9.7200   -2.2600   22.8630 C   0  0  0  0  0  0  0  0  0  0  0  0
    4.6890    1.6810   18.4640 C   0  0  0  0  0  0  0  0  0  0  0  0
    5.4210    0.9600   21.0930 C   0  0  0  0  0  0  0  0  0  0  0  0
    8.9960   -2.3380   25.5320 C   0  0  0  0  0  0  0  0  0  0  0  0
    9.6730   -3.4710   23.5300 C   0  0  0  0  0  0  0  0  0  0  0  0
   12.3363    0.4949   23.4224 C   0  0  0  0  0  0  0  0  0  0  0  0
   13.6283    0.9714   23.3861 C   0  0  0  0  0  0  0  0  0  0  0  0
   11.9779    2.7881   23.5461 C   0  0  0  0  0  0  0  0  0  0  0  0
    9.3350   -1.0880   23.5010 C   0  0  0  0  0  0  0  0  0  0  0  0
   11.3802    1.5472   23.5150 C   0  0  0  0  0  0  0  0  0  0  0  0
    5.8300    0.9190   18.6970 C   0  0  0  0  0  0  0  0  0  0  0  0
    6.1790    0.5730   19.9990 C   0  0  0  0  0  0  0  0  0  0  0  0
    9.3070   -3.5340   24.8780 C   0  0  0  0  0  0  0  0  0  0  0  0
    9.0420    0.3700   21.5280 C   0  0  0  0  0  0  0  0  0  0  0  0
    7.3637   -6.1365   27.1885 C   0  0  0  0  0  0  0  0  0  0  0  0
    8.1962   -4.9739   27.7340 C   0  0  0  0  0  0  0  0  0  0  0  0
    7.1943   -6.0395   25.6706 C   0  0  0  0  0  0  0  0  0  0  0  0
    9.5197   -4.8493   26.9795 C   0  0  0  0  0  0  0  0  0  0  0  0
    8.5443   -5.8838   24.9636 C   0  0  0  0  0  0  0  0  0  0  0  0
    9.8870    1.3260   23.5730 C   0  0  0  0  0  0  0  0  0  0  0  0
    9.4560    0.1560   22.8130 C   0  0  2  0  0  0  0  0  0  0  0  0
    6.7580    0.3810   17.8350 N   0  0  0  0  0  0  0  0  0  0  0  0
    7.6390   -0.2680   18.5410 N   0  0  0  0  0  0  0  0  0  0  0  0
    7.3170   -0.1610   19.8550 N   0  0  0  0  0  0  0  0  0  0  0  0
    9.2563   -4.7385   25.5420 N   0  0  0  0  0  0  0  0  0  0  0  0
    8.1890   -0.7180   20.8700 N   0  0  0  0  0  0  0  0  0  0  0  0
    9.2690    1.4140   20.9380 O   0  0  0  0  0  0  0  0  0  0  0  0
   13.6850    2.6811   23.4636 S   0  0  0  0  0  0  0  0  0  0  0  0
    3.0136    2.6526   19.3908 H   0  0  0  0  0  0  0  0  0  0  0  0
    3.6481    2.0140   21.6821 H   0  0  0  0  0  0  0  0  0  0  0  0
    8.9214   -0.1986   25.4206 H   0  0  0  0  0  0  0  0  0  0  0  0
   10.0622   -2.2326   21.8251 H   0  0  0  0  0  0  0  0  0  0  0  0
    4.4042    1.9741   17.4524 H   0  0  0  0  0  0  0  0  0  0  0  0
    5.7089    0.6919   22.1150 H   0  0  0  0  0  0  0  0  0  0  0  0
    8.6882   -2.3542   26.5803 H   0  0  0  0  0  0  0  0  0  0  0  0
    9.9258   -4.3896   22.9914 H   0  0  0  0  0  0  0  0  0  0  0  0
   12.0932   -0.5595   23.3845 H   0  0  0  0  0  0  0  0  0  0  0  0
   14.5416    0.3974   23.3185 H   0  0  0  0  0  0  0  0  0  0  0  0
   11.4978    3.7544   23.6145 H   0  0  0  0  0  0  0  0  0  0  0  0
    7.8484   -7.0905   27.4464 H   0  0  0  0  0  0  0  0  0  0  0  0
    6.3761   -6.1442   27.6721 H   0  0  0  0  0  0  0  0  0  0  0  0
    7.6308   -4.0428   27.6404 H   0  0  0  0  0  0  0  0  0  0  0  0
    8.3917   -5.1316   28.7967 H   0  0  0  0  0  0  0  0  0  0  0  0
    6.6889   -6.9376   25.3006 H   0  0  0  0  0  0  0  0  0  0  0  0
    6.5516   -5.1860   25.4256 H   0  0  0  0  0  0  0  0  0  0  0  0
   10.0494   -3.9643   27.3413 H   0  0  0  0  0  0  0  0  0  0  0  0
   10.1432   -5.7258   27.1775 H   0  0  0  0  0  0  0  0  0  0  0  0
    9.1338   -6.7931   25.0863 H   0  0  0  0  0  0  0  0  0  0  0  0
    8.3657   -5.7262   23.8995 H   0  0  0  0  0  0  0  0  0  0  0  0
    9.6004    1.2281   24.6293 H   0  0  0  0  0  0  0  0  0  0  0  0
    9.3666    2.2262   23.2198 H   0  0  0  0  0  0  0  0  0  0  0  0
    8.0666    0.4961   23.2504 H   0  0  0  0  0  0  0  0  0  0  0  0
    8.2487   -1.5564   21.0972 H   0  0  0  0  0  0  0  0  0  0  0  0
  1  2  1  0  0  0  0
  1  5  2  0  0  0  0
  2  6  2  0  0  0  0
  3  7  2  0  0  0  0
  3 12  1  0  0  0  0
  4  8  1  0  0  0  0
  4 12  2  0  0  0  0
  5 14  1  0  0  0  0
  6 15  1  0  0  0  0
  7 16  1  0  0  0  0
  8 16  2  0  0  0  0
  9 10  2  0  0  0  0
  9 13  1  0  0  0  0
 10 31  1  0  0  0  0
 11 13  2  0  0  0  0
 11 31  1  0  0  0  0
 12 24  1  0  0  0  0
 13 23  1  0  0  0  0
 14 15  2  0  0  0  0
 14 25  1  0  0  0  0
 15 27  1  0  0  0  0
 16 28  1  0  0  0  0
 17 24  1  6  0  0  0
 17 29  1  0  0  0  0
 17 30  2  0  0  0  0
 18 19  1  0  0  0  0
 18 20  1  0  0  0  0
 19 21  1  0  0  0  0
 20 22  1  0  0  0  0
 21 28  1  0  0  0  0
 22 28  1  0  0  0  0
 23 24  1  0  0  0  0
 25 26  2  0  0  0  0
 26 27  1  0  0  0  0
 27 29  1  0  0  0  0
  1 32  1  0  0  0  0
  2 33  1  0  0  0  0
  3 34  1  0  0  0  0
  4 35  1  0  0  0  0
  5 36  1  0  0  0  0
  6 37  1  0  0  0  0
  7 38  1  0  0  0  0
  8 39  1  0  0  0  0
  9 40  1  0  0  0  0
 10 41  1  0  0  0  0
 11 42  1  0  0  0  0
 18 43  1  0  0  0  0
 18 44  1  0  0  0  0
 19 45  1  0  0  0  0
 19 46  1  0  0  0  0
 20 47  1  0  0  0  0
 20 48  1  0  0  0  0
 21 49  1  0  0  0  0
 21 50  1  0  0  0  0
 22 51  1  0  0  0  0
 22 52  1  0  0  0  0
 23 53  1  0  0  0  0
 23 54  1  0  0  0  0
 24 55  1  0  0  0  0
 29 56  1  0  0  0  0
M  END
> <clash_score>
0

> <docking_score>
-9.090928077697754

> <overlap_score>
0.997901976108551

$$$$
BENZO_178_1
  -OEChem-08222022173D

 59 63  0     1  0  0  0  0  0999 V2000
    3.9160    2.0630   19.5520 C   0  0  0  0  0  0  0  0  0  0  0  0
    4.2750    1.7050   20.8490 C   0  0  0  0  0  0  0  0  0  0  0  0
   13.2791    2.5803   22.4075 C   0  0  0  0  0  0  0  0  0  0  0  0
   12.2978    1.8385   23.0651 C   0  0  0  0  0  0  0  0  0  0  0  0
    9.0720   -1.1280   24.8640 C   0  0  0  0  0  0  0  0  0  0  0  0
    9.7200   -2.2600   22.8630 C   0  0  0  0  0  0  0  0  0  0  0  0
    4.6890    1.6810   18.4640 C   0  0  0  0  0  0  0  0  0  0  0  0
    5.4210    0.9600   21.0930 C   0  0  0  0  0  0  0  0  0  0  0  0
    8.9960   -2.3380   25.5320 C   0  0  0  0  0  0  0  0  0  0  0  0
    9.6730   -3.4710   23.5300 C   0  0  0  0  0  0  0  0  0  0  0  0
   12.9117    3.6142   21.5462 C   0  0  0  0  0  0  0  0  0  0  0  0
   10.5818    3.1644   22.0000 C   0  0  0  0  0  0  0  0  0  0  0  0
    9.3350   -1.0880   23.5010 C   0  0  0  0  0  0  0  0  0  0  0  0
   10.9492    2.1306   22.8614 C   0  0  0  0  0  0  0  0  0  0  0  0
    5.8300    0.9190   18.6970 C   0  0  0  0  0  0  0  0  0  0  0  0
    6.1790    0.5730   19.9990 C   0  0  0  0  0  0  0  0  0  0  0  0
    9.3070   -3.5340   24.8780 C   0  0  0  0  0  0  0  0  0  0  0  0
   11.5631    3.9062   21.3424 C   0  0  0  0  0  0  0  0  0  0  0  0
    9.0420    0.3700   21.5280 C   0  0  0  0  0  0  0  0  0  0  0  0
    7.3637   -6.1365   27.1885 C   0  0  0  0  0  0  0  0  0  0  0  0
    8.1962   -4.9739   27.7340 C   0  0  0  0  0  0  0  0  0  0  0  0
    7.1943   -6.0395   25.6706 C   0  0  0  0  0  0  0  0  0  0  0  0
    9.5197   -4.8493   26.9795 C   0  0  0  0  0  0  0  0  0  0  0  0
    8.5443   -5.8838   24.9636 C   0  0  0  0  0  0  0  0  0  0  0  0
    9.8870    1.3260   23.5730 C   0  0  0  0  0  0  0  0  0  0  0  0
    9.4560    0.1560   22.8130 C   0  0  1  0  0  0  0  0  0  0  0  0
    6.7580    0.3810   17.8350 N   0  0  0  0  0  0  0  0  0  0  0  0
    7.6390   -0.2680   18.5410 N   0  0  0  0  0  0  0  0  0  0  0  0
    7.3170   -0.1610   19.8550 N   0  0  0  0  0  0  0  0  0  0  0  0
    9.2563   -4.7385   25.5420 N   0  0  0  0  0  0  0  0  0  0  0  0
    8.1890   -0.7180   20.8700 N   0  0  0  0  0  0  0  0  0  0  0  0
    9.2690    1.4140   20.9380 O   0  0  0  0  0  0  0  0  0  0  0  0
   11.1104    5.1811   20.2787 Cl  0  0  0  0  0  0  0  0  0  0  0  0
    3.0136    2.6526   19.3908 H   0  0  0  0  0  0  0  0  0  0  0  0
    3.6480    2.0140   21.6821 H   0  0  0  0  0  0  0  0  0  0  0  0
   14.3292    2.3525   22.5663 H   0  0  0  0  0  0  0  0  0  0  0  0
   12.5932    1.0347   23.7344 H   0  0  0  0  0  0  0  0  0  0  0  0
    8.9214   -0.1986   25.4206 H   0  0  0  0  0  0  0  0  0  0  0  0
   10.0622   -2.2326   21.8251 H   0  0  0  0  0  0  0  0  0  0  0  0
    4.4042    1.9741   17.4524 H   0  0  0  0  0  0  0  0  0  0  0  0
    5.7089    0.6919   22.1150 H   0  0  0  0  0  0  0  0  0  0  0  0
    8.6882   -2.3542   26.5803 H   0  0  0  0  0  0  0  0  0  0  0  0
    9.9258   -4.3896   22.9914 H   0  0  0  0  0  0  0  0  0  0  0  0
   13.6873    4.1838   21.0401 H   0  0  0  0  0  0  0  0  0  0  0  0
    9.5289    3.3885   21.8449 H   0  0  0  0  0  0  0  0  0  0  0  0
    7.8484   -7.0905   27.4464 H   0  0  0  0  0  0  0  0  0  0  0  0
    6.3761   -6.1442   27.6721 H   0  0  0  0  0  0  0  0  0  0  0  0
    7.6308   -4.0428   27.6404 H   0  0  0  0  0  0  0  0  0  0  0  0
    8.3917   -5.1316   28.7967 H   0  0  0  0  0  0  0  0  0  0  0  0
    6.6889   -6.9376   25.3006 H   0  0  0  0  0  0  0  0  0  0  0  0
    6.5516   -5.1860   25.4256 H   0  0  0  0  0  0  0  0  0  0  0  0
   10.0494   -3.9643   27.3413 H   0  0  0  0  0  0  0  0  0  0  0  0
   10.1432   -5.7258   27.1775 H   0  0  0  0  0  0  0  0  0  0  0  0
    9.1338   -6.7931   25.0863 H   0  0  0  0  0  0  0  0  0  0  0  0
    8.3657   -5.7262   23.8995 H   0  0  0  0  0  0  0  0  0  0  0  0
   10.2886    1.0256   24.5508 H   0  0  0  0  0  0  0  0  0  0  0  0
    9.0288    1.9709   23.8044 H   0  0  0  0  0  0  0  0  0  0  0  0
   10.7829   -0.1040   22.4083 H   0  0  0  0  0  0  0  0  0  0  0  0
    8.2487   -1.5564   21.0972 H   0  0  0  0  0  0  0  0  0  0  0  0
  1  2  1  0  0  0  0
  1  7  2  0  0  0  0
  2  8  2  0  0  0  0
  3  4  2  0  0  0  0
  3 11  1  0  0  0  0
  4 14  1  0  0  0  0
  5  9  2  0  0  0  0
  5 13  1  0  0  0  0
  6 10  1  0  0  0  0
  6 13  2  0  0  0  0
  7 15  1  0  0  0  0
  8 16  1  0  0  0  0
  9 17  1  0  0  0  0
 10 17  2  0  0  0  0
 11 18  2  0  0  0  0
 12 14  2  0  0  0  0
 12 18  1  0  0  0  0
 13 26  1  0  0  0  0
 14 25  1  0  0  0  0
 15 16  2  0  0  0  0
 15 27  1  0  0  0  0
 16 29  1  0  0  0  0
 17 30  1  0  0  0  0
 18 33  1  0  0  0  0
 19 26  1  1  0  0  0
 19 31  1  0  0  0  0
 19 32  2  0  0  0  0
 20 21  1  0  0  0  0
 20 22  1  0  0  0  0
 21 23  1  0  0  0  0
 22 24  1  0  0  0  0
 23 30  1  0  0  0  0
 24 30  1  0  0  0  0
 25 26  1  0  0  0  0
 27 28  2  0  0  0  0
 28 29  1  0  0  0  0
 29 31  1  0  0  0  0
  1 34  1  0  0  0  0
  2 35  1  0  0  0  0
  3 36  1  0  0  0  0
  4 37  1  0  0  0  0
  5 38  1  0  0  0  0
  6 39  1  0  0  0  0
  7 40  1  0  0  0  0
  8 41  1  0  0  0  0
  9 42  1  0  0  0  0
 10 43  1  0  0  0  0
 11 44  1  0  0  0  0
 12 45  1  0  0  0  0
 20 46  1  0  0  0  0
 20 47  1  0  0  0  0
 21 48  1  0  0  0  0
 21 49  1  0  0  0  0
 22 50  1  0  0  0  0
 22 51  1  0  0  0  0
 23 52  1  0  0  0  0
 23 53  1  0  0  0  0
 24 54  1  0  0  0  0
 24 55  1  0  0  0  0
 25 56  1  0  0  0  0
 25 57  1  0  0  0  0
 26 58  1  0  0  0  0
 31 59  1  0  0  0  0
M  END
> <clash_score>
2.233875932539995

> <docking_score>
-7.910987854003906

> <overlap_score>
0.9679557085037231

$$$$
BENZO_181_1
  -OEChem-08222022173D

 47 50  0     1  0  0  0  0  0999 V2000
   14.1331    1.9885   23.4148 C   0  0  0  0  0  0  0  0  0  0  0  0
   13.2637    3.0696   23.5597 C   0  0  0  0  0  0  0  0  0  0  0  0
   13.6252    0.6927   23.3211 C   0  0  0  0  0  0  0  0  0  0  0  0
    3.9160    2.0630   19.5520 C   0  0  0  0  0  0  0  0  0  0  0  0
    4.2750    1.7050   20.8490 C   0  0  0  0  0  0  0  0  0  0  0  0
   11.8864    2.8549   23.6110 C   0  0  0  0  0  0  0  0  0  0  0  0
   12.2479    0.4781   23.3723 C   0  0  0  0  0  0  0  0  0  0  0  0
    8.9960   -2.3380   25.5320 C   0  0  0  0  0  0  0  0  0  0  0  0
    9.6730   -3.4710   23.5300 C   0  0  0  0  0  0  0  0  0  0  0  0
    9.0720   -1.1280   24.8640 C   0  0  0  0  0  0  0  0  0  0  0  0
    9.7200   -2.2600   22.8630 C   0  0  0  0  0  0  0  0  0  0  0  0
    4.6890    1.6810   18.4640 C   0  0  0  0  0  0  0  0  0  0  0  0
    5.4210    0.9600   21.0930 C   0  0  0  0  0  0  0  0  0  0  0  0
    9.3070   -3.5340   24.8780 C   0  0  0  0  0  0  0  0  0  0  0  0
   11.3785    1.5592   23.5173 C   0  0  0  0  0  0  0  0  0  0  0  0
    9.3350   -1.0880   23.5010 C   0  0  0  0  0  0  0  0  0  0  0  0
    5.8300    0.9190   18.6970 C   0  0  0  0  0  0  0  0  0  0  0  0
    6.1790    0.5730   19.9990 C   0  0  0  0  0  0  0  0  0  0  0  0
    9.0420    0.3700   21.5280 C   0  0  0  0  0  0  0  0  0  0  0  0
    9.2507   -4.8268   25.5895 C   0  0  0  0  0  0  0  0  0  0  0  0
    9.8870    1.3260   23.5730 C   0  0  0  0  0  0  0  0  0  0  0  0
    9.4560    0.1560   22.8130 C   0  0  1  0  0  0  0  0  0  0  0  0
    6.7580    0.3810   17.8350 N   0  0  0  0  0  0  0  0  0  0  0  0
    7.6390   -0.2680   18.5410 N   0  0  0  0  0  0  0  0  0  0  0  0
    7.3170   -0.1610   19.8550 N   0  0  0  0  0  0  0  0  0  0  0  0
    8.1890   -0.7180   20.8700 N   0  0  0  0  0  0  0  0  0  0  0  0
    9.2690    1.4140   20.9380 O   0  0  0  0  0  0  0  0  0  0  0  0
   15.2054    2.1559   23.3735 H   0  0  0  0  0  0  0  0  0  0  0  0
   13.6589    4.0787   23.6315 H   0  0  0  0  0  0  0  0  0  0  0  0
   14.3017   -0.1491   23.2071 H   0  0  0  0  0  0  0  0  0  0  0  0
    3.0136    2.6526   19.3908 H   0  0  0  0  0  0  0  0  0  0  0  0
    3.6480    2.0140   21.6821 H   0  0  0  0  0  0  0  0  0  0  0  0
   11.2166    3.7033   23.7242 H   0  0  0  0  0  0  0  0  0  0  0  0
   11.8612   -0.5349   23.2987 H   0  0  0  0  0  0  0  0  0  0  0  0
    8.6904   -2.3557   26.5808 H   0  0  0  0  0  0  0  0  0  0  0  0
    9.9249   -4.3911   22.9935 H   0  0  0  0  0  0  0  0  0  0  0  0
    8.9209   -0.1987   25.4207 H   0  0  0  0  0  0  0  0  0  0  0  0
   10.0640   -2.2315   21.8255 H   0  0  0  0  0  0  0  0  0  0  0  0
    4.4042    1.9741   17.4524 H   0  0  0  0  0  0  0  0  0  0  0  0
    5.7089    0.6919   22.1150 H   0  0  0  0  0  0  0  0  0  0  0  0
    8.2506   -5.2684   25.5009 H   0  0  0  0  0  0  0  0  0  0  0  0
    9.9820   -5.5375   25.1832 H   0  0  0  0  0  0  0  0  0  0  0  0
    9.4843   -4.7055   26.6554 H   0  0  0  0  0  0  0  0  0  0  0  0
    9.6026    1.2057   24.6276 H   0  0  0  0  0  0  0  0  0  0  0  0
    9.3596    2.2290   23.2378 H   0  0  0  0  0  0  0  0  0  0  0  0
    8.0683    0.4897   23.2524 H   0  0  0  0  0  0  0  0  0  0  0  0
    8.2712   -1.5583   21.1209 H   0  0  0  0  0  0  0  0  0  0  0  0
  1  2  1  0  0  0  0
  1  3  2  0  0  0  0
  2  6  2  0  0  0  0
  3  7  1  0  0  0  0
  4  5  1  0  0  0  0
  4 12  2  0  0  0  0
  5 13  2  0  0  0  0
  6 15  1  0  0  0  0
  7 15  2  0  0  0  0
  8 10  2  0  0  0  0
  8 14  1  0  0  0  0
  9 11  1  0  0  0  0
  9 14  2  0  0  0  0
 10 16  1  0  0  0  0
 11 16  2  0  0  0  0
 12 17  1  0  0  0  0
 13 18  1  0  0  0  0
 14 20  1  0  0  0  0
 15 21  1  0  0  0  0
 16 22  1  0  0  0  0
 17 18  2  0  0  0  0
 17 23  1  0  0  0  0
 18 25  1  0  0  0  0
 19 22  1  0  0  0  0
 19 26  1  0  0  0  0
 19 27  2  0  0  0  0
 21 22  1  1  0  0  0
 23 24  2  0  0  0  0
 24 25  1  0  0  0  0
 25 26  1  0  0  0  0
  1 28  1  0  0  0  0
  2 29  1  0  0  0  0
  3 30  1  0  0  0  0
  4 31  1  0  0  0  0
  5 32  1  0  0  0  0
  6 33  1  0  0  0  0
  7 34  1  0  0  0  0
  8 35  1  0  0  0  0
  9 36  1  0  0  0  0
 10 37  1  0  0  0  0
 11 38  1  0  0  0  0
 12 39  1  0  0  0  0
 13 40  1  0  0  0  0
 20 41  1  0  0  0  0
 20 42  1  0  0  0  0
 20 43  1  0  0  0  0
 21 44  1  0  0  0  0
 21 45  1  0  0  0  0
 22 46  1  0  0  0  0
 26 47  1  0  0  0  0
M  END
> <clash_score>
0

> <docking_score>
-8.864391326904297

> <overlap_score>
0.9596473574638367

$$$$
BENZO_180_1
  -OEChem-08222022173D

 44 47  0     1  0  0  0  0  0999 V2000
    3.9160    2.0630   19.5520 C   0  0  0  0  0  0  0  0  0  0  0  0
    4.2750    1.7050   20.8490 C   0  0  0  0  0  0  0  0  0  0  0  0
    8.9960   -2.3380   25.5320 C   0  0  0  0  0  0  0  0  0  0  0  0
    9.6730   -3.4710   23.5300 C   0  0  0  0  0  0  0  0  0  0  0  0
    9.0720   -1.1280   24.8640 C   0  0  0  0  0  0  0  0  0  0  0  0
    9.7200   -2.2600   22.8630 C   0  0  0  0  0  0  0  0  0  0  0  0
    4.6890    1.6810   18.4640 C   0  0  0  0  0  0  0  0  0  0  0  0
    5.4210    0.9600   21.0930 C   0  0  0  0  0  0  0  0  0  0  0  0
   12.3421    0.5158   23.4032 C   0  0  0  0  0  0  0  0  0  0  0  0
   13.6305    1.0023   23.3744 C   0  0  0  0  0  0  0  0  0  0  0  0
   11.9672    2.8035   23.5716 C   0  0  0  0  0  0  0  0  0  0  0  0
    9.3070   -3.5340   24.8780 C   0  0  0  0  0  0  0  0  0  0  0  0
    9.3350   -1.0880   23.5010 C   0  0  0  0  0  0  0  0  0  0  0  0
   11.3785    1.5592   23.5173 C   0  0  0  0  0  0  0  0  0  0  0  0
    5.8300    0.9190   18.6970 C   0  0  0  0  0  0  0  0  0  0  0  0
    6.1790    0.5730   19.9990 C   0  0  0  0  0  0  0  0  0  0  0  0
    9.0420    0.3700   21.5280 C   0  0  0  0  0  0  0  0  0  0  0  0
    9.2507   -4.8268   25.5895 C   0  0  0  0  0  0  0  0  0  0  0  0
    9.8870    1.3260   23.5730 C   0  0  0  0  0  0  0  0  0  0  0  0
    9.4560    0.1560   22.8130 C   0  0  1  0  0  0  0  0  0  0  0  0
    6.7580    0.3810   17.8350 N   0  0  0  0  0  0  0  0  0  0  0  0
    7.6390   -0.2680   18.5410 N   0  0  0  0  0  0  0  0  0  0  0  0
    7.3170   -0.1610   19.8550 N   0  0  0  0  0  0  0  0  0  0  0  0
    8.1890   -0.7180   20.8700 N   0  0  0  0  0  0  0  0  0  0  0  0
    9.2690    1.4140   20.9380 O   0  0  0  0  0  0  0  0  0  0  0  0
   13.6749    2.7106   23.4848 S   0  0  0  0  0  0  0  0  0  0  0  0
    3.0136    2.6526   19.3908 H   0  0  0  0  0  0  0  0  0  0  0  0
    3.6480    2.0140   21.6821 H   0  0  0  0  0  0  0  0  0  0  0  0
    8.6904   -2.3557   26.5808 H   0  0  0  0  0  0  0  0  0  0  0  0
    9.9249   -4.3911   22.9935 H   0  0  0  0  0  0  0  0  0  0  0  0
    8.9209   -0.1987   25.4207 H   0  0  0  0  0  0  0  0  0  0  0  0
   10.0640   -2.2315   21.8255 H   0  0  0  0  0  0  0  0  0  0  0  0
    4.4042    1.9741   17.4524 H   0  0  0  0  0  0  0  0  0  0  0  0
    5.7089    0.6919   22.1150 H   0  0  0  0  0  0  0  0  0  0  0  0
   12.1065   -0.5394   23.3454 H   0  0  0  0  0  0  0  0  0  0  0  0
   14.5479    0.4364   23.2946 H   0  0  0  0  0  0  0  0  0  0  0  0
   11.4802    3.7648   23.6592 H   0  0  0  0  0  0  0  0  0  0  0  0
    8.2506   -5.2684   25.5009 H   0  0  0  0  0  0  0  0  0  0  0  0
    9.9820   -5.5375   25.1832 H   0  0  0  0  0  0  0  0  0  0  0  0
    9.4843   -4.7055   26.6554 H   0  0  0  0  0  0  0  0  0  0  0  0
    9.6026    1.2057   24.6276 H   0  0  0  0  0  0  0  0  0  0  0  0
    9.3596    2.2290   23.2378 H   0  0  0  0  0  0  0  0  0  0  0  0
    8.0683    0.4897   23.2524 H   0  0  0  0  0  0  0  0  0  0  0  0
    8.2712   -1.5583   21.1209 H   0  0  0  0  0  0  0  0  0  0  0  0
  1  2  1  0  0  0  0
  1  7  2  0  0  0  0
  2  8  2  0  0  0  0
  3  5  2  0  0  0  0
  3 12  1  0  0  0  0
  4  6  1  0  0  0  0
  4 12  2  0  0  0  0
  5 13  1  0  0  0  0
  6 13  2  0  0  0  0
  7 15  1  0  0  0  0
  8 16  1  0  0  0  0
  9 10  2  0  0  0  0
  9 14  1  0  0  0  0
 10 26  1  0  0  0  0
 11 14  2  0  0  0  0
 11 26  1  0  0  0  0
 12 18  1  0  0  0  0
 13 20  1  0  0  0  0
 14 19  1  0  0  0  0
 15 16  2  0  0  0  0
 15 21  1  0  0  0  0
 16 23  1  0  0  0  0
 17 20  1  0  0  0  0
 17 24  1  0  0  0  0
 17 25  2  0  0  0  0
 19 20  1  1  0  0  0
 21 22  2  0  0  0  0
 22 23  1  0  0  0  0
 23 24  1  0  0  0  0
  1 27  1  0  0  0  0
  2 28  1  0  0  0  0
  3 29  1  0  0  0  0
  4 30  1  0  0  0  0
  5 31  1  0  0  0  0
  6 32  1  0  0  0  0
  7 33  1  0  0  0  0
  8 34  1  0  0  0  0
  9 35  1  0  0  0  0
 10 36  1  0  0  0  0
 11 37  1  0  0  0  0
 18 38  1  0  0  0  0
 18 39  1  0  0  0  0
 18 40  1  0  0  0  0
 19 41  1  0  0  0  0
 19 42  1  0  0  0  0
 20 43  1  0  0  0  0
 24 44  1  0  0  0  0
M  END
> <clash_score>
0

> <docking_score>
-9.343849182128906

> <overlap_score>
0.9437735676765442

$$$$
BENZO_178_2
  -OEChem-08222022173D

 59 63  0     1  0  0  0  0  0999 V2000
    3.9160    2.0630   19.5520 C   0  0  0  0  0  0  0  0  0  0  0  0
    4.2750    1.7050   20.8490 C   0  0  0  0  0  0  0  0  0  0  0  0
   13.6195    0.6627   23.3152 C   0  0  0  0  0  0  0  0  0  0  0  0
   12.2407    0.4591   23.3700 C   0  0  0  0  0  0  0  0  0  0  0  0
    9.0720   -1.1280   24.8640 C   0  0  0  0  0  0  0  0  0  0  0  0
    9.7200   -2.2600   22.8630 C   0  0  0  0  0  0  0  0  0  0  0  0
    4.6890    1.6810   18.4640 C   0  0  0  0  0  0  0  0  0  0  0  0
    5.4210    0.9600   21.0930 C   0  0  0  0  0  0  0  0  0  0  0  0
    8.9960   -2.3380   25.5320 C   0  0  0  0  0  0  0  0  0  0  0  0
    9.6730   -3.4710   23.5300 C   0  0  0  0  0  0  0  0  0  0  0  0
   14.1378    1.9546   23.4055 C   0  0  0  0  0  0  0  0  0  0  0  0
   11.8985    2.8391   23.6052 C   0  0  0  0  0  0  0  0  0  0  0  0
    9.3350   -1.0880   23.5010 C   0  0  0  0  0  0  0  0  0  0  0  0
   11.3802    1.5472   23.5150 C   0  0  0  0  0  0  0  0  0  0  0  0
    5.8300    0.9190   18.6970 C   0  0  0  0  0  0  0  0  0  0  0  0
    6.1790    0.5730   19.9990 C   0  0  0  0  0  0  0  0  0  0  0  0
    9.3070   -3.5340   24.8780 C   0  0  0  0  0  0  0  0  0  0  0  0
   13.2773    3.0428   23.5504 C   0  0  0  0  0  0  0  0  0  0  0  0
    9.0420    0.3700   21.5280 C   0  0  0  0  0  0  0  0  0  0  0  0
    7.3637   -6.1365   27.1885 C   0  0  0  0  0  0  0  0  0  0  0  0
    8.1962   -4.9739   27.7340 C   0  0  0  0  0  0  0  0  0  0  0  0
    7.1943   -6.0395   25.6706 C   0  0  0  0  0  0  0  0  0  0  0  0
    9.5197   -4.8493   26.9795 C   0  0  0  0  0  0  0  0  0  0  0  0
    8.5443   -5.8838   24.9636 C   0  0  0  0  0  0  0  0  0  0  0  0
    9.8870    1.3260   23.5730 C   0  0  0  0  0  0  0  0  0  0  0  0
    9.4560    0.1560   22.8130 C   0  0  2  0  0  0  0  0  0  0  0  0
    6.7580    0.3810   17.8350 N   0  0  0  0  0  0  0  0  0  0  0  0
    7.6390   -0.2680   18.5410 N   0  0  0  0  0  0  0  0  0  0  0  0
    7.3170   -0.1610   19.8550 N   0  0  0  0  0  0  0  0  0  0  0  0
    9.2563   -4.7385   25.5420 N   0  0  0  0  0  0  0  0  0  0  0  0
    8.1890   -0.7180   20.8700 N   0  0  0  0  0  0  0  0  0  0  0  0
    9.2690    1.4140   20.9380 O   0  0  0  0  0  0  0  0  0  0  0  0
   13.9173    4.6365   23.6606 Cl  0  0  0  0  0  0  0  0  0  0  0  0
    3.0136    2.6526   19.3908 H   0  0  0  0  0  0  0  0  0  0  0  0
    3.6481    2.0140   21.6821 H   0  0  0  0  0  0  0  0  0  0  0  0
   14.2892   -0.1849   23.2021 H   0  0  0  0  0  0  0  0  0  0  0  0
   11.8456   -0.5510   23.2987 H   0  0  0  0  0  0  0  0  0  0  0  0
    8.9214   -0.1986   25.4206 H   0  0  0  0  0  0  0  0  0  0  0  0
   10.0622   -2.2326   21.8251 H   0  0  0  0  0  0  0  0  0  0  0  0
    4.4042    1.9741   17.4524 H   0  0  0  0  0  0  0  0  0  0  0  0
    5.7089    0.6919   22.1150 H   0  0  0  0  0  0  0  0  0  0  0  0
    8.6882   -2.3542   26.5803 H   0  0  0  0  0  0  0  0  0  0  0  0
    9.9258   -4.3896   22.9914 H   0  0  0  0  0  0  0  0  0  0  0  0
   15.2146    2.0984   23.3610 H   0  0  0  0  0  0  0  0  0  0  0  0
   11.2234    3.6842   23.7187 H   0  0  0  0  0  0  0  0  0  0  0  0
    7.8484   -7.0905   27.4464 H   0  0  0  0  0  0  0  0  0  0  0  0
    6.3761   -6.1442   27.6721 H   0  0  0  0  0  0  0  0  0  0  0  0
    7.6308   -4.0428   27.6404 H   0  0  0  0  0  0  0  0  0  0  0  0
    8.3917   -5.1316   28.7967 H   0  0  0  0  0  0  0  0  0  0  0  0
    6.6889   -6.9376   25.3006 H   0  0  0  0  0  0  0  0  0  0  0  0
    6.5516   -5.1860   25.4256 H   0  0  0  0  0  0  0  0  0  0  0  0
   10.0494   -3.9643   27.3413 H   0  0  0  0  0  0  0  0  0  0  0  0
   10.1432   -5.7258   27.1775 H   0  0  0  0  0  0  0  0  0  0  0  0
    9.1338   -6.7931   25.0863 H   0  0  0  0  0  0  0  0  0  0  0  0
    8.3657   -5.7262   23.8995 H   0  0  0  0  0  0  0  0  0  0  0  0
    9.6004    1.2281   24.6293 H   0  0  0  0  0  0  0  0  0  0  0  0
    9.3666    2.2262   23.2198 H   0  0  0  0  0  0  0  0  0  0  0  0
    8.0666    0.4961   23.2504 H   0  0  0  0  0  0  0  0  0  0  0  0
    8.2487   -1.5564   21.0972 H   0  0  0  0  0  0  0  0  0  0  0  0
  1  2  1  0  0  0  0
  1  7  2  0  0  0  0
  2  8  2  0  0  0  0
  3  4  2  0  0  0  0
  3 11  1  0  0  0  0
  4 14  1  0  0  0  0
  5  9  2  0  0  0  0
  5 13  1  0  0  0  0
  6 10  1  0  0  0  0
  6 13  2  0  0  0  0
  7 15  1  0  0  0  0
  8 16  1  0  0  0  0
  9 17  1  0  0  0  0
 10 17  2  0  0  0  0
 11 18  2  0  0  0  0
 12 14  2  0  0  0  0
 12 18  1  0  0  0  0
 13 26  1  0  0  0  0
 14 25  1  0  0  0  0
 15 16  2  0  0  0  0
 15 27  1  0  0  0  0
 16 29  1  0  0  0  0
 17 30  1  0  0  0  0
 18 33  1  0  0  0  0
 19 26  1  6  0  0  0
 19 31  1  0  0  0  0
 19 32  2  0  0  0  0
 20 21  1  0  0  0  0
 20 22  1  0  0  0  0
 21 23  1  0  0  0  0
 22 24  1  0  0  0  0
 23 30  1  0  0  0  0
 24 30  1  0  0  0  0
 25 26  1  0  0  0  0
 27 28  2  0  0  0  0
 28 29  1  0  0  0  0
 29 31  1  0  0  0  0
  1 34  1  0  0  0  0
  2 35  1  0  0  0  0
  3 36  1  0  0  0  0
  4 37  1  0  0  0  0
  5 38  1  0  0  0  0
  6 39  1  0  0  0  0
  7 40  1  0  0  0  0
  8 41  1  0  0  0  0
  9 42  1  0  0  0  0
 10 43  1  0  0  0  0
 11 44  1  0  0  0  0
 12 45  1  0  0  0  0
 20 46  1  0  0  0  0
 20 47  1  0  0  0  0
 21 48  1  0  0  0  0
 21 49  1  0  0  0  0
 22 50  1  0  0  0  0
 22 51  1  0  0  0  0
 23 52  1  0  0  0  0
 23 53  1  0  0  0  0
 24 54  1  0  0  0  0
 24 55  1  0  0  0  0
 25 56  1  0  0  0  0
 25 57  1  0  0  0  0
 26 58  1  0  0  0  0
 31 59  1  0  0  0  0
M  END
> <clash_score>
0

> <docking_score>
-8.241703033447266

> <overlap_score>
1.0153130292892456

$$$$
BENZO_180_2
  -OEChem-08222022173D

 44 47  0     1  0  0  0  0  0999 V2000
    3.9160    2.0630   19.5520 C   0  0  0  0  0  0  0  0  0  0  0  0
    4.2750    1.7050   20.8490 C   0  0  0  0  0  0  0  0  0  0  0  0
    8.9960   -2.3380   25.5320 C   0  0  0  0  0  0  0  0  0  0  0  0
    9.6730   -3.4710   23.5300 C   0  0  0  0  0  0  0  0  0  0  0  0
    9.0720   -1.1280   24.8640 C   0  0  0  0  0  0  0  0  0  0  0  0
    9.7200   -2.2600   22.8630 C   0  0  0  0  0  0  0  0  0  0  0  0
    4.6890    1.6810   18.4640 C   0  0  0  0  0  0  0  0  0  0  0  0
    5.4210    0.9600   21.0930 C   0  0  0  0  0  0  0  0  0  0  0  0
   12.4120    0.7557   23.6805 C   0  0  0  0  0  0  0  0  0  0  0  0
   13.4422    0.6233   24.5853 C   0  0  0  0  0  0  0  0  0  0  0  0
   11.3266    1.2397   25.6779 C   0  0  0  0  0  0  0  0  0  0  0  0
    9.3070   -3.5340   24.8780 C   0  0  0  0  0  0  0  0  0  0  0  0
    9.3350   -1.0880   23.5010 C   0  0  0  0  0  0  0  0  0  0  0  0
   11.1864    1.1129   24.3133 C   0  0  0  0  0  0  0  0  0  0  0  0
    5.8300    0.9190   18.6970 C   0  0  0  0  0  0  0  0  0  0  0  0
    6.1790    0.5730   19.9990 C   0  0  0  0  0  0  0  0  0  0  0  0
    9.0420    0.3700   21.5280 C   0  0  0  0  0  0  0  0  0  0  0  0
    9.2507   -4.8268   25.5895 C   0  0  0  0  0  0  0  0  0  0  0  0
    9.8870    1.3260   23.5730 C   0  0  0  0  0  0  0  0  0  0  0  0
    9.4560    0.1560   22.8130 C   0  0  2  0  0  0  0  0  0  0  0  0
    6.7580    0.3810   17.8350 N   0  0  0  0  0  0  0  0  0  0  0  0
    7.6390   -0.2680   18.5410 N   0  0  0  0  0  0  0  0  0  0  0  0
    7.3170   -0.1610   19.8550 N   0  0  0  0  0  0  0  0  0  0  0  0
    8.1890   -0.7180   20.8700 N   0  0  0  0  0  0  0  0  0  0  0  0
    9.2690    1.4140   20.9380 O   0  0  0  0  0  0  0  0  0  0  0  0
   12.9305    0.9290   26.1907 S   0  0  0  0  0  0  0  0  0  0  0  0
    3.0136    2.6526   19.3908 H   0  0  0  0  0  0  0  0  0  0  0  0
    3.6480    2.0140   21.6821 H   0  0  0  0  0  0  0  0  0  0  0  0
    8.6904   -2.3557   26.5808 H   0  0  0  0  0  0  0  0  0  0  0  0
    9.9249   -4.3911   22.9935 H   0  0  0  0  0  0  0  0  0  0  0  0
    8.9209   -0.1987   25.4207 H   0  0  0  0  0  0  0  0  0  0  0  0
   10.0640   -2.2315   21.8255 H   0  0  0  0  0  0  0  0  0  0  0  0
    4.4042    1.9741   17.4524 H   0  0  0  0  0  0  0  0  0  0  0  0
    5.7089    0.6919   22.1150 H   0  0  0  0  0  0  0  0  0  0  0  0
   12.5361    0.6022   22.6159 H   0  0  0  0  0  0  0  0  0  0  0  0
   14.4706    0.3610   24.3807 H   0  0  0  0  0  0  0  0  0  0  0  0
   10.5663    1.4985   26.4019 H   0  0  0  0  0  0  0  0  0  0  0  0
    8.2506   -5.2684   25.5009 H   0  0  0  0  0  0  0  0  0  0  0  0
    9.9820   -5.5375   25.1832 H   0  0  0  0  0  0  0  0  0  0  0  0
    9.4843   -4.7055   26.6554 H   0  0  0  0  0  0  0  0  0  0  0  0
    9.1168    1.5904   24.3109 H   0  0  0  0  0  0  0  0  0  0  0  0
    9.9726    2.2073   22.9235 H   0  0  0  0  0  0  0  0  0  0  0  0
   10.7792   -0.1072   22.4110 H   0  0  0  0  0  0  0  0  0  0  0  0
    8.2712   -1.5583   21.1209 H   0  0  0  0  0  0  0  0  0  0  0  0
  1  2  1  0  0  0  0
  1  7  2  0  0  0  0
  2  8  2  0  0  0  0
  3  5  2  0  0  0  0
  3 12  1  0  0  0  0
  4  6  1  0  0  0  0
  4 12  2  0  0  0  0
  5 13  1  0  0  0  0
  6 13  2  0  0  0  0
  7 15  1  0  0  0  0
  8 16  1  0  0  0  0
  9 10  2  0  0  0  0
  9 14  1  0  0  0  0
 10 26  1  0  0  0  0
 11 14  2  0  0  0  0
 11 26  1  0  0  0  0
 12 18  1  0  0  0  0
 13 20  1  0  0  0  0
 14 19  1  0  0  0  0
 15 16  2  0  0  0  0
 15 21  1  0  0  0  0
 16 23  1  0  0  0  0
 17 20  1  0  0  0  0
 17 24  1  0  0  0  0
 17 25  2  0  0  0  0
 19 20  1  6  0  0  0
 21 22  2  0  0  0  0
 22 23  1  0  0  0  0
 23 24  1  0  0  0  0
  1 27  1  0  0  0  0
  2 28  1  0  0  0  0
  3 29  1  0  0  0  0
  4 30  1  0  0  0  0
  5 31  1  0  0  0  0
  6 32  1  0  0  0  0
  7 33  1  0  0  0  0
  8 34  1  0  0  0  0
  9 35  1  0  0  0  0
 10 36  1  0  0  0  0
 11 37  1  0  0  0  0
 18 38  1  0  0  0  0
 18 39  1  0  0  0  0
 18 40  1  0  0  0  0
 19 41  1  0  0  0  0
 19 42  1  0  0  0  0
 20 43  1  0  0  0  0
 24 44  1  0  0  0  0
M  END
> <clash_score>
0.6256197707787204

> <docking_score>
-7.4375152587890625

> <overlap_score>
0.8700388669967651

$$$$
BENZO_181_2
  -OEChem-08222022173D

 47 50  0     1  0  0  0  0  0999 V2000
   12.9175    3.6318   21.5749 C   0  0  0  0  0  0  0  0  0  0  0  0
   13.2831    2.5951   22.4336 C   0  0  0  0  0  0  0  0  0  0  0  0
   11.5692    3.9205   21.3646 C   0  0  0  0  0  0  0  0  0  0  0  0
    3.9160    2.0630   19.5520 C   0  0  0  0  0  0  0  0  0  0  0  0
    4.2750    1.7050   20.8490 C   0  0  0  0  0  0  0  0  0  0  0  0
   12.3003    1.8471   23.0818 C   0  0  0  0  0  0  0  0  0  0  0  0
   10.5864    3.1725   22.0128 C   0  0  0  0  0  0  0  0  0  0  0  0
    8.9960   -2.3380   25.5320 C   0  0  0  0  0  0  0  0  0  0  0  0
    9.6730   -3.4710   23.5300 C   0  0  0  0  0  0  0  0  0  0  0  0
    9.0720   -1.1280   24.8640 C   0  0  0  0  0  0  0  0  0  0  0  0
    9.7200   -2.2600   22.8630 C   0  0  0  0  0  0  0  0  0  0  0  0
    4.6890    1.6810   18.4640 C   0  0  0  0  0  0  0  0  0  0  0  0
    5.4210    0.9600   21.0930 C   0  0  0  0  0  0  0  0  0  0  0  0
    9.3070   -3.5340   24.8780 C   0  0  0  0  0  0  0  0  0  0  0  0
   10.9519    2.1358   22.8715 C   0  0  0  0  0  0  0  0  0  0  0  0
    9.3350   -1.0880   23.5010 C   0  0  0  0  0  0  0  0  0  0  0  0
    5.8300    0.9190   18.6970 C   0  0  0  0  0  0  0  0  0  0  0  0
    6.1790    0.5730   19.9990 C   0  0  0  0  0  0  0  0  0  0  0  0
    9.0420    0.3700   21.5280 C   0  0  0  0  0  0  0  0  0  0  0  0
    9.2507   -4.8268   25.5895 C   0  0  0  0  0  0  0  0  0  0  0  0
    9.8870    1.3260   23.5730 C   0  0  0  0  0  0  0  0  0  0  0  0
    9.4560    0.1560   22.8130 C   0  0  2  0  0  0  0  0  0  0  0  0
    6.7580    0.3810   17.8350 N   0  0  0  0  0  0  0  0  0  0  0  0
    7.6390   -0.2680   18.5410 N   0  0  0  0  0  0  0  0  0  0  0  0
    7.3170   -0.1610   19.8550 N   0  0  0  0  0  0  0  0  0  0  0  0
    8.1890   -0.7180   20.8700 N   0  0  0  0  0  0  0  0  0  0  0  0
    9.2690    1.4140   20.9380 O   0  0  0  0  0  0  0  0  0  0  0  0
   13.6830    4.2150   21.0713 H   0  0  0  0  0  0  0  0  0  0  0  0
   14.3329    2.3708   22.5984 H   0  0  0  0  0  0  0  0  0  0  0  0
   11.2842    4.7283   20.6970 H   0  0  0  0  0  0  0  0  0  0  0  0
    3.0136    2.6526   19.3908 H   0  0  0  0  0  0  0  0  0  0  0  0
    3.6480    2.0140   21.6821 H   0  0  0  0  0  0  0  0  0  0  0  0
   12.5944    1.0411   23.7490 H   0  0  0  0  0  0  0  0  0  0  0  0
    9.5383    3.4046   21.8428 H   0  0  0  0  0  0  0  0  0  0  0  0
    8.6904   -2.3557   26.5808 H   0  0  0  0  0  0  0  0  0  0  0  0
    9.9249   -4.3911   22.9935 H   0  0  0  0  0  0  0  0  0  0  0  0
    8.9209   -0.1987   25.4207 H   0  0  0  0  0  0  0  0  0  0  0  0
   10.0640   -2.2315   21.8255 H   0  0  0  0  0  0  0  0  0  0  0  0
    4.4042    1.9741   17.4524 H   0  0  0  0  0  0  0  0  0  0  0  0
    5.7089    0.6919   22.1150 H   0  0  0  0  0  0  0  0  0  0  0  0
    8.2506   -5.2684   25.5009 H   0  0  0  0  0  0  0  0  0  0  0  0
    9.9820   -5.5375   25.1832 H   0  0  0  0  0  0  0  0  0  0  0  0
    9.4843   -4.7055   26.6554 H   0  0  0  0  0  0  0  0  0  0  0  0
   10.2899    1.0067   24.5442 H   0  0  0  0  0  0  0  0  0  0  0  0
    9.0336    1.9722   23.8180 H   0  0  0  0  0  0  0  0  0  0  0  0
   10.7792   -0.1072   22.4110 H   0  0  0  0  0  0  0  0  0  0  0  0
    8.2712   -1.5583   21.1209 H   0  0  0  0  0  0  0  0  0  0  0  0
  1  2  1  0  0  0  0
  1  3  2  0  0  0  0
  2  6  2  0  0  0  0
  3  7  1  0  0  0  0
  4  5  1  0  0  0  0
  4 12  2  0  0  0  0
  5 13  2  0  0  0  0
  6 15  1  0  0  0  0
  7 15  2  0  0  0  0
  8 10  2  0  0  0  0
  8 14  1  0  0  0  0
  9 11  1  0  0  0  0
  9 14  2  0  0  0  0
 10 16  1  0  0  0  0
 11 16  2  0  0  0  0
 12 17  1  0  0  0  0
 13 18  1  0  0  0  0
 14 20  1  0  0  0  0
 15 21  1  0  0  0  0
 16 22  1  0  0  0  0
 17 18  2  0  0  0  0
 17 23  1  0  0  0  0
 18 25  1  0  0  0  0
 19 22  1  0  0  0  0
 19 26  1  0  0  0  0
 19 27  2  0  0  0  0
 21 22  1  6  0  0  0
 23 24  2  0  0  0  0
 24 25  1  0  0  0  0
 25 26  1  0  0  0  0
  1 28  1  0  0  0  0
  2 29  1  0  0  0  0
  3 30  1  0  0  0  0
  4 31  1  0  0  0  0
  5 32  1  0  0  0  0
  6 33  1  0  0  0  0
  7 34  1  0  0  0  0
  8 35  1  0  0  0  0
  9 36  1  0  0  0  0
 10 37  1  0  0  0  0
 11 38  1  0  0  0  0
 12 39  1  0  0  0  0
 13 40  1  0  0  0  0
 20 41  1  0  0  0  0
 20 42  1  0  0  0  0
 20 43  1  0  0  0  0
 21 44  1  0  0  0  0
 21 45  1  0  0  0  0
 22 46  1  0  0  0  0
 26 47  1  0  0  0  0
M  END
> <clash_score>
0.6231716091146392

> <docking_score>
-8.909343719482422

> <overlap_score>
0.9159377813339233

$$$$
BENZO_179_2
  -OEChem-08222022173D

 59 63  0     1  0  0  0  0  0999 V2000
    3.9160    2.0630   19.5520 C   0  0  0  0  0  0  0  0  0  0  0  0
    4.2750    1.7050   20.8490 C   0  0  0  0  0  0  0  0  0  0  0  0
    9.0720   -1.1280   24.8640 C   0  0  0  0  0  0  0  0  0  0  0  0
    9.7200   -2.2600   22.8630 C   0  0  0  0  0  0  0  0  0  0  0  0
    4.6890    1.6810   18.4640 C   0  0  0  0  0  0  0  0  0  0  0  0
    5.4210    0.9600   21.0930 C   0  0  0  0  0  0  0  0  0  0  0  0
    8.9960   -2.3380   25.5320 C   0  0  0  0  0  0  0  0  0  0  0  0
    9.6730   -3.4710   23.5300 C   0  0  0  0  0  0  0  0  0  0  0  0
   12.3465    1.9794   22.9425 C   0  0  0  0  0  0  0  0  0  0  0  0
   10.7668    3.1736   21.9866 C   0  0  0  0  0  0  0  0  0  0  0  0
    9.3350   -1.0880   23.5010 C   0  0  0  0  0  0  0  0  0  0  0  0
   10.9492    2.1306   22.8614 C   0  0  0  0  0  0  0  0  0  0  0  0
    5.8300    0.9190   18.6970 C   0  0  0  0  0  0  0  0  0  0  0  0
    6.1790    0.5730   19.9990 C   0  0  0  0  0  0  0  0  0  0  0  0
    9.3070   -3.5340   24.8780 C   0  0  0  0  0  0  0  0  0  0  0  0
    9.0420    0.3700   21.5280 C   0  0  0  0  0  0  0  0  0  0  0  0
    7.3637   -6.1365   27.1885 C   0  0  0  0  0  0  0  0  0  0  0  0
    8.1962   -4.9739   27.7340 C   0  0  0  0  0  0  0  0  0  0  0  0
    7.1943   -6.0395   25.6706 C   0  0  0  0  0  0  0  0  0  0  0  0
    9.5197   -4.8493   26.9795 C   0  0  0  0  0  0  0  0  0  0  0  0
    8.5443   -5.8838   24.9636 C   0  0  0  0  0  0  0  0  0  0  0  0
   12.3392    4.6377   20.6971 C   0  0  0  0  0  0  0  0  0  0  0  0
    9.8870    1.3260   23.5730 C   0  0  0  0  0  0  0  0  0  0  0  0
    9.4560    0.1560   22.8130 C   0  0  2  0  0  0  0  0  0  0  0  0
   13.0051    2.8562   22.1799 N   0  0  0  0  0  0  0  0  0  0  0  0
    6.7580    0.3810   17.8350 N   0  0  0  0  0  0  0  0  0  0  0  0
    7.6390   -0.2680   18.5410 N   0  0  0  0  0  0  0  0  0  0  0  0
   12.0173    3.5683   21.6113 N   0  0  0  0  0  0  0  0  0  0  0  0
    7.3170   -0.1610   19.8550 N   0  0  0  0  0  0  0  0  0  0  0  0
    9.2563   -4.7385   25.5420 N   0  0  0  0  0  0  0  0  0  0  0  0
    8.1890   -0.7180   20.8700 N   0  0  0  0  0  0  0  0  0  0  0  0
    9.2690    1.4140   20.9380 O   0  0  0  0  0  0  0  0  0  0  0  0
    3.0136    2.6526   19.3908 H   0  0  0  0  0  0  0  0  0  0  0  0
    3.6480    2.0140   21.6821 H   0  0  0  0  0  0  0  0  0  0  0  0
    8.9214   -0.1986   25.4206 H   0  0  0  0  0  0  0  0  0  0  0  0
   10.0622   -2.2326   21.8251 H   0  0  0  0  0  0  0  0  0  0  0  0
    4.4042    1.9741   17.4524 H   0  0  0  0  0  0  0  0  0  0  0  0
    5.7089    0.6919   22.1150 H   0  0  0  0  0  0  0  0  0  0  0  0
    8.6882   -2.3542   26.5803 H   0  0  0  0  0  0  0  0  0  0  0  0
    9.9258   -4.3896   22.9914 H   0  0  0  0  0  0  0  0  0  0  0  0
   12.9145    1.2672   23.5241 H   0  0  0  0  0  0  0  0  0  0  0  0
    9.8759    3.6558   21.6076 H   0  0  0  0  0  0  0  0  0  0  0  0
    7.8484   -7.0905   27.4464 H   0  0  0  0  0  0  0  0  0  0  0  0
    6.3761   -6.1442   27.6721 H   0  0  0  0  0  0  0  0  0  0  0  0
    7.6308   -4.0428   27.6404 H   0  0  0  0  0  0  0  0  0  0  0  0
    8.3917   -5.1316   28.7967 H   0  0  0  0  0  0  0  0  0  0  0  0
    6.6889   -6.9376   25.3006 H   0  0  0  0  0  0  0  0  0  0  0  0
    6.5516   -5.1860   25.4256 H   0  0  0  0  0  0  0  0  0  0  0  0
   10.0494   -3.9643   27.3413 H   0  0  0  0  0  0  0  0  0  0  0  0
   10.1432   -5.7258   27.1775 H   0  0  0  0  0  0  0  0  0  0  0  0
    9.1338   -6.7931   25.0863 H   0  0  0  0  0  0  0  0  0  0  0  0
    8.3657   -5.7262   23.8995 H   0  0  0  0  0  0  0  0  0  0  0  0
   12.4412    5.5584   21.2776 H   0  0  0  0  0  0  0  0  0  0  0  0
   13.2748    4.4059   20.1806 H   0  0  0  0  0  0  0  0  0  0  0  0
   11.5379    4.7362   19.9596 H   0  0  0  0  0  0  0  0  0  0  0  0
   10.2886    1.0256   24.5508 H   0  0  0  0  0  0  0  0  0  0  0  0
    9.0288    1.9709   23.8044 H   0  0  0  0  0  0  0  0  0  0  0  0
   10.7829   -0.1040   22.4083 H   0  0  0  0  0  0  0  0  0  0  0  0
    8.2487   -1.5564   21.0972 H   0  0  0  0  0  0  0  0  0  0  0  0
  1  2  1  0  0  0  0
  1  5  2  0  0  0  0
  2  6  2  0  0  0  0
  3  7  2  0  0  0  0
  3 11  1  0  0  0  0
  4  8  1  0  0  0  0
  4 11  2  0  0  0  0
  5 13  1  0  0  0  0
  6 14  1  0  0  0  0
  7 15  1  0  0  0  0
  8 15  2  0  0  0  0
  9 12  1  0  0  0  0
  9 25  2  0  0  0  0
 10 12  2  0  0  0  0
 10 28  1  0  0  0  0
 11 24  1  0  0  0  0
 12 23  1  0  0  0  0
 13 14  2  0  0  0  0
 13 26  1  0  0  0  0
 14 29  1  0  0  0  0
 15 30  1  0  0  0  0
 16 24  1  0  0  0  0
 16 31  1  0  0  0  0
 16 32  2  0  0  0  0
 17 18  1  0  0  0  0
 17 19  1  0  0  0  0
 18 20  1  0  0  0  0
 19 21  1  0  0  0  0
 20 30  1  0  0  0  0
 21 30  1  0  0  0  0
 22 28  1  0  0  0  0
 23 24  1  6  0  0  0
 25 28  1  0  0  0  0
 26 27  2  0  0  0  0
 27 29  1  0  0  0  0
 29 31  1  0  0  0  0
  1 33  1  0  0  0  0
  2 34  1  0  0  0  0
  3 35  1  0  0  0  0
  4 36  1  0  0  0  0
  5 37  1  0  0  0  0
  6 38  1  0  0  0  0
  7 39  1  0  0  0  0
  8 40  1  0  0  0  0
  9 41  1  0  0  0  0
 10 42  1  0  0  0  0
 17 43  1  0  0  0  0
 17 44  1  0  0  0  0
 18 45  1  0  0  0  0
 18 46  1  0  0  0  0
 19 47  1  0  0  0  0
 19 48  1  0  0  0  0
 20 49  1  0  0  0  0
 20 50  1  0  0  0  0
 21 51  1  0  0  0  0
 21 52  1  0  0  0  0
 22 53  1  0  0  0  0
 22 54  1  0  0  0  0
 22 55  1  0  0  0  0
 23 56  1  0  0  0  0
 23 57  1  0  0  0  0
 24 58  1  0  0  0  0
 31 59  1  0  0  0  0
M  END
> <clash_score>
0

> <docking_score>
-7.3566741943359375

> <overlap_score>
0.9623876214027405

$$$$
BENZO_179_1
  -OEChem-08222022173D

 59 63  0     1  0  0  0  0  0999 V2000
    3.9160    2.0630   19.5520 C   0  0  0  0  0  0  0  0  0  0  0  0
    4.2750    1.7050   20.8490 C   0  0  0  0  0  0  0  0  0  0  0  0
    9.0720   -1.1280   24.8640 C   0  0  0  0  0  0  0  0  0  0  0  0
    9.7200   -2.2600   22.8630 C   0  0  0  0  0  0  0  0  0  0  0  0
    4.6890    1.6810   18.4640 C   0  0  0  0  0  0  0  0  0  0  0  0
    5.4210    0.9600   21.0930 C   0  0  0  0  0  0  0  0  0  0  0  0
    8.9960   -2.3380   25.5320 C   0  0  0  0  0  0  0  0  0  0  0  0
    9.6730   -3.4710   23.5300 C   0  0  0  0  0  0  0  0  0  0  0  0
   12.0761    2.7685   23.5923 C   0  0  0  0  0  0  0  0  0  0  0  0
   12.3645    0.5993   23.3773 C   0  0  0  0  0  0  0  0  0  0  0  0
    9.3350   -1.0880   23.5010 C   0  0  0  0  0  0  0  0  0  0  0  0
   11.3802    1.5472   23.5150 C   0  0  0  0  0  0  0  0  0  0  0  0
    5.8300    0.9190   18.6970 C   0  0  0  0  0  0  0  0  0  0  0  0
    6.1790    0.5730   19.9990 C   0  0  0  0  0  0  0  0  0  0  0  0
    9.3070   -3.5340   24.8780 C   0  0  0  0  0  0  0  0  0  0  0  0
    9.0420    0.3700   21.5280 C   0  0  0  0  0  0  0  0  0  0  0  0
    7.3637   -6.1365   27.1885 C   0  0  0  0  0  0  0  0  0  0  0  0
    8.1962   -4.9739   27.7340 C   0  0  0  0  0  0  0  0  0  0  0  0
    7.1943   -6.0395   25.6706 C   0  0  0  0  0  0  0  0  0  0  0  0
    9.5197   -4.8493   26.9795 C   0  0  0  0  0  0  0  0  0  0  0  0
    8.5443   -5.8838   24.9636 C   0  0  0  0  0  0  0  0  0  0  0  0
   14.8649    0.7140   23.2612 C   0  0  0  0  0  0  0  0  0  0  0  0
    9.8870    1.3260   23.5730 C   0  0  0  0  0  0  0  0  0  0  0  0
    9.4560    0.1560   22.8130 C   0  0  1  0  0  0  0  0  0  0  0  0
   13.4003    2.6135   23.5107 N   0  0  0  0  0  0  0  0  0  0  0  0
    6.7580    0.3810   17.8350 N   0  0  0  0  0  0  0  0  0  0  0  0
    7.6390   -0.2680   18.5410 N   0  0  0  0  0  0  0  0  0  0  0  0
   13.5442    1.2836   23.3808 N   0  0  0  0  0  0  0  0  0  0  0  0
    7.3170   -0.1610   19.8550 N   0  0  0  0  0  0  0  0  0  0  0  0
    9.2563   -4.7385   25.5420 N   0  0  0  0  0  0  0  0  0  0  0  0
    8.1890   -0.7180   20.8700 N   0  0  0  0  0  0  0  0  0  0  0  0
    9.2690    1.4140   20.9380 O   0  0  0  0  0  0  0  0  0  0  0  0
    3.0136    2.6526   19.3908 H   0  0  0  0  0  0  0  0  0  0  0  0
    3.6481    2.0140   21.6821 H   0  0  0  0  0  0  0  0  0  0  0  0
    8.9214   -0.1986   25.4206 H   0  0  0  0  0  0  0  0  0  0  0  0
   10.0622   -2.2326   21.8251 H   0  0  0  0  0  0  0  0  0  0  0  0
    4.4042    1.9741   17.4524 H   0  0  0  0  0  0  0  0  0  0  0  0
    5.7089    0.6919   22.1150 H   0  0  0  0  0  0  0  0  0  0  0  0
    8.6882   -2.3542   26.5803 H   0  0  0  0  0  0  0  0  0  0  0  0
    9.9258   -4.3896   22.9914 H   0  0  0  0  0  0  0  0  0  0  0  0
   11.6759    3.7661   23.7056 H   0  0  0  0  0  0  0  0  0  0  0  0
   12.3269   -0.4774   23.2810 H   0  0  0  0  0  0  0  0  0  0  0  0
    7.8484   -7.0905   27.4464 H   0  0  0  0  0  0  0  0  0  0  0  0
    6.3761   -6.1442   27.6721 H   0  0  0  0  0  0  0  0  0  0  0  0
    7.6308   -4.0428   27.6404 H   0  0  0  0  0  0  0  0  0  0  0  0
    8.3917   -5.1316   28.7967 H   0  0  0  0  0  0  0  0  0  0  0  0
    6.6889   -6.9376   25.3006 H   0  0  0  0  0  0  0  0  0  0  0  0
    6.5516   -5.1860   25.4256 H   0  0  0  0  0  0  0  0  0  0  0  0
   10.0494   -3.9643   27.3413 H   0  0  0  0  0  0  0  0  0  0  0  0
   10.1432   -5.7258   27.1775 H   0  0  0  0  0  0  0  0  0  0  0  0
    9.1338   -6.7931   25.0863 H   0  0  0  0  0  0  0  0  0  0  0  0
    8.3657   -5.7262   23.8995 H   0  0  0  0  0  0  0  0  0  0  0  0
   15.1211    0.6765   22.1991 H   0  0  0  0  0  0  0  0  0  0  0  0
   15.5806    1.3365   23.8054 H   0  0  0  0  0  0  0  0  0  0  0  0
   14.8651   -0.2914   23.6914 H   0  0  0  0  0  0  0  0  0  0  0  0
    9.6004    1.2281   24.6293 H   0  0  0  0  0  0  0  0  0  0  0  0
    9.3666    2.2262   23.2198 H   0  0  0  0  0  0  0  0  0  0  0  0
    8.0666    0.4961   23.2504 H   0  0  0  0  0  0  0  0  0  0  0  0
    8.2487   -1.5564   21.0972 H   0  0  0  0  0  0  0  0  0  0  0  0
  1  2  1  0  0  0  0
  1  5  2  0  0  0  0
  2  6  2  0  0  0  0
  3  7  2  0  0  0  0
  3 11  1  0  0  0  0
  4  8  1  0  0  0  0
  4 11  2  0  0  0  0
  5 13  1  0  0  0  0
  6 14  1  0  0  0  0
  7 15  1  0  0  0  0
  8 15  2  0  0  0  0
  9 12  1  0  0  0  0
  9 25  2  0  0  0  0
 10 12  2  0  0  0  0
 10 28  1  0  0  0  0
 11 24  1  0  0  0  0
 12 23  1  0  0  0  0
 13 14  2  0  0  0  0
 13 26  1  0  0  0  0
 14 29  1  0  0  0  0
 15 30  1  0  0  0  0
 16 24  1  0  0  0  0
 16 31  1  0  0  0  0
 16 32  2  0  0  0  0
 17 18  1  0  0  0  0
 17 19  1  0  0  0  0
 18 20  1  0  0  0  0
 19 21  1  0  0  0  0
 20 30  1  0  0  0  0
 21 30  1  0  0  0  0
 22 28  1  0  0  0  0
 23 24  1  1  0  0  0
 25 28  1  0  0  0  0
 26 27  2  0  0  0  0
 27 29  1  0  0  0  0
 29 31  1  0  0  0  0
  1 33  1  0  0  0  0
  2 34  1  0  0  0  0
  3 35  1  0  0  0  0
  4 36  1  0  0  0  0
  5 37  1  0  0  0  0
  6 38  1  0  0  0  0
  7 39  1  0  0  0  0
  8 40  1  0  0  0  0
  9 41  1  0  0  0  0
 10 42  1  0  0  0  0
 17 43  1  0  0  0  0
 17 44  1  0  0  0  0
 18 45  1  0  0  0  0
 18 46  1  0  0  0  0
 19 47  1  0  0  0  0
 19 48  1  0  0  0  0
 20 49  1  0  0  0  0
 20 50  1  0  0  0  0
 21 51  1  0  0  0  0
 21 52  1  0  0  0  0
 22 53  1  0  0  0  0
 22 54  1  0  0  0  0
 22 55  1  0  0  0  0
 23 56  1  0  0  0  0
 23 57  1  0  0  0  0
 24 58  1  0  0  0  0
 31 59  1  0  0  0  0
M  END
> <clash_score>
0

> <docking_score>
-8.668868064880371

> <overlap_score>
1.014145851135254

$$$$
BENZO_182_1
  -OEChem-08222022173D

 47 50  0     1  0  0  0  0  0999 V2000
    3.9160    2.0630   19.5520 C   0  0  0  0  0  0  0  0  0  0  0  0
    4.2750    1.7050   20.8490 C   0  0  0  0  0  0  0  0  0  0  0  0
   13.6250    0.6929   23.3186 C   0  0  0  0  0  0  0  0  0  0  0  0
   12.2478    0.4782   23.3713 C   0  0  0  0  0  0  0  0  0  0  0  0
    8.9960   -2.3380   25.5320 C   0  0  0  0  0  0  0  0  0  0  0  0
    9.6730   -3.4710   23.5300 C   0  0  0  0  0  0  0  0  0  0  0  0
    9.0720   -1.1280   24.8640 C   0  0  0  0  0  0  0  0  0  0  0  0
    9.7200   -2.2600   22.8630 C   0  0  0  0  0  0  0  0  0  0  0  0
    4.6890    1.6810   18.4640 C   0  0  0  0  0  0  0  0  0  0  0  0
    5.4210    0.9600   21.0930 C   0  0  0  0  0  0  0  0  0  0  0  0
   14.1329    1.9886   23.4121 C   0  0  0  0  0  0  0  0  0  0  0  0
   11.8864    2.8550   23.6107 C   0  0  0  0  0  0  0  0  0  0  0  0
    9.3070   -3.5340   24.8780 C   0  0  0  0  0  0  0  0  0  0  0  0
    9.3350   -1.0880   23.5010 C   0  0  0  0  0  0  0  0  0  0  0  0
   11.3785    1.5592   23.5173 C   0  0  0  0  0  0  0  0  0  0  0  0
    5.8300    0.9190   18.6970 C   0  0  0  0  0  0  0  0  0  0  0  0
    6.1790    0.5730   19.9990 C   0  0  0  0  0  0  0  0  0  0  0  0
   13.2636    3.0696   23.5581 C   0  0  0  0  0  0  0  0  0  0  0  0
    9.0420    0.3700   21.5280 C   0  0  0  0  0  0  0  0  0  0  0  0
    9.2507   -4.8268   25.5895 C   0  0  0  0  0  0  0  0  0  0  0  0
    9.8870    1.3260   23.5730 C   0  0  0  0  0  0  0  0  0  0  0  0
    9.4560    0.1560   22.8130 C   0  0  1  0  0  0  0  0  0  0  0  0
    6.7580    0.3810   17.8350 N   0  0  0  0  0  0  0  0  0  0  0  0
    7.6390   -0.2680   18.5410 N   0  0  0  0  0  0  0  0  0  0  0  0
    7.3170   -0.1610   19.8550 N   0  0  0  0  0  0  0  0  0  0  0  0
    8.1890   -0.7180   20.8700 N   0  0  0  0  0  0  0  0  0  0  0  0
    9.2690    1.4140   20.9380 O   0  0  0  0  0  0  0  0  0  0  0  0
   13.8909    4.6682   23.6722 Cl  0  0  0  0  0  0  0  0  0  0  0  0
    3.0136    2.6526   19.3908 H   0  0  0  0  0  0  0  0  0  0  0  0
    3.6480    2.0140   21.6821 H   0  0  0  0  0  0  0  0  0  0  0  0
   14.3015   -0.1492   23.2047 H   0  0  0  0  0  0  0  0  0  0  0  0
   11.8608   -0.5348   23.2975 H   0  0  0  0  0  0  0  0  0  0  0  0
    8.6904   -2.3557   26.5808 H   0  0  0  0  0  0  0  0  0  0  0  0
    9.9249   -4.3911   22.9935 H   0  0  0  0  0  0  0  0  0  0  0  0
    8.9209   -0.1987   25.4207 H   0  0  0  0  0  0  0  0  0  0  0  0
   10.0640   -2.2315   21.8255 H   0  0  0  0  0  0  0  0  0  0  0  0
    4.4042    1.9741   17.4524 H   0  0  0  0  0  0  0  0  0  0  0  0
    5.7089    0.6919   22.1150 H   0  0  0  0  0  0  0  0  0  0  0  0
   15.2086    2.1410   23.3692 H   0  0  0  0  0  0  0  0  0  0  0  0
   11.2045    3.6944   23.7250 H   0  0  0  0  0  0  0  0  0  0  0  0
    8.2506   -5.2684   25.5009 H   0  0  0  0  0  0  0  0  0  0  0  0
    9.9820   -5.5375   25.1832 H   0  0  0  0  0  0  0  0  0  0  0  0
    9.4843   -4.7055   26.6554 H   0  0  0  0  0  0  0  0  0  0  0  0
    9.6026    1.2057   24.6276 H   0  0  0  0  0  0  0  0  0  0  0  0
    9.3596    2.2290   23.2378 H   0  0  0  0  0  0  0  0  0  0  0  0
    8.0683    0.4897   23.2524 H   0  0  0  0  0  0  0  0  0  0  0  0
    8.2712   -1.5583   21.1209 H   0  0  0  0  0  0  0  0  0  0  0  0
  1  2  1  0  0  0  0
  1  9  2  0  0  0  0
  2 10  2  0  0  0  0
  3  4  2  0  0  0  0
  3 11  1  0  0  0  0
  4 15  1  0  0  0  0
  5  7  2  0  0  0  0
  5 13  1  0  0  0  0
  6  8  1  0  0  0  0
  6 13  2  0  0  0  0
  7 14  1  0  0  0  0
  8 14  2  0  0  0  0
  9 16  1  0  0  0  0
 10 17  1  0  0  0  0
 11 18  2  0  0  0  0
 12 15  2  0  0  0  0
 12 18  1  0  0  0  0
 13 20  1  0  0  0  0
 14 22  1  0  0  0  0
 15 21  1  0  0  0  0
 16 17  2  0  0  0  0
 16 23  1  0  0  0  0
 17 25  1  0  0  0  0
 18 28  1  0  0  0  0
 19 22  1  0  0  0  0
 19 26  1  0  0  0  0
 19 27  2  0  0  0  0
 21 22  1  1  0  0  0
 23 24  2  0  0  0  0
 24 25  1  0  0  0  0
 25 26  1  0  0  0  0
  1 29  1  0  0  0  0
  2 30  1  0  0  0  0
  3 31  1  0  0  0  0
  4 32  1  0  0  0  0
  5 33  1  0  0  0  0
  6 34  1  0  0  0  0
  7 35  1  0  0  0  0
  8 36  1  0  0  0  0
  9 37  1  0  0  0  0
 10 38  1  0  0  0  0
 11 39  1  0  0  0  0
 12 40  1  0  0  0  0
 20 41  1  0  0  0  0
 20 42  1  0  0  0  0
 20 43  1  0  0  0  0
 21 44  1  0  0  0  0
 21 45  1  0  0  0  0
 22 46  1  0  0  0  0
 26 47  1  0  0  0  0
M  END
> <clash_score>
0

> <docking_score>
-8.538189888000488

> <overlap_score>
0.9615936279296875

$$$$
BENZO_183_1
  -OEChem-08222022173D

 47 50  0     1  0  0  0  0  0999 V2000
    3.9160    2.0630   19.5520 C   0  0  0  0  0  0  0  0  0  0  0  0
    4.2750    1.7050   20.8490 C   0  0  0  0  0  0  0  0  0  0  0  0
    8.9960   -2.3380   25.5320 C   0  0  0  0  0  0  0  0  0  0  0  0
    9.6730   -3.4710   23.5300 C   0  0  0  0  0  0  0  0  0  0  0  0
    9.0720   -1.1280   24.8640 C   0  0  0  0  0  0  0  0  0  0  0  0
    9.7200   -2.2600   22.8630 C   0  0  0  0  0  0  0  0  0  0  0  0
    4.6890    1.6810   18.4640 C   0  0  0  0  0  0  0  0  0  0  0  0
    5.4210    0.9600   21.0930 C   0  0  0  0  0  0  0  0  0  0  0  0
   12.0646    2.7858   23.5979 C   0  0  0  0  0  0  0  0  0  0  0  0
   12.3704    0.6193   23.3790 C   0  0  0  0  0  0  0  0  0  0  0  0
    9.3070   -3.5340   24.8780 C   0  0  0  0  0  0  0  0  0  0  0  0
    9.3350   -1.0880   23.5010 C   0  0  0  0  0  0  0  0  0  0  0  0
   11.3785    1.5592   23.5173 C   0  0  0  0  0  0  0  0  0  0  0  0
    5.8300    0.9190   18.6970 C   0  0  0  0  0  0  0  0  0  0  0  0
    6.1790    0.5730   19.9990 C   0  0  0  0  0  0  0  0  0  0  0  0
    9.0420    0.3700   21.5280 C   0  0  0  0  0  0  0  0  0  0  0  0
    9.2507   -4.8268   25.5895 C   0  0  0  0  0  0  0  0  0  0  0  0
   14.8700    0.7541   23.2663 C   0  0  0  0  0  0  0  0  0  0  0  0
    9.8870    1.3260   23.5730 C   0  0  0  0  0  0  0  0  0  0  0  0
    9.4560    0.1560   22.8130 C   0  0  1  0  0  0  0  0  0  0  0  0
   13.3900    2.6414   23.5177 N   0  0  0  0  0  0  0  0  0  0  0  0
    6.7580    0.3810   17.8350 N   0  0  0  0  0  0  0  0  0  0  0  0
    7.6390   -0.2680   18.5410 N   0  0  0  0  0  0  0  0  0  0  0  0
   13.5447    1.3130   23.3854 N   0  0  0  0  0  0  0  0  0  0  0  0
    7.3170   -0.1610   19.8550 N   0  0  0  0  0  0  0  0  0  0  0  0
    8.1890   -0.7180   20.8700 N   0  0  0  0  0  0  0  0  0  0  0  0
    9.2690    1.4140   20.9380 O   0  0  0  0  0  0  0  0  0  0  0  0
    3.0136    2.6526   19.3908 H   0  0  0  0  0  0  0  0  0  0  0  0
    3.6480    2.0140   21.6821 H   0  0  0  0  0  0  0  0  0  0  0  0
    8.6904   -2.3557   26.5808 H   0  0  0  0  0  0  0  0  0  0  0  0
    9.9249   -4.3911   22.9935 H   0  0  0  0  0  0  0  0  0  0  0  0
    8.9209   -0.1987   25.4207 H   0  0  0  0  0  0  0  0  0  0  0  0
   10.0640   -2.2315   21.8255 H   0  0  0  0  0  0  0  0  0  0  0  0
    4.4042    1.9741   17.4524 H   0  0  0  0  0  0  0  0  0  0  0  0
    5.7089    0.6919   22.1150 H   0  0  0  0  0  0  0  0  0  0  0  0
   11.6563    3.7799   23.7126 H   0  0  0  0  0  0  0  0  0  0  0  0
   12.3415   -0.4574   23.2805 H   0  0  0  0  0  0  0  0  0  0  0  0
    8.2506   -5.2684   25.5009 H   0  0  0  0  0  0  0  0  0  0  0  0
    9.9820   -5.5375   25.1832 H   0  0  0  0  0  0  0  0  0  0  0  0
    9.4843   -4.7055   26.6554 H   0  0  0  0  0  0  0  0  0  0  0  0
   15.1278    0.7207   22.2045 H   0  0  0  0  0  0  0  0  0  0  0  0
   15.5801    1.3811   23.8126 H   0  0  0  0  0  0  0  0  0  0  0  0
   14.8776   -0.2522   23.6945 H   0  0  0  0  0  0  0  0  0  0  0  0
    9.6026    1.2057   24.6276 H   0  0  0  0  0  0  0  0  0  0  0  0
    9.3596    2.2290   23.2378 H   0  0  0  0  0  0  0  0  0  0  0  0
    8.0683    0.4897   23.2524 H   0  0  0  0  0  0  0  0  0  0  0  0
    8.2712   -1.5583   21.1209 H   0  0  0  0  0  0  0  0  0  0  0  0
  1  2  1  0  0  0  0
  1  7  2  0  0  0  0
  2  8  2  0  0  0  0
  3  5  2  0  0  0  0
  3 11  1  0  0  0  0
  4  6  1  0  0  0  0
  4 11  2  0  0  0  0
  5 12  1  0  0  0  0
  6 12  2  0  0  0  0
  7 14  1  0  0  0  0
  8 15  1  0  0  0  0
  9 13  1  0  0  0  0
  9 21  2  0  0  0  0
 10 13  2  0  0  0  0
 10 24  1  0  0  0  0
 11 17  1  0  0  0  0
 12 20  1  0  0  0  0
 13 19  1  0  0  0  0
 14 15  2  0  0  0  0
 14 22  1  0  0  0  0
 15 25  1  0  0  0  0
 16 20  1  0  0  0  0
 16 26  1  0  0  0  0
 16 27  2  0  0  0  0
 18 24  1  0  0  0  0
 19 20  1  1  0  0  0
 21 24  1  0  0  0  0
 22 23  2  0  0  0  0
 23 25  1  0  0  0  0
 25 26  1  0  0  0  0
  1 28  1  0  0  0  0
  2 29  1  0  0  0  0
  3 30  1  0  0  0  0
  4 31  1  0  0  0  0
  5 32  1  0  0  0  0
  6 33  1  0  0  0  0
  7 34  1  0  0  0  0
  8 35  1  0  0  0  0
  9 36  1  0  0  0  0
 10 37  1  0  0  0  0
 17 38  1  0  0  0  0
 17 39  1  0  0  0  0
 17 40  1  0  0  0  0
 18 41  1  0  0  0  0
 18 42  1  0  0  0  0
 18 43  1  0  0  0  0
 19 44  1  0  0  0  0
 19 45  1  0  0  0  0
 20 46  1  0  0  0  0
 26 47  1  0  0  0  0
M  END
> <clash_score>
0

> <docking_score>
-8.908929824829102

> <overlap_score>
0.9606239199638367

$$$$
BENZO_183_2
  -OEChem-08222022173D

 47 50  0     1  0  0  0  0  0999 V2000
    3.9160    2.0630   19.5520 C   0  0  0  0  0  0  0  0  0  0  0  0
    4.2750    1.7050   20.8490 C   0  0  0  0  0  0  0  0  0  0  0  0
    8.9960   -2.3380   25.5320 C   0  0  0  0  0  0  0  0  0  0  0  0
    9.6730   -3.4710   23.5300 C   0  0  0  0  0  0  0  0  0  0  0  0
    9.0720   -1.1280   24.8640 C   0  0  0  0  0  0  0  0  0  0  0  0
    9.7200   -2.2600   22.8630 C   0  0  0  0  0  0  0  0  0  0  0  0
    4.6890    1.6810   18.4640 C   0  0  0  0  0  0  0  0  0  0  0  0
    5.4210    0.9600   21.0930 C   0  0  0  0  0  0  0  0  0  0  0  0
   12.3489    1.9871   22.9604 C   0  0  0  0  0  0  0  0  0  0  0  0
   10.7728    3.1825   22.0003 C   0  0  0  0  0  0  0  0  0  0  0  0
    9.3070   -3.5340   24.8780 C   0  0  0  0  0  0  0  0  0  0  0  0
    9.3350   -1.0880   23.5010 C   0  0  0  0  0  0  0  0  0  0  0  0
   10.9519    2.1358   22.8715 C   0  0  0  0  0  0  0  0  0  0  0  0
    5.8300    0.9190   18.6970 C   0  0  0  0  0  0  0  0  0  0  0  0
    6.1790    0.5730   19.9990 C   0  0  0  0  0  0  0  0  0  0  0  0
    9.0420    0.3700   21.5280 C   0  0  0  0  0  0  0  0  0  0  0  0
    9.2507   -4.8268   25.5895 C   0  0  0  0  0  0  0  0  0  0  0  0
   12.3501    4.6554   20.7270 C   0  0  0  0  0  0  0  0  0  0  0  0
    9.8870    1.3260   23.5730 C   0  0  0  0  0  0  0  0  0  0  0  0
    9.4560    0.1560   22.8130 C   0  0  2  0  0  0  0  0  0  0  0  0
   13.0104    2.8686   22.2058 N   0  0  0  0  0  0  0  0  0  0  0  0
    6.7580    0.3810   17.8350 N   0  0  0  0  0  0  0  0  0  0  0  0
    7.6390   -0.2680   18.5410 N   0  0  0  0  0  0  0  0  0  0  0  0
   12.0247    3.5812   21.6343 N   0  0  0  0  0  0  0  0  0  0  0  0
    7.3170   -0.1610   19.8550 N   0  0  0  0  0  0  0  0  0  0  0  0
    8.1890   -0.7180   20.8700 N   0  0  0  0  0  0  0  0  0  0  0  0
    9.2690    1.4140   20.9380 O   0  0  0  0  0  0  0  0  0  0  0  0
    3.0136    2.6526   19.3908 H   0  0  0  0  0  0  0  0  0  0  0  0
    3.6480    2.0140   21.6821 H   0  0  0  0  0  0  0  0  0  0  0  0
    8.6904   -2.3557   26.5808 H   0  0  0  0  0  0  0  0  0  0  0  0
    9.9249   -4.3911   22.9935 H   0  0  0  0  0  0  0  0  0  0  0  0
    8.9209   -0.1987   25.4207 H   0  0  0  0  0  0  0  0  0  0  0  0
   10.0640   -2.2315   21.8255 H   0  0  0  0  0  0  0  0  0  0  0  0
    4.4042    1.9741   17.4524 H   0  0  0  0  0  0  0  0  0  0  0  0
    5.7089    0.6919   22.1150 H   0  0  0  0  0  0  0  0  0  0  0  0
   12.9149    1.2733   23.5422 H   0  0  0  0  0  0  0  0  0  0  0  0
    9.8832    3.6646   21.6181 H   0  0  0  0  0  0  0  0  0  0  0  0
    8.2506   -5.2684   25.5009 H   0  0  0  0  0  0  0  0  0  0  0  0
    9.9820   -5.5375   25.1832 H   0  0  0  0  0  0  0  0  0  0  0  0
    9.4843   -4.7055   26.6554 H   0  0  0  0  0  0  0  0  0  0  0  0
   12.4467    5.5737   21.3122 H   0  0  0  0  0  0  0  0  0  0  0  0
   13.2892    4.4277   20.2151 H   0  0  0  0  0  0  0  0  0  0  0  0
   11.5530    4.7557   19.9850 H   0  0  0  0  0  0  0  0  0  0  0  0
   10.2899    1.0067   24.5442 H   0  0  0  0  0  0  0  0  0  0  0  0
    9.0336    1.9722   23.8181 H   0  0  0  0  0  0  0  0  0  0  0  0
   10.7792   -0.1072   22.4110 H   0  0  0  0  0  0  0  0  0  0  0  0
    8.2712   -1.5583   21.1209 H   0  0  0  0  0  0  0  0  0  0  0  0
  1  2  1  0  0  0  0
  1  7  2  0  0  0  0
  2  8  2  0  0  0  0
  3  5  2  0  0  0  0
  3 11  1  0  0  0  0
  4  6  1  0  0  0  0
  4 11  2  0  0  0  0
  5 12  1  0  0  0  0
  6 12  2  0  0  0  0
  7 14  1  0  0  0  0
  8 15  1  0  0  0  0
  9 13  1  0  0  0  0
  9 21  2  0  0  0  0
 10 13  2  0  0  0  0
 10 24  1  0  0  0  0
 11 17  1  0  0  0  0
 12 20  1  0  0  0  0
 13 19  1  0  0  0  0
 14 15  2  0  0  0  0
 14 22  1  0  0  0  0
 15 25  1  0  0  0  0
 16 20  1  0  0  0  0
 16 26  1  0  0  0  0
 16 27  2  0  0  0  0
 18 24  1  0  0  0  0
 19 20  1  6  0  0  0
 21 24  1  0  0  0  0
 22 23  2  0  0  0  0
 23 25  1  0  0  0  0
 25 26  1  0  0  0  0
  1 28  1  0  0  0  0
  2 29  1  0  0  0  0
  3 30  1  0  0  0  0
  4 31  1  0  0  0  0
  5 32  1  0  0  0  0
  6 33  1  0  0  0  0
  7 34  1  0  0  0  0
  8 35  1  0  0  0  0
  9 36  1  0  0  0  0
 10 37  1  0  0  0  0
 17 38  1  0  0  0  0
 17 39  1  0  0  0  0
 17 40  1  0  0  0  0
 18 41  1  0  0  0  0
 18 42  1  0  0  0  0
 18 43  1  0  0  0  0
 19 44  1  0  0  0  0
 19 45  1  0  0  0  0
 20 46  1  0  0  0  0
 26 47  1  0  0  0  0
M  END
> <clash_score>
0

> <docking_score>
-7.650345802307129

> <overlap_score>
0.9091693758964539

$$$$
BENZO_182_2
  -OEChem-08222022173D

 47 50  0     1  0  0  0  0  0999 V2000
    3.9160    2.0630   19.5520 C   0  0  0  0  0  0  0  0  0  0  0  0
    4.2750    1.7050   20.8490 C   0  0  0  0  0  0  0  0  0  0  0  0
   13.2836    2.5921   22.4338 C   0  0  0  0  0  0  0  0  0  0  0  0
   12.2999    1.8455   23.0821 C   0  0  0  0  0  0  0  0  0  0  0  0
    8.9960   -2.3380   25.5320 C   0  0  0  0  0  0  0  0  0  0  0  0
    9.6730   -3.4710   23.5300 C   0  0  0  0  0  0  0  0  0  0  0  0
    9.0720   -1.1280   24.8640 C   0  0  0  0  0  0  0  0  0  0  0  0
    9.7200   -2.2600   22.8630 C   0  0  0  0  0  0  0  0  0  0  0  0
    4.6890    1.6810   18.4640 C   0  0  0  0  0  0  0  0  0  0  0  0
    5.4210    0.9600   21.0930 C   0  0  0  0  0  0  0  0  0  0  0  0
   12.9195    3.6292   21.5749 C   0  0  0  0  0  0  0  0  0  0  0  0
   10.5877    3.1728   22.0126 C   0  0  0  0  0  0  0  0  0  0  0  0
    9.3070   -3.5340   24.8780 C   0  0  0  0  0  0  0  0  0  0  0  0
    9.3350   -1.0880   23.5010 C   0  0  0  0  0  0  0  0  0  0  0  0
   10.9519    2.1358   22.8715 C   0  0  0  0  0  0  0  0  0  0  0  0
    5.8300    0.9190   18.6970 C   0  0  0  0  0  0  0  0  0  0  0  0
    6.1790    0.5730   19.9990 C   0  0  0  0  0  0  0  0  0  0  0  0
   11.5715    3.9195   21.3643 C   0  0  0  0  0  0  0  0  0  0  0  0
    9.0420    0.3700   21.5280 C   0  0  0  0  0  0  0  0  0  0  0  0
    9.2507   -4.8268   25.5895 C   0  0  0  0  0  0  0  0  0  0  0  0
    9.8870    1.3260   23.5730 C   0  0  0  0  0  0  0  0  0  0  0  0
    9.4560    0.1560   22.8130 C   0  0  2  0  0  0  0  0  0  0  0  0
    6.7580    0.3810   17.8350 N   0  0  0  0  0  0  0  0  0  0  0  0
    7.6390   -0.2680   18.5410 N   0  0  0  0  0  0  0  0  0  0  0  0
    7.3170   -0.1610   19.8550 N   0  0  0  0  0  0  0  0  0  0  0  0
    8.1890   -0.7180   20.8700 N   0  0  0  0  0  0  0  0  0  0  0  0
    9.2690    1.4140   20.9380 O   0  0  0  0  0  0  0  0  0  0  0  0
   11.1228    5.1983   20.3036 Cl  0  0  0  0  0  0  0  0  0  0  0  0
    3.0136    2.6526   19.3908 H   0  0  0  0  0  0  0  0  0  0  0  0
    3.6480    2.0140   21.6821 H   0  0  0  0  0  0  0  0  0  0  0  0
   14.3332    2.3656   22.5979 H   0  0  0  0  0  0  0  0  0  0  0  0
   12.5928    1.0392   23.7495 H   0  0  0  0  0  0  0  0  0  0  0  0
    8.6904   -2.3557   26.5808 H   0  0  0  0  0  0  0  0  0  0  0  0
    9.9249   -4.3911   22.9935 H   0  0  0  0  0  0  0  0  0  0  0  0
    8.9209   -0.1987   25.4207 H   0  0  0  0  0  0  0  0  0  0  0  0
   10.0640   -2.2315   21.8255 H   0  0  0  0  0  0  0  0  0  0  0  0
    4.4042    1.9741   17.4524 H   0  0  0  0  0  0  0  0  0  0  0  0
    5.7089    0.6919   22.1150 H   0  0  0  0  0  0  0  0  0  0  0  0
   13.6970    4.2025   21.0761 H   0  0  0  0  0  0  0  0  0  0  0  0
    9.5353    3.3956   21.8521 H   0  0  0  0  0  0  0  0  0  0  0  0
    8.2506   -5.2684   25.5009 H   0  0  0  0  0  0  0  0  0  0  0  0
    9.9820   -5.5375   25.1832 H   0  0  0  0  0  0  0  0  0  0  0  0
    9.4843   -4.7055   26.6554 H   0  0  0  0  0  0  0  0  0  0  0  0
   10.2899    1.0067   24.5442 H   0  0  0  0  0  0  0  0  0  0  0  0
    9.0336    1.9722   23.8180 H   0  0  0  0  0  0  0  0  0  0  0  0
   10.7792   -0.1072   22.4110 H   0  0  0  0  0  0  0  0  0  0  0  0
    8.2712   -1.5583   21.1209 H   0  0  0  0  0  0  0  0  0  0  0  0
  1  2  1  0  0  0  0
  1  9  2  0  0  0  0
  2 10  2  0  0  0  0
  3  4  2  0  0  0  0
  3 11  1  0  0  0  0
  4 15  1  0  0  0  0
  5  7  2  0  0  0  0
  5 13  1  0  0  0  0
  6  8  1  0  0  0  0
  6 13  2  0  0  0  0
  7 14  1  0  0  0  0
  8 14  2  0  0  0  0
  9 16  1  0  0  0  0
 10 17  1  0  0  0  0
 11 18  2  0  0  0  0
 12 15  2  0  0  0  0
 12 18  1  0  0  0  0
 13 20  1  0  0  0  0
 14 22  1  0  0  0  0
 15 21  1  0  0  0  0
 16 17  2  0  0  0  0
 16 23  1  0  0  0  0
 17 25  1  0  0  0  0
 18 28  1  0  0  0  0
 19 22  1  0  0  0  0
 19 26  1  0  0  0  0
 19 27  2  0  0  0  0
 21 22  1  6  0  0  0
 23 24  2  0  0  0  0
 24 25  1  0  0  0  0
 25 26  1  0  0  0  0
  1 29  1  0  0  0  0
  2 30  1  0  0  0  0
  3 31  1  0  0  0  0
  4 32  1  0  0  0  0
  5 33  1  0  0  0  0
  6 34  1  0  0  0  0
  7 35  1  0  0  0  0
  8 36  1  0  0  0  0
  9 37  1  0  0  0  0
 10 38  1  0  0  0  0
 11 39  1  0  0  0  0
 12 40  1  0  0  0  0
 20 41  1  0  0  0  0
 20 42  1  0  0  0  0
 20 43  1  0  0  0  0
 21 44  1  0  0  0  0
 21 45  1  0  0  0  0
 22 46  1  0  0  0  0
 26 47  1  0  0  0  0
M  END
> <clash_score>
2.2169697570105162

> <docking_score>
-8.199884414672852

> <overlap_score>
0.9148105978965759

$$$$
BENZO_185_1
  -OEChem-08222022173D

 48 51  0     1  0  0  0  0  0999 V2000
   14.1331    1.9885   23.4148 C   0  0  0  0  0  0  0  0  0  0  0  0
   13.2637    3.0696   23.5597 C   0  0  0  0  0  0  0  0  0  0  0  0
   13.6252    0.6927   23.3211 C   0  0  0  0  0  0  0  0  0  0  0  0
    3.9160    2.0630   19.5520 C   0  0  0  0  0  0  0  0  0  0  0  0
    4.2750    1.7050   20.8490 C   0  0  0  0  0  0  0  0  0  0  0  0
   11.8864    2.8549   23.6110 C   0  0  0  0  0  0  0  0  0  0  0  0
   12.2479    0.4781   23.3723 C   0  0  0  0  0  0  0  0  0  0  0  0
    9.0720   -1.1280   24.8640 C   0  0  0  0  0  0  0  0  0  0  0  0
    9.7200   -2.2600   22.8630 C   0  0  0  0  0  0  0  0  0  0  0  0
    4.6890    1.6810   18.4640 C   0  0  0  0  0  0  0  0  0  0  0  0
    5.4210    0.9600   21.0930 C   0  0  0  0  0  0  0  0  0  0  0  0
    8.9960   -2.3380   25.5320 C   0  0  0  0  0  0  0  0  0  0  0  0
    9.6730   -3.4710   23.5300 C   0  0  0  0  0  0  0  0  0  0  0  0
   11.3785    1.5592   23.5173 C   0  0  0  0  0  0  0  0  0  0  0  0
    9.3350   -1.0880   23.5010 C   0  0  0  0  0  0  0  0  0  0  0  0
    5.8300    0.9190   18.6970 C   0  0  0  0  0  0  0  0  0  0  0  0
    6.1790    0.5730   19.9990 C   0  0  0  0  0  0  0  0  0  0  0  0
    9.3070   -3.5340   24.8780 C   0  0  0  0  0  0  0  0  0  0  0  0
    9.0420    0.3700   21.5280 C   0  0  0  0  0  0  0  0  0  0  0  0
    8.8744   -4.6797   26.9022 C   0  0  0  0  0  0  0  0  0  0  0  0
    9.8870    1.3260   23.5730 C   0  0  0  0  0  0  0  0  0  0  0  0
    9.4560    0.1560   22.8130 C   0  0  1  0  0  0  0  0  0  0  0  0
    6.7580    0.3810   17.8350 N   0  0  0  0  0  0  0  0  0  0  0  0
    7.6390   -0.2680   18.5410 N   0  0  0  0  0  0  0  0  0  0  0  0
    7.3170   -0.1610   19.8550 N   0  0  0  0  0  0  0  0  0  0  0  0
    8.1890   -0.7180   20.8700 N   0  0  0  0  0  0  0  0  0  0  0  0
    9.2690    1.4140   20.9380 O   0  0  0  0  0  0  0  0  0  0  0  0
    9.2567   -4.7121   25.5280 O   0  0  0  0  0  0  0  0  0  0  0  0
   15.2054    2.1559   23.3735 H   0  0  0  0  0  0  0  0  0  0  0  0
   13.6589    4.0787   23.6315 H   0  0  0  0  0  0  0  0  0  0  0  0
   14.3017   -0.1491   23.2071 H   0  0  0  0  0  0  0  0  0  0  0  0
    3.0136    2.6526   19.3908 H   0  0  0  0  0  0  0  0  0  0  0  0
    3.6480    2.0140   21.6821 H   0  0  0  0  0  0  0  0  0  0  0  0
   11.2166    3.7033   23.7242 H   0  0  0  0  0  0  0  0  0  0  0  0
   11.8612   -0.5349   23.2987 H   0  0  0  0  0  0  0  0  0  0  0  0
    8.9224   -0.1986   25.4209 H   0  0  0  0  0  0  0  0  0  0  0  0
   10.0638   -2.2321   21.8253 H   0  0  0  0  0  0  0  0  0  0  0  0
    4.4042    1.9741   17.4524 H   0  0  0  0  0  0  0  0  0  0  0  0
    5.7089    0.6919   22.1150 H   0  0  0  0  0  0  0  0  0  0  0  0
    8.6903   -2.3588   26.5807 H   0  0  0  0  0  0  0  0  0  0  0  0
    9.9258   -4.3917   22.9962 H   0  0  0  0  0  0  0  0  0  0  0  0
    8.8744   -5.6954   27.3053 H   0  0  0  0  0  0  0  0  0  0  0  0
    7.8781   -4.2399   26.9939 H   0  0  0  0  0  0  0  0  0  0  0  0
    9.5921   -4.0702   27.4565 H   0  0  0  0  0  0  0  0  0  0  0  0
    9.6026    1.2057   24.6276 H   0  0  0  0  0  0  0  0  0  0  0  0
    9.3596    2.2290   23.2378 H   0  0  0  0  0  0  0  0  0  0  0  0
    8.0683    0.4897   23.2524 H   0  0  0  0  0  0  0  0  0  0  0  0
    8.2712   -1.5583   21.1209 H   0  0  0  0  0  0  0  0  0  0  0  0
  1  2  1  0  0  0  0
  1  3  2  0  0  0  0
  2  6  2  0  0  0  0
  3  7  1  0  0  0  0
  4  5  1  0  0  0  0
  4 10  2  0  0  0  0
  5 11  2  0  0  0  0
  6 14  1  0  0  0  0
  7 14  2  0  0  0  0
  8 12  2  0  0  0  0
  8 15  1  0  0  0  0
  9 13  1  0  0  0  0
  9 15  2  0  0  0  0
 10 16  1  0  0  0  0
 11 17  1  0  0  0  0
 12 18  1  0  0  0  0
 13 18  2  0  0  0  0
 14 21  1  0  0  0  0
 15 22  1  0  0  0  0
 16 17  2  0  0  0  0
 16 23  1  0  0  0  0
 17 25  1  0  0  0  0
 18 28  1  0  0  0  0
 19 22  1  0  0  0  0
 19 26  1  0  0  0  0
 19 27  2  0  0  0  0
 20 28  1  0  0  0  0
 21 22  1  1  0  0  0
 23 24  2  0  0  0  0
 24 25  1  0  0  0  0
 25 26  1  0  0  0  0
  1 29  1  0  0  0  0
  2 30  1  0  0  0  0
  3 31  1  0  0  0  0
  4 32  1  0  0  0  0
  5 33  1  0  0  0  0
  6 34  1  0  0  0  0
  7 35  1  0  0  0  0
  8 36  1  0  0  0  0
  9 37  1  0  0  0  0
 10 38  1  0  0  0  0
 11 39  1  0  0  0  0
 12 40  1  0  0  0  0
 13 41  1  0  0  0  0
 20 42  1  0  0  0  0
 20 43  1  0  0  0  0
 20 44  1  0  0  0  0
 21 45  1  0  0  0  0
 21 46  1  0  0  0  0
 22 47  1  0  0  0  0
 26 48  1  0  0  0  0
M  END
> <clash_score>
0

> <docking_score>
-8.598774909973145

> <overlap_score>
0.9819424748420715

$$$$
BENZO_185_2
  -OEChem-08222022173D

 48 51  0     1  0  0  0  0  0999 V2000
   12.9175    3.6318   21.5749 C   0  0  0  0  0  0  0  0  0  0  0  0
   13.2831    2.5951   22.4336 C   0  0  0  0  0  0  0  0  0  0  0  0
   11.5692    3.9205   21.3646 C   0  0  0  0  0  0  0  0  0  0  0  0
    3.9160    2.0630   19.5520 C   0  0  0  0  0  0  0  0  0  0  0  0
    4.2750    1.7050   20.8490 C   0  0  0  0  0  0  0  0  0  0  0  0
   12.3003    1.8471   23.0818 C   0  0  0  0  0  0  0  0  0  0  0  0
   10.5864    3.1725   22.0128 C   0  0  0  0  0  0  0  0  0  0  0  0
    9.0720   -1.1280   24.8640 C   0  0  0  0  0  0  0  0  0  0  0  0
    9.7200   -2.2600   22.8630 C   0  0  0  0  0  0  0  0  0  0  0  0
    4.6890    1.6810   18.4640 C   0  0  0  0  0  0  0  0  0  0  0  0
    5.4210    0.9600   21.0930 C   0  0  0  0  0  0  0  0  0  0  0  0
    8.9960   -2.3380   25.5320 C   0  0  0  0  0  0  0  0  0  0  0  0
    9.6730   -3.4710   23.5300 C   0  0  0  0  0  0  0  0  0  0  0  0
   10.9519    2.1358   22.8715 C   0  0  0  0  0  0  0  0  0  0  0  0
    9.3350   -1.0880   23.5010 C   0  0  0  0  0  0  0  0  0  0  0  0
    5.8300    0.9190   18.6970 C   0  0  0  0  0  0  0  0  0  0  0  0
    6.1790    0.5730   19.9990 C   0  0  0  0  0  0  0  0  0  0  0  0
    9.3070   -3.5340   24.8780 C   0  0  0  0  0  0  0  0  0  0  0  0
    9.0420    0.3700   21.5280 C   0  0  0  0  0  0  0  0  0  0  0  0
    9.5904   -5.8808   24.7807 C   0  0  0  0  0  0  0  0  0  0  0  0
    9.8870    1.3260   23.5730 C   0  0  0  0  0  0  0  0  0  0  0  0
    9.4560    0.1560   22.8130 C   0  0  2  0  0  0  0  0  0  0  0  0
    6.7580    0.3810   17.8350 N   0  0  0  0  0  0  0  0  0  0  0  0
    7.6390   -0.2680   18.5410 N   0  0  0  0  0  0  0  0  0  0  0  0
    7.3170   -0.1610   19.8550 N   0  0  0  0  0  0  0  0  0  0  0  0
    8.1890   -0.7180   20.8700 N   0  0  0  0  0  0  0  0  0  0  0  0
    9.2690    1.4140   20.9380 O   0  0  0  0  0  0  0  0  0  0  0  0
    9.2567   -4.7121   25.5280 O   0  0  0  0  0  0  0  0  0  0  0  0
   13.6830    4.2150   21.0713 H   0  0  0  0  0  0  0  0  0  0  0  0
   14.3329    2.3708   22.5984 H   0  0  0  0  0  0  0  0  0  0  0  0
   11.2842    4.7283   20.6970 H   0  0  0  0  0  0  0  0  0  0  0  0
    3.0136    2.6526   19.3908 H   0  0  0  0  0  0  0  0  0  0  0  0
    3.6480    2.0140   21.6821 H   0  0  0  0  0  0  0  0  0  0  0  0
   12.5944    1.0411   23.7490 H   0  0  0  0  0  0  0  0  0  0  0  0
    9.5383    3.4046   21.8428 H   0  0  0  0  0  0  0  0  0  0  0  0
    8.9224   -0.1986   25.4209 H   0  0  0  0  0  0  0  0  0  0  0  0
   10.0638   -2.2321   21.8253 H   0  0  0  0  0  0  0  0  0  0  0  0
    4.4042    1.9741   17.4524 H   0  0  0  0  0  0  0  0  0  0  0  0
    5.7089    0.6919   22.1150 H   0  0  0  0  0  0  0  0  0  0  0  0
    8.6903   -2.3588   26.5807 H   0  0  0  0  0  0  0  0  0  0  0  0
    9.9258   -4.3917   22.9962 H   0  0  0  0  0  0  0  0  0  0  0  0
    9.5095   -6.7607   25.4235 H   0  0  0  0  0  0  0  0  0  0  0  0
   10.6094   -5.7898   24.3961 H   0  0  0  0  0  0  0  0  0  0  0  0
    8.8947   -5.9784   23.9439 H   0  0  0  0  0  0  0  0  0  0  0  0
   10.2899    1.0067   24.5442 H   0  0  0  0  0  0  0  0  0  0  0  0
    9.0336    1.9722   23.8180 H   0  0  0  0  0  0  0  0  0  0  0  0
   10.7792   -0.1072   22.4110 H   0  0  0  0  0  0  0  0  0  0  0  0
    8.2712   -1.5583   21.1209 H   0  0  0  0  0  0  0  0  0  0  0  0
  1  2  1  0  0  0  0
  1  3  2  0  0  0  0
  2  6  2  0  0  0  0
  3  7  1  0  0  0  0
  4  5  1  0  0  0  0
  4 10  2  0  0  0  0
  5 11  2  0  0  0  0
  6 14  1  0  0  0  0
  7 14  2  0  0  0  0
  8 12  2  0  0  0  0
  8 15  1  0  0  0  0
  9 13  1  0  0  0  0
  9 15  2  0  0  0  0
 10 16  1  0  0  0  0
 11 17  1  0  0  0  0
 12 18  1  0  0  0  0
 13 18  2  0  0  0  0
 14 21  1  0  0  0  0
 15 22  1  0  0  0  0
 16 17  2  0  0  0  0
 16 23  1  0  0  0  0
 17 25  1  0  0  0  0
 18 28  1  0  0  0  0
 19 22  1  0  0  0  0
 19 26  1  0  0  0  0
 19 27  2  0  0  0  0
 20 28  1  0  0  0  0
 21 22  1  6  0  0  0
 23 24  2  0  0  0  0
 24 25  1  0  0  0  0
 25 26  1  0  0  0  0
  1 29  1  0  0  0  0
  2 30  1  0  0  0  0
  3 31  1  0  0  0  0
  4 32  1  0  0  0  0
  5 33  1  0  0  0  0
  6 34  1  0  0  0  0
  7 35  1  0  0  0  0
  8 36  1  0  0  0  0
  9 37  1  0  0  0  0
 10 38  1  0  0  0  0
 11 39  1  0  0  0  0
 12 40  1  0  0  0  0
 13 41  1  0  0  0  0
 20 42  1  0  0  0  0
 20 43  1  0  0  0  0
 20 44  1  0  0  0  0
 21 45  1  0  0  0  0
 21 46  1  0  0  0  0
 22 47  1  0  0  0  0
 26 48  1  0  0  0  0
M  END
> <clash_score>
0.6231716091146392

> <docking_score>
-8.61623477935791

> <overlap_score>
0.9407777190208435

$$$$
BENZO_184_1
  -OEChem-08222022173D

 45 48  0     1  0  0  0  0  0999 V2000
    3.9160    2.0630   19.5520 C   0  0  0  0  0  0  0  0  0  0  0  0
    4.2750    1.7050   20.8490 C   0  0  0  0  0  0  0  0  0  0  0  0
    9.0720   -1.1280   24.8640 C   0  0  0  0  0  0  0  0  0  0  0  0
    9.7200   -2.2600   22.8630 C   0  0  0  0  0  0  0  0  0  0  0  0
    4.6890    1.6810   18.4640 C   0  0  0  0  0  0  0  0  0  0  0  0
    5.4210    0.9600   21.0930 C   0  0  0  0  0  0  0  0  0  0  0  0
    8.9960   -2.3380   25.5320 C   0  0  0  0  0  0  0  0  0  0  0  0
    9.6730   -3.4710   23.5300 C   0  0  0  0  0  0  0  0  0  0  0  0
   12.3421    0.5158   23.4032 C   0  0  0  0  0  0  0  0  0  0  0  0
   13.6305    1.0023   23.3744 C   0  0  0  0  0  0  0  0  0  0  0  0
   11.9672    2.8035   23.5716 C   0  0  0  0  0  0  0  0  0  0  0  0
    9.3350   -1.0880   23.5010 C   0  0  0  0  0  0  0  0  0  0  0  0
   11.3785    1.5592   23.5173 C   0  0  0  0  0  0  0  0  0  0  0  0
    5.8300    0.9190   18.6970 C   0  0  0  0  0  0  0  0  0  0  0  0
    6.1790    0.5730   19.9990 C   0  0  0  0  0  0  0  0  0  0  0  0
    9.3070   -3.5340   24.8780 C   0  0  0  0  0  0  0  0  0  0  0  0
    9.0420    0.3700   21.5280 C   0  0  0  0  0  0  0  0  0  0  0  0
    9.5904   -5.8808   24.7807 C   0  0  0  0  0  0  0  0  0  0  0  0
    9.8870    1.3260   23.5730 C   0  0  0  0  0  0  0  0  0  0  0  0
    9.4560    0.1560   22.8130 C   0  0  1  0  0  0  0  0  0  0  0  0
    6.7580    0.3810   17.8350 N   0  0  0  0  0  0  0  0  0  0  0  0
    7.6390   -0.2680   18.5410 N   0  0  0  0  0  0  0  0  0  0  0  0
    7.3170   -0.1610   19.8550 N   0  0  0  0  0  0  0  0  0  0  0  0
    8.1890   -0.7180   20.8700 N   0  0  0  0  0  0  0  0  0  0  0  0
    9.2690    1.4140   20.9380 O   0  0  0  0  0  0  0  0  0  0  0  0
    9.2567   -4.7121   25.5280 O   0  0  0  0  0  0  0  0  0  0  0  0
   13.6749    2.7106   23.4848 S   0  0  0  0  0  0  0  0  0  0  0  0
    3.0136    2.6526   19.3908 H   0  0  0  0  0  0  0  0  0  0  0  0
    3.6480    2.0140   21.6821 H   0  0  0  0  0  0  0  0  0  0  0  0
    8.9224   -0.1986   25.4209 H   0  0  0  0  0  0  0  0  0  0  0  0
   10.0638   -2.2321   21.8253 H   0  0  0  0  0  0  0  0  0  0  0  0
    4.4042    1.9741   17.4524 H   0  0  0  0  0  0  0  0  0  0  0  0
    5.7089    0.6919   22.1150 H   0  0  0  0  0  0  0  0  0  0  0  0
    8.6903   -2.3588   26.5807 H   0  0  0  0  0  0  0  0  0  0  0  0
    9.9258   -4.3917   22.9962 H   0  0  0  0  0  0  0  0  0  0  0  0
   12.1065   -0.5394   23.3454 H   0  0  0  0  0  0  0  0  0  0  0  0
   14.5479    0.4364   23.2946 H   0  0  0  0  0  0  0  0  0  0  0  0
   11.4802    3.7648   23.6592 H   0  0  0  0  0  0  0  0  0  0  0  0
    9.5095   -6.7607   25.4235 H   0  0  0  0  0  0  0  0  0  0  0  0
   10.6094   -5.7898   24.3961 H   0  0  0  0  0  0  0  0  0  0  0  0
    8.8947   -5.9784   23.9439 H   0  0  0  0  0  0  0  0  0  0  0  0
    9.6026    1.2057   24.6276 H   0  0  0  0  0  0  0  0  0  0  0  0
    9.3596    2.2290   23.2378 H   0  0  0  0  0  0  0  0  0  0  0  0
    8.0683    0.4897   23.2524 H   0  0  0  0  0  0  0  0  0  0  0  0
    8.2712   -1.5583   21.1209 H   0  0  0  0  0  0  0  0  0  0  0  0
  1  2  1  0  0  0  0
  1  5  2  0  0  0  0
  2  6  2  0  0  0  0
  3  7  2  0  0  0  0
  3 12  1  0  0  0  0
  4  8  1  0  0  0  0
  4 12  2  0  0  0  0
  5 14  1  0  0  0  0
  6 15  1  0  0  0  0
  7 16  1  0  0  0  0
  8 16  2  0  0  0  0
  9 10  2  0  0  0  0
  9 13  1  0  0  0  0
 10 27  1  0  0  0  0
 11 13  2  0  0  0  0
 11 27  1  0  0  0  0
 12 20  1  0  0  0  0
 13 19  1  0  0  0  0
 14 15  2  0  0  0  0
 14 21  1  0  0  0  0
 15 23  1  0  0  0  0
 16 26  1  0  0  0  0
 17 20  1  0  0  0  0
 17 24  1  0  0  0  0
 17 25  2  0  0  0  0
 18 26  1  0  0  0  0
 19 20  1  1  0  0  0
 21 22  2  0  0  0  0
 22 23  1  0  0  0  0
 23 24  1  0  0  0  0
  1 28  1  0  0  0  0
  2 29  1  0  0  0  0
  3 30  1  0  0  0  0
  4 31  1  0  0  0  0
  5 32  1  0  0  0  0
  6 33  1  0  0  0  0
  7 34  1  0  0  0  0
  8 35  1  0  0  0  0
  9 36  1  0  0  0  0
 10 37  1  0  0  0  0
 11 38  1  0  0  0  0
 18 39  1  0  0  0  0
 18 40  1  0  0  0  0
 18 41  1  0  0  0  0
 19 42  1  0  0  0  0
 19 43  1  0  0  0  0
 20 44  1  0  0  0  0
 24 45  1  0  0  0  0
M  END
> <clash_score>
0

> <docking_score>
-9.050738334655762

> <overlap_score>
0.9686251282691956

$$$$
BENZO_184_2
  -OEChem-08222022173D

 45 48  0     1  0  0  0  0  0999 V2000
    3.9160    2.0630   19.5520 C   0  0  0  0  0  0  0  0  0  0  0  0
    4.2750    1.7050   20.8490 C   0  0  0  0  0  0  0  0  0  0  0  0
    9.0720   -1.1280   24.8640 C   0  0  0  0  0  0  0  0  0  0  0  0
    9.7200   -2.2600   22.8630 C   0  0  0  0  0  0  0  0  0  0  0  0
    4.6890    1.6810   18.4640 C   0  0  0  0  0  0  0  0  0  0  0  0
    5.4210    0.9600   21.0930 C   0  0  0  0  0  0  0  0  0  0  0  0
    8.9960   -2.3380   25.5320 C   0  0  0  0  0  0  0  0  0  0  0  0
    9.6730   -3.4710   23.5300 C   0  0  0  0  0  0  0  0  0  0  0  0
   12.4120    0.7557   23.6805 C   0  0  0  0  0  0  0  0  0  0  0  0
   13.4422    0.6233   24.5853 C   0  0  0  0  0  0  0  0  0  0  0  0
   11.3266    1.2397   25.6779 C   0  0  0  0  0  0  0  0  0  0  0  0
    9.3350   -1.0880   23.5010 C   0  0  0  0  0  0  0  0  0  0  0  0
   11.1864    1.1129   24.3133 C   0  0  0  0  0  0  0  0  0  0  0  0
    5.8300    0.9190   18.6970 C   0  0  0  0  0  0  0  0  0  0  0  0
    6.1790    0.5730   19.9990 C   0  0  0  0  0  0  0  0  0  0  0  0
    9.3070   -3.5340   24.8780 C   0  0  0  0  0  0  0  0  0  0  0  0
    9.0420    0.3700   21.5280 C   0  0  0  0  0  0  0  0  0  0  0  0
    8.8744   -4.6797   26.9022 C   0  0  0  0  0  0  0  0  0  0  0  0
    9.8870    1.3260   23.5730 C   0  0  0  0  0  0  0  0  0  0  0  0
    9.4560    0.1560   22.8130 C   0  0  2  0  0  0  0  0  0  0  0  0
    6.7580    0.3810   17.8350 N   0  0  0  0  0  0  0  0  0  0  0  0
    7.6390   -0.2680   18.5410 N   0  0  0  0  0  0  0  0  0  0  0  0
    7.3170   -0.1610   19.8550 N   0  0  0  0  0  0  0  0  0  0  0  0
    8.1890   -0.7180   20.8700 N   0  0  0  0  0  0  0  0  0  0  0  0
    9.2690    1.4140   20.9380 O   0  0  0  0  0  0  0  0  0  0  0  0
    9.2567   -4.7121   25.5280 O   0  0  0  0  0  0  0  0  0  0  0  0
   12.9305    0.9290   26.1907 S   0  0  0  0  0  0  0  0  0  0  0  0
    3.0136    2.6526   19.3908 H   0  0  0  0  0  0  0  0  0  0  0  0
    3.6480    2.0140   21.6821 H   0  0  0  0  0  0  0  0  0  0  0  0
    8.9224   -0.1986   25.4209 H   0  0  0  0  0  0  0  0  0  0  0  0
   10.0638   -2.2321   21.8253 H   0  0  0  0  0  0  0  0  0  0  0  0
    4.4042    1.9741   17.4524 H   0  0  0  0  0  0  0  0  0  0  0  0
    5.7089    0.6919   22.1150 H   0  0  0  0  0  0  0  0  0  0  0  0
    8.6903   -2.3588   26.5807 H   0  0  0  0  0  0  0  0  0  0  0  0
    9.9258   -4.3917   22.9962 H   0  0  0  0  0  0  0  0  0  0  0  0
   12.5361    0.6022   22.6159 H   0  0  0  0  0  0  0  0  0  0  0  0
   14.4706    0.3610   24.3807 H   0  0  0  0  0  0  0  0  0  0  0  0
   10.5663    1.4985   26.4019 H   0  0  0  0  0  0  0  0  0  0  0  0
    8.8744   -5.6954   27.3053 H   0  0  0  0  0  0  0  0  0  0  0  0
    7.8781   -4.2399   26.9939 H   0  0  0  0  0  0  0  0  0  0  0  0
    9.5921   -4.0702   27.4565 H   0  0  0  0  0  0  0  0  0  0  0  0
    9.1168    1.5904   24.3109 H   0  0  0  0  0  0  0  0  0  0  0  0
    9.9726    2.2073   22.9235 H   0  0  0  0  0  0  0  0  0  0  0  0
   10.7792   -0.1072   22.4110 H   0  0  0  0  0  0  0  0  0  0  0  0
    8.2712   -1.5583   21.1209 H   0  0  0  0  0  0  0  0  0  0  0  0
  1  2  1  0  0  0  0
  1  5  2  0  0  0  0
  2  6  2  0  0  0  0
  3  7  2  0  0  0  0
  3 12  1  0  0  0  0
  4  8  1  0  0  0  0
  4 12  2  0  0  0  0
  5 14  1  0  0  0  0
  6 15  1  0  0  0  0
  7 16  1  0  0  0  0
  8 16  2  0  0  0  0
  9 10  2  0  0  0  0
  9 13  1  0  0  0  0
 10 27  1  0  0  0  0
 11 13  2  0  0  0  0
 11 27  1  0  0  0  0
 12 20  1  0  0  0  0
 13 19  1  0  0  0  0
 14 15  2  0  0  0  0
 14 21  1  0  0  0  0
 15 23  1  0  0  0  0
 16 26  1  0  0  0  0
 17 20  1  0  0  0  0
 17 24  1  0  0  0  0
 17 25  2  0  0  0  0
 18 26  1  0  0  0  0
 19 20  1  6  0  0  0
 21 22  2  0  0  0  0
 22 23  1  0  0  0  0
 23 24  1  0  0  0  0
  1 28  1  0  0  0  0
  2 29  1  0  0  0  0
  3 30  1  0  0  0  0
  4 31  1  0  0  0  0
  5 32  1  0  0  0  0
  6 33  1  0  0  0  0
  7 34  1  0  0  0  0
  8 35  1  0  0  0  0
  9 36  1  0  0  0  0
 10 37  1  0  0  0  0
 11 38  1  0  0  0  0
 18 39  1  0  0  0  0
 18 40  1  0  0  0  0
 18 41  1  0  0  0  0
 19 42  1  0  0  0  0
 19 43  1  0  0  0  0
 20 44  1  0  0  0  0
 24 45  1  0  0  0  0
M  END
> <clash_score>
0.6256197707787204

> <docking_score>
-7.171897888183594

> <overlap_score>
0.8925510048866272

$$$$
BENZO_186_1
  -OEChem-08222022173D

 48 51  0     1  0  0  0  0  0999 V2000
    3.9160    2.0630   19.5520 C   0  0  0  0  0  0  0  0  0  0  0  0
    4.2750    1.7050   20.8490 C   0  0  0  0  0  0  0  0  0  0  0  0
   13.6250    0.6929   23.3186 C   0  0  0  0  0  0  0  0  0  0  0  0
   12.2478    0.4782   23.3713 C   0  0  0  0  0  0  0  0  0  0  0  0
    9.0720   -1.1280   24.8640 C   0  0  0  0  0  0  0  0  0  0  0  0
    9.7200   -2.2600   22.8630 C   0  0  0  0  0  0  0  0  0  0  0  0
    4.6890    1.6810   18.4640 C   0  0  0  0  0  0  0  0  0  0  0  0
    5.4210    0.9600   21.0930 C   0  0  0  0  0  0  0  0  0  0  0  0
    8.9960   -2.3380   25.5320 C   0  0  0  0  0  0  0  0  0  0  0  0
    9.6730   -3.4710   23.5300 C   0  0  0  0  0  0  0  0  0  0  0  0
   14.1329    1.9886   23.4121 C   0  0  0  0  0  0  0  0  0  0  0  0
   11.8864    2.8550   23.6107 C   0  0  0  0  0  0  0  0  0  0  0  0
    9.3350   -1.0880   23.5010 C   0  0  0  0  0  0  0  0  0  0  0  0
   11.3785    1.5592   23.5173 C   0  0  0  0  0  0  0  0  0  0  0  0
    5.8300    0.9190   18.6970 C   0  0  0  0  0  0  0  0  0  0  0  0
    6.1790    0.5730   19.9990 C   0  0  0  0  0  0  0  0  0  0  0  0
    9.3070   -3.5340   24.8780 C   0  0  0  0  0  0  0  0  0  0  0  0
   13.2636    3.0696   23.5581 C   0  0  0  0  0  0  0  0  0  0  0  0
    9.0420    0.3700   21.5280 C   0  0  0  0  0  0  0  0  0  0  0  0
    8.8744   -4.6797   26.9022 C   0  0  0  0  0  0  0  0  0  0  0  0
    9.8870    1.3260   23.5730 C   0  0  0  0  0  0  0  0  0  0  0  0
    9.4560    0.1560   22.8130 C   0  0  1  0  0  0  0  0  0  0  0  0
    6.7580    0.3810   17.8350 N   0  0  0  0  0  0  0  0  0  0  0  0
    7.6390   -0.2680   18.5410 N   0  0  0  0  0  0  0  0  0  0  0  0
    7.3170   -0.1610   19.8550 N   0  0  0  0  0  0  0  0  0  0  0  0
    8.1890   -0.7180   20.8700 N   0  0  0  0  0  0  0  0  0  0  0  0
    9.2690    1.4140   20.9380 O   0  0  0  0  0  0  0  0  0  0  0  0
    9.2567   -4.7121   25.5280 O   0  0  0  0  0  0  0  0  0  0  0  0
   13.8909    4.6682   23.6722 Cl  0  0  0  0  0  0  0  0  0  0  0  0
    3.0136    2.6526   19.3908 H   0  0  0  0  0  0  0  0  0  0  0  0
    3.6480    2.0140   21.6821 H   0  0  0  0  0  0  0  0  0  0  0  0
   14.3015   -0.1492   23.2047 H   0  0  0  0  0  0  0  0  0  0  0  0
   11.8608   -0.5348   23.2975 H   0  0  0  0  0  0  0  0  0  0  0  0
    8.9224   -0.1986   25.4209 H   0  0  0  0  0  0  0  0  0  0  0  0
   10.0638   -2.2321   21.8253 H   0  0  0  0  0  0  0  0  0  0  0  0
    4.4042    1.9741   17.4524 H   0  0  0  0  0  0  0  0  0  0  0  0
    5.7089    0.6919   22.1150 H   0  0  0  0  0  0  0  0  0  0  0  0
    8.6903   -2.3588   26.5807 H   0  0  0  0  0  0  0  0  0  0  0  0
    9.9258   -4.3917   22.9962 H   0  0  0  0  0  0  0  0  0  0  0  0
   15.2086    2.1410   23.3692 H   0  0  0  0  0  0  0  0  0  0  0  0
   11.2045    3.6944   23.7250 H   0  0  0  0  0  0  0  0  0  0  0  0
    8.8744   -5.6954   27.3053 H   0  0  0  0  0  0  0  0  0  0  0  0
    7.8781   -4.2399   26.9939 H   0  0  0  0  0  0  0  0  0  0  0  0
    9.5921   -4.0702   27.4565 H   0  0  0  0  0  0  0  0  0  0  0  0
    9.6026    1.2057   24.6276 H   0  0  0  0  0  0  0  0  0  0  0  0
    9.3596    2.2290   23.2378 H   0  0  0  0  0  0  0  0  0  0  0  0
    8.0683    0.4897   23.2524 H   0  0  0  0  0  0  0  0  0  0  0  0
    8.2712   -1.5583   21.1209 H   0  0  0  0  0  0  0  0  0  0  0  0
  1  2  1  0  0  0  0
  1  7  2  0  0  0  0
  2  8  2  0  0  0  0
  3  4  2  0  0  0  0
  3 11  1  0  0  0  0
  4 14  1  0  0  0  0
  5  9  2  0  0  0  0
  5 13  1  0  0  0  0
  6 10  1  0  0  0  0
  6 13  2  0  0  0  0
  7 15  1  0  0  0  0
  8 16  1  0  0  0  0
  9 17  1  0  0  0  0
 10 17  2  0  0  0  0
 11 18  2  0  0  0  0
 12 14  2  0  0  0  0
 12 18  1  0  0  0  0
 13 22  1  0  0  0  0
 14 21  1  0  0  0  0
 15 16  2  0  0  0  0
 15 23  1  0  0  0  0
 16 25  1  0  0  0  0
 17 28  1  0  0  0  0
 18 29  1  0  0  0  0
 19 22  1  0  0  0  0
 19 26  1  0  0  0  0
 19 27  2  0  0  0  0
 20 28  1  0  0  0  0
 21 22  1  1  0  0  0
 23 24  2  0  0  0  0
 24 25  1  0  0  0  0
 25 26  1  0  0  0  0
  1 30  1  0  0  0  0
  2 31  1  0  0  0  0
  3 32  1  0  0  0  0
  4 33  1  0  0  0  0
  5 34  1  0  0  0  0
  6 35  1  0  0  0  0
  7 36  1  0  0  0  0
  8 37  1  0  0  0  0
  9 38  1  0  0  0  0
 10 39  1  0  0  0  0
 11 40  1  0  0  0  0
 12 41  1  0  0  0  0
 20 42  1  0  0  0  0
 20 43  1  0  0  0  0
 20 44  1  0  0  0  0
 21 45  1  0  0  0  0
 21 46  1  0  0  0  0
 22 47  1  0  0  0  0
 26 48  1  0  0  0  0
M  END
> <clash_score>
0

> <docking_score>
-8.272571563720703

> <overlap_score>
0.9838542938232422

$$$$
BENZO_187_1
  -OEChem-08222022173D

 48 51  0     1  0  0  0  0  0999 V2000
    3.9160    2.0630   19.5520 C   0  0  0  0  0  0  0  0  0  0  0  0
    4.2750    1.7050   20.8490 C   0  0  0  0  0  0  0  0  0  0  0  0
    9.0720   -1.1280   24.8640 C   0  0  0  0  0  0  0  0  0  0  0  0
    9.7200   -2.2600   22.8630 C   0  0  0  0  0  0  0  0  0  0  0  0
    4.6890    1.6810   18.4640 C   0  0  0  0  0  0  0  0  0  0  0  0
    5.4210    0.9600   21.0930 C   0  0  0  0  0  0  0  0  0  0  0  0
    8.9960   -2.3380   25.5320 C   0  0  0  0  0  0  0  0  0  0  0  0
    9.6730   -3.4710   23.5300 C   0  0  0  0  0  0  0  0  0  0  0  0
   12.0646    2.7858   23.5979 C   0  0  0  0  0  0  0  0  0  0  0  0
   12.3704    0.6193   23.3790 C   0  0  0  0  0  0  0  0  0  0  0  0
    9.3350   -1.0880   23.5010 C   0  0  0  0  0  0  0  0  0  0  0  0
   11.3785    1.5592   23.5173 C   0  0  0  0  0  0  0  0  0  0  0  0
    5.8300    0.9190   18.6970 C   0  0  0  0  0  0  0  0  0  0  0  0
    6.1790    0.5730   19.9990 C   0  0  0  0  0  0  0  0  0  0  0  0
    9.3070   -3.5340   24.8780 C   0  0  0  0  0  0  0  0  0  0  0  0
    9.0420    0.3700   21.5280 C   0  0  0  0  0  0  0  0  0  0  0  0
   14.8700    0.7541   23.2663 C   0  0  0  0  0  0  0  0  0  0  0  0
    8.8744   -4.6797   26.9022 C   0  0  0  0  0  0  0  0  0  0  0  0
    9.8870    1.3260   23.5730 C   0  0  0  0  0  0  0  0  0  0  0  0
    9.4560    0.1560   22.8130 C   0  0  1  0  0  0  0  0  0  0  0  0
   13.3900    2.6414   23.5177 N   0  0  0  0  0  0  0  0  0  0  0  0
    6.7580    0.3810   17.8350 N   0  0  0  0  0  0  0  0  0  0  0  0
    7.6390   -0.2680   18.5410 N   0  0  0  0  0  0  0  0  0  0  0  0
   13.5447    1.3130   23.3854 N   0  0  0  0  0  0  0  0  0  0  0  0
    7.3170   -0.1610   19.8550 N   0  0  0  0  0  0  0  0  0  0  0  0
    8.1890   -0.7180   20.8700 N   0  0  0  0  0  0  0  0  0  0  0  0
    9.2690    1.4140   20.9380 O   0  0  0  0  0  0  0  0  0  0  0  0
    9.2567   -4.7121   25.5280 O   0  0  0  0  0  0  0  0  0  0  0  0
    3.0136    2.6526   19.3908 H   0  0  0  0  0  0  0  0  0  0  0  0
    3.6480    2.0140   21.6821 H   0  0  0  0  0  0  0  0  0  0  0  0
    8.9224   -0.1986   25.4209 H   0  0  0  0  0  0  0  0  0  0  0  0
   10.0638   -2.2321   21.8253 H   0  0  0  0  0  0  0  0  0  0  0  0
    4.4042    1.9741   17.4524 H   0  0  0  0  0  0  0  0  0  0  0  0
    5.7089    0.6919   22.1150 H   0  0  0  0  0  0  0  0  0  0  0  0
    8.6903   -2.3588   26.5807 H   0  0  0  0  0  0  0  0  0  0  0  0
    9.9258   -4.3917   22.9962 H   0  0  0  0  0  0  0  0  0  0  0  0
   11.6563    3.7799   23.7126 H   0  0  0  0  0  0  0  0  0  0  0  0
   12.3415   -0.4574   23.2805 H   0  0  0  0  0  0  0  0  0  0  0  0
   15.1278    0.7207   22.2045 H   0  0  0  0  0  0  0  0  0  0  0  0
   15.5801    1.3811   23.8126 H   0  0  0  0  0  0  0  0  0  0  0  0
   14.8776   -0.2522   23.6945 H   0  0  0  0  0  0  0  0  0  0  0  0
    8.8744   -5.6954   27.3053 H   0  0  0  0  0  0  0  0  0  0  0  0
    7.8781   -4.2399   26.9939 H   0  0  0  0  0  0  0  0  0  0  0  0
    9.5921   -4.0702   27.4565 H   0  0  0  0  0  0  0  0  0  0  0  0
    9.6026    1.2057   24.6276 H   0  0  0  0  0  0  0  0  0  0  0  0
    9.3596    2.2290   23.2378 H   0  0  0  0  0  0  0  0  0  0  0  0
    8.0683    0.4897   23.2524 H   0  0  0  0  0  0  0  0  0  0  0  0
    8.2712   -1.5583   21.1209 H   0  0  0  0  0  0  0  0  0  0  0  0
  1  2  1  0  0  0  0
  1  5  2  0  0  0  0
  2  6  2  0  0  0  0
  3  7  2  0  0  0  0
  3 11  1  0  0  0  0
  4  8  1  0  0  0  0
  4 11  2  0  0  0  0
  5 13  1  0  0  0  0
  6 14  1  0  0  0  0
  7 15  1  0  0  0  0
  8 15  2  0  0  0  0
  9 12  1  0  0  0  0
  9 21  2  0  0  0  0
 10 12  2  0  0  0  0
 10 24  1  0  0  0  0
 11 20  1  0  0  0  0
 12 19  1  0  0  0  0
 13 14  2  0  0  0  0
 13 22  1  0  0  0  0
 14 25  1  0  0  0  0
 15 28  1  0  0  0  0
 16 20  1  0  0  0  0
 16 26  1  0  0  0  0
 16 27  2  0  0  0  0
 17 24  1  0  0  0  0
 18 28  1  0  0  0  0
 19 20  1  1  0  0  0
 21 24  1  0  0  0  0
 22 23  2  0  0  0  0
 23 25  1  0  0  0  0
 25 26  1  0  0  0  0
  1 29  1  0  0  0  0
  2 30  1  0  0  0  0
  3 31  1  0  0  0  0
  4 32  1  0  0  0  0
  5 33  1  0  0  0  0
  6 34  1  0  0  0  0
  7 35  1  0  0  0  0
  8 36  1  0  0  0  0
  9 37  1  0  0  0  0
 10 38  1  0  0  0  0
 17 39  1  0  0  0  0
 17 40  1  0  0  0  0
 17 41  1  0  0  0  0
 18 42  1  0  0  0  0
 18 43  1  0  0  0  0
 18 44  1  0  0  0  0
 19 45  1  0  0  0  0
 19 46  1  0  0  0  0
 20 47  1  0  0  0  0
 26 48  1  0  0  0  0
M  END
> <clash_score>
0

> <docking_score>
-8.643314361572266

> <overlap_score>
0.9829104542732239

$$$$
BENZO_186_2
  -OEChem-08222022173D

 48 51  0     1  0  0  0  0  0999 V2000
    3.9160    2.0630   19.5520 C   0  0  0  0  0  0  0  0  0  0  0  0
    4.2750    1.7050   20.8490 C   0  0  0  0  0  0  0  0  0  0  0  0
   11.5691    3.9221   21.3665 C   0  0  0  0  0  0  0  0  0  0  0  0
   10.5863    3.1732   22.0137 C   0  0  0  0  0  0  0  0  0  0  0  0
    9.0720   -1.1280   24.8640 C   0  0  0  0  0  0  0  0  0  0  0  0
    9.7200   -2.2600   22.8630 C   0  0  0  0  0  0  0  0  0  0  0  0
    4.6890    1.6810   18.4640 C   0  0  0  0  0  0  0  0  0  0  0  0
    5.4210    0.9600   21.0930 C   0  0  0  0  0  0  0  0  0  0  0  0
    8.9960   -2.3380   25.5320 C   0  0  0  0  0  0  0  0  0  0  0  0
    9.6730   -3.4710   23.5300 C   0  0  0  0  0  0  0  0  0  0  0  0
   12.9175    3.6336   21.5770 C   0  0  0  0  0  0  0  0  0  0  0  0
   12.3003    1.8473   23.0820 C   0  0  0  0  0  0  0  0  0  0  0  0
    9.3350   -1.0880   23.5010 C   0  0  0  0  0  0  0  0  0  0  0  0
   10.9519    2.1358   22.8715 C   0  0  0  0  0  0  0  0  0  0  0  0
    5.8300    0.9190   18.6970 C   0  0  0  0  0  0  0  0  0  0  0  0
    6.1790    0.5730   19.9990 C   0  0  0  0  0  0  0  0  0  0  0  0
    9.3070   -3.5340   24.8780 C   0  0  0  0  0  0  0  0  0  0  0  0
   13.2831    2.5962   22.4348 C   0  0  0  0  0  0  0  0  0  0  0  0
    9.0420    0.3700   21.5280 C   0  0  0  0  0  0  0  0  0  0  0  0
    8.8744   -4.6797   26.9022 C   0  0  0  0  0  0  0  0  0  0  0  0
    9.8870    1.3260   23.5730 C   0  0  0  0  0  0  0  0  0  0  0  0
    9.4560    0.1560   22.8130 C   0  0  2  0  0  0  0  0  0  0  0  0
    6.7580    0.3810   17.8350 N   0  0  0  0  0  0  0  0  0  0  0  0
    7.6390   -0.2680   18.5410 N   0  0  0  0  0  0  0  0  0  0  0  0
    7.3170   -0.1610   19.8550 N   0  0  0  0  0  0  0  0  0  0  0  0
    8.1890   -0.7180   20.8700 N   0  0  0  0  0  0  0  0  0  0  0  0
    9.2690    1.4140   20.9380 O   0  0  0  0  0  0  0  0  0  0  0  0
    9.2567   -4.7121   25.5280 O   0  0  0  0  0  0  0  0  0  0  0  0
   14.9468    2.2414   22.6950 Cl  0  0  0  0  0  0  0  0  0  0  0  0
    3.0136    2.6526   19.3908 H   0  0  0  0  0  0  0  0  0  0  0  0
    3.6480    2.0140   21.6821 H   0  0  0  0  0  0  0  0  0  0  0  0
   11.2840    4.7300   20.6987 H   0  0  0  0  0  0  0  0  0  0  0  0
    9.5381    3.4052   21.8439 H   0  0  0  0  0  0  0  0  0  0  0  0
    8.9224   -0.1986   25.4209 H   0  0  0  0  0  0  0  0  0  0  0  0
   10.0638   -2.2321   21.8253 H   0  0  0  0  0  0  0  0  0  0  0  0
    4.4042    1.9741   17.4524 H   0  0  0  0  0  0  0  0  0  0  0  0
    5.7089    0.6919   22.1150 H   0  0  0  0  0  0  0  0  0  0  0  0
    8.6903   -2.3588   26.5807 H   0  0  0  0  0  0  0  0  0  0  0  0
    9.9258   -4.3917   22.9962 H   0  0  0  0  0  0  0  0  0  0  0  0
   13.6727    4.2258   21.0661 H   0  0  0  0  0  0  0  0  0  0  0  0
   12.5802    1.0371   23.7514 H   0  0  0  0  0  0  0  0  0  0  0  0
    8.8744   -5.6954   27.3053 H   0  0  0  0  0  0  0  0  0  0  0  0
    7.8781   -4.2399   26.9939 H   0  0  0  0  0  0  0  0  0  0  0  0
    9.5921   -4.0702   27.4565 H   0  0  0  0  0  0  0  0  0  0  0  0
   10.2899    1.0067   24.5442 H   0  0  0  0  0  0  0  0  0  0  0  0
    9.0336    1.9722   23.8180 H   0  0  0  0  0  0  0  0  0  0  0  0
   10.7792   -0.1072   22.4110 H   0  0  0  0  0  0  0  0  0  0  0  0
    8.2712   -1.5583   21.1209 H   0  0  0  0  0  0  0  0  0  0  0  0
  1  2  1  0  0  0  0
  1  7  2  0  0  0  0
  2  8  2  0  0  0  0
  3  4  2  0  0  0  0
  3 11  1  0  0  0  0
  4 14  1  0  0  0  0
  5  9  2  0  0  0  0
  5 13  1  0  0  0  0
  6 10  1  0  0  0  0
  6 13  2  0  0  0  0
  7 15  1  0  0  0  0
  8 16  1  0  0  0  0
  9 17  1  0  0  0  0
 10 17  2  0  0  0  0
 11 18  2  0  0  0  0
 12 14  2  0  0  0  0
 12 18  1  0  0  0  0
 13 22  1  0  0  0  0
 14 21  1  0  0  0  0
 15 16  2  0  0  0  0
 15 23  1  0  0  0  0
 16 25  1  0  0  0  0
 17 28  1  0  0  0  0
 18 29  1  0  0  0  0
 19 22  1  0  0  0  0
 19 26  1  0  0  0  0
 19 27  2  0  0  0  0
 20 28  1  0  0  0  0
 21 22  1  6  0  0  0
 23 24  2  0  0  0  0
 24 25  1  0  0  0  0
 25 26  1  0  0  0  0
  1 30  1  0  0  0  0
  2 31  1  0  0  0  0
  3 32  1  0  0  0  0
  4 33  1  0  0  0  0
  5 34  1  0  0  0  0
  6 35  1  0  0  0  0
  7 36  1  0  0  0  0
  8 37  1  0  0  0  0
  9 38  1  0  0  0  0
 10 39  1  0  0  0  0
 11 40  1  0  0  0  0
 12 41  1  0  0  0  0
 20 42  1  0  0  0  0
 20 43  1  0  0  0  0
 20 44  1  0  0  0  0
 21 45  1  0  0  0  0
 21 46  1  0  0  0  0
 22 47  1  0  0  0  0
 26 48  1  0  0  0  0
M  END
> <clash_score>
1.2304696716614671

> <docking_score>
-7.4126434326171875

> <overlap_score>
0.9477129578590393

$$$$
BENZO_187_2
  -OEChem-08222022173D

 48 51  0     1  0  0  0  0  0999 V2000
    3.9160    2.0630   19.5520 C   0  0  0  0  0  0  0  0  0  0  0  0
    4.2750    1.7050   20.8490 C   0  0  0  0  0  0  0  0  0  0  0  0
    9.0720   -1.1280   24.8640 C   0  0  0  0  0  0  0  0  0  0  0  0
    9.7200   -2.2600   22.8630 C   0  0  0  0  0  0  0  0  0  0  0  0
    4.6890    1.6810   18.4640 C   0  0  0  0  0  0  0  0  0  0  0  0
    5.4210    0.9600   21.0930 C   0  0  0  0  0  0  0  0  0  0  0  0
    8.9960   -2.3380   25.5320 C   0  0  0  0  0  0  0  0  0  0  0  0
    9.6730   -3.4710   23.5300 C   0  0  0  0  0  0  0  0  0  0  0  0
   12.3489    1.9871   22.9604 C   0  0  0  0  0  0  0  0  0  0  0  0
   10.7728    3.1825   22.0003 C   0  0  0  0  0  0  0  0  0  0  0  0
    9.3350   -1.0880   23.5010 C   0  0  0  0  0  0  0  0  0  0  0  0
   10.9519    2.1358   22.8715 C   0  0  0  0  0  0  0  0  0  0  0  0
    5.8300    0.9190   18.6970 C   0  0  0  0  0  0  0  0  0  0  0  0
    6.1790    0.5730   19.9990 C   0  0  0  0  0  0  0  0  0  0  0  0
    9.3070   -3.5340   24.8780 C   0  0  0  0  0  0  0  0  0  0  0  0
    9.0420    0.3700   21.5280 C   0  0  0  0  0  0  0  0  0  0  0  0
   12.3501    4.6554   20.7270 C   0  0  0  0  0  0  0  0  0  0  0  0
    8.8744   -4.6797   26.9022 C   0  0  0  0  0  0  0  0  0  0  0  0
    9.8870    1.3260   23.5730 C   0  0  0  0  0  0  0  0  0  0  0  0
    9.4560    0.1560   22.8130 C   0  0  2  0  0  0  0  0  0  0  0  0
   13.0104    2.8686   22.2058 N   0  0  0  0  0  0  0  0  0  0  0  0
    6.7580    0.3810   17.8350 N   0  0  0  0  0  0  0  0  0  0  0  0
    7.6390   -0.2680   18.5410 N   0  0  0  0  0  0  0  0  0  0  0  0
   12.0247    3.5812   21.6343 N   0  0  0  0  0  0  0  0  0  0  0  0
    7.3170   -0.1610   19.8550 N   0  0  0  0  0  0  0  0  0  0  0  0
    8.1890   -0.7180   20.8700 N   0  0  0  0  0  0  0  0  0  0  0  0
    9.2690    1.4140   20.9380 O   0  0  0  0  0  0  0  0  0  0  0  0
    9.2567   -4.7121   25.5280 O   0  0  0  0  0  0  0  0  0  0  0  0
    3.0136    2.6526   19.3908 H   0  0  0  0  0  0  0  0  0  0  0  0
    3.6480    2.0140   21.6821 H   0  0  0  0  0  0  0  0  0  0  0  0
    8.9224   -0.1986   25.4209 H   0  0  0  0  0  0  0  0  0  0  0  0
   10.0638   -2.2321   21.8253 H   0  0  0  0  0  0  0  0  0  0  0  0
    4.4042    1.9741   17.4524 H   0  0  0  0  0  0  0  0  0  0  0  0
    5.7089    0.6919   22.1150 H   0  0  0  0  0  0  0  0  0  0  0  0
    8.6903   -2.3588   26.5807 H   0  0  0  0  0  0  0  0  0  0  0  0
    9.9258   -4.3917   22.9962 H   0  0  0  0  0  0  0  0  0  0  0  0
   12.9149    1.2733   23.5422 H   0  0  0  0  0  0  0  0  0  0  0  0
    9.8832    3.6646   21.6181 H   0  0  0  0  0  0  0  0  0  0  0  0
   12.4467    5.5737   21.3122 H   0  0  0  0  0  0  0  0  0  0  0  0
   13.2892    4.4277   20.2151 H   0  0  0  0  0  0  0  0  0  0  0  0
   11.5530    4.7557   19.9850 H   0  0  0  0  0  0  0  0  0  0  0  0
    8.8744   -5.6954   27.3053 H   0  0  0  0  0  0  0  0  0  0  0  0
    7.8781   -4.2399   26.9939 H   0  0  0  0  0  0  0  0  0  0  0  0
    9.5921   -4.0702   27.4565 H   0  0  0  0  0  0  0  0  0  0  0  0
   10.2899    1.0067   24.5442 H   0  0  0  0  0  0  0  0  0  0  0  0
    9.0336    1.9722   23.8181 H   0  0  0  0  0  0  0  0  0  0  0  0
   10.7792   -0.1072   22.4110 H   0  0  0  0  0  0  0  0  0  0  0  0
    8.2712   -1.5583   21.1209 H   0  0  0  0  0  0  0  0  0  0  0  0
  1  2  1  0  0  0  0
  1  5  2  0  0  0  0
  2  6  2  0  0  0  0
  3  7  2  0  0  0  0
  3 11  1  0  0  0  0
  4  8  1  0  0  0  0
  4 11  2  0  0  0  0
  5 13  1  0  0  0  0
  6 14  1  0  0  0  0
  7 15  1  0  0  0  0
  8 15  2  0  0  0  0
  9 12  1  0  0  0  0
  9 21  2  0  0  0  0
 10 12  2  0  0  0  0
 10 24  1  0  0  0  0
 11 20  1  0  0  0  0
 12 19  1  0  0  0  0
 13 14  2  0  0  0  0
 13 22  1  0  0  0  0
 14 25  1  0  0  0  0
 15 28  1  0  0  0  0
 16 20  1  0  0  0  0
 16 26  1  0  0  0  0
 16 27  2  0  0  0  0
 17 24  1  0  0  0  0
 18 28  1  0  0  0  0
 19 20  1  6  0  0  0
 21 24  1  0  0  0  0
 22 23  2  0  0  0  0
 23 25  1  0  0  0  0
 25 26  1  0  0  0  0
  1 29  1  0  0  0  0
  2 30  1  0  0  0  0
  3 31  1  0  0  0  0
  4 32  1  0  0  0  0
  5 33  1  0  0  0  0
  6 34  1  0  0  0  0
  7 35  1  0  0  0  0
  8 36  1  0  0  0  0
  9 37  1  0  0  0  0
 10 38  1  0  0  0  0
 17 39  1  0  0  0  0
 17 40  1  0  0  0  0
 17 41  1  0  0  0  0
 18 42  1  0  0  0  0
 18 43  1  0  0  0  0
 18 44  1  0  0  0  0
 19 45  1  0  0  0  0
 19 46  1  0  0  0  0
 20 47  1  0  0  0  0
 26 48  1  0  0  0  0
M  END
> <clash_score>
0

> <docking_score>
-7.384726524353027

> <overlap_score>
0.9315465092658997

$$$$
BENZO_189_1
  -OEChem-08222022173D

 58 62  0     1  0  0  0  0  0999 V2000
   12.9099    3.6168   21.5463 C   0  0  0  0  0  0  0  0  0  0  0  0
   13.2786    2.5833   22.4074 C   0  0  0  0  0  0  0  0  0  0  0  0
   11.5608    3.9073   21.3428 C   0  0  0  0  0  0  0  0  0  0  0  0
    3.9160    2.0630   19.5520 C   0  0  0  0  0  0  0  0  0  0  0  0
    4.2750    1.7050   20.8490 C   0  0  0  0  0  0  0  0  0  0  0  0
   12.2983    1.8402   23.0649 C   0  0  0  0  0  0  0  0  0  0  0  0
   10.5805    3.1641   22.0003 C   0  0  0  0  0  0  0  0  0  0  0  0
    9.0720   -1.1280   24.8640 C   0  0  0  0  0  0  0  0  0  0  0  0
    9.7200   -2.2600   22.8630 C   0  0  0  0  0  0  0  0  0  0  0  0
    4.6890    1.6810   18.4640 C   0  0  0  0  0  0  0  0  0  0  0  0
    5.4210    0.9600   21.0930 C   0  0  0  0  0  0  0  0  0  0  0  0
    8.9960   -2.3380   25.5320 C   0  0  0  0  0  0  0  0  0  0  0  0
    9.6730   -3.4710   23.5300 C   0  0  0  0  0  0  0  0  0  0  0  0
   10.9492    2.1306   22.8614 C   0  0  0  0  0  0  0  0  0  0  0  0
    9.3350   -1.0880   23.5010 C   0  0  0  0  0  0  0  0  0  0  0  0
    5.8300    0.9190   18.6970 C   0  0  0  0  0  0  0  0  0  0  0  0
    6.1790    0.5730   19.9990 C   0  0  0  0  0  0  0  0  0  0  0  0
    9.3070   -3.5340   24.8780 C   0  0  0  0  0  0  0  0  0  0  0  0
    8.3596   -5.0074   26.6306 C   0  0  0  0  0  0  0  0  0  0  0  0
    9.0420    0.3700   21.5280 C   0  0  0  0  0  0  0  0  0  0  0  0
    8.4719   -6.3982   27.2294 C   0  0  0  0  0  0  0  0  0  0  0  0
    9.9251   -6.7607   27.4801 C   0  0  0  0  0  0  0  0  0  0  0  0
   10.7833   -6.6095   26.2280 C   0  0  0  0  0  0  0  0  0  0  0  0
   10.0539   -5.9100   25.0821 C   0  0  0  0  0  0  0  0  0  0  0  0
    9.8870    1.3260   23.5730 C   0  0  0  0  0  0  0  0  0  0  0  0
    9.4560    0.1560   22.8130 C   0  0  1  0  0  0  0  0  0  0  0  0
    6.7580    0.3810   17.8350 N   0  0  0  0  0  0  0  0  0  0  0  0
    7.6390   -0.2680   18.5410 N   0  0  0  0  0  0  0  0  0  0  0  0
    7.3170   -0.1610   19.8550 N   0  0  0  0  0  0  0  0  0  0  0  0
    9.2529   -4.7797   25.5643 N   0  0  0  0  0  0  0  0  0  0  0  0
    8.1890   -0.7180   20.8700 N   0  0  0  0  0  0  0  0  0  0  0  0
    7.4954   -4.2357   27.0448 O   0  0  0  0  0  0  0  0  0  0  0  0
    9.2690    1.4140   20.9380 O   0  0  0  0  0  0  0  0  0  0  0  0
   13.6733    4.1962   21.0354 H   0  0  0  0  0  0  0  0  0  0  0  0
   14.3290    2.3577   22.5668 H   0  0  0  0  0  0  0  0  0  0  0  0
   11.2734    4.7126   20.6733 H   0  0  0  0  0  0  0  0  0  0  0  0
    3.0136    2.6526   19.3908 H   0  0  0  0  0  0  0  0  0  0  0  0
    3.6480    2.0140   21.6821 H   0  0  0  0  0  0  0  0  0  0  0  0
   12.5948    1.0365   23.7339 H   0  0  0  0  0  0  0  0  0  0  0  0
    9.5319    3.3975   21.8356 H   0  0  0  0  0  0  0  0  0  0  0  0
    8.9202   -0.1986   25.4206 H   0  0  0  0  0  0  0  0  0  0  0  0
   10.0631   -2.2319   21.8252 H   0  0  0  0  0  0  0  0  0  0  0  0
    4.4042    1.9741   17.4524 H   0  0  0  0  0  0  0  0  0  0  0  0
    5.7089    0.6919   22.1150 H   0  0  0  0  0  0  0  0  0  0  0  0
    8.6898   -2.3534   26.5810 H   0  0  0  0  0  0  0  0  0  0  0  0
    9.9254   -4.3899   22.9914 H   0  0  0  0  0  0  0  0  0  0  0  0
    7.9324   -6.4149   28.1639 H   0  0  0  0  0  0  0  0  0  0  0  0
    8.0254   -7.0921   26.5330 H   0  0  0  0  0  0  0  0  0  0  0  0
   10.3386   -6.1268   28.2921 H   0  0  0  0  0  0  0  0  0  0  0  0
    9.9903   -7.8025   27.8535 H   0  0  0  0  0  0  0  0  0  0  0  0
   11.7036   -6.0405   26.4770 H   0  0  0  0  0  0  0  0  0  0  0  0
   11.1411   -7.6069   25.8917 H   0  0  0  0  0  0  0  0  0  0  0  0
   10.7783   -5.5162   24.3756 H   0  0  0  0  0  0  0  0  0  0  0  0
    9.4042   -6.6189   24.5805 H   0  0  0  0  0  0  0  0  0  0  0  0
   10.2886    1.0255   24.5508 H   0  0  0  0  0  0  0  0  0  0  0  0
    9.0288    1.9709   23.8044 H   0  0  0  0  0  0  0  0  0  0  0  0
   10.7829   -0.1040   22.4083 H   0  0  0  0  0  0  0  0  0  0  0  0
    8.2487   -1.5564   21.0972 H   0  0  0  0  0  0  0  0  0  0  0  0
  1  2  1  0  0  0  0
  1  3  2  0  0  0  0
  2  6  2  0  0  0  0
  3  7  1  0  0  0  0
  4  5  1  0  0  0  0
  4 10  2  0  0  0  0
  5 11  2  0  0  0  0
  6 14  1  0  0  0  0
  7 14  2  0  0  0  0
  8 12  2  0  0  0  0
  8 15  1  0  0  0  0
  9 13  1  0  0  0  0
  9 15  2  0  0  0  0
 10 16  1  0  0  0  0
 11 17  1  0  0  0  0
 12 18  1  0  0  0  0
 13 18  2  0  0  0  0
 14 25  1  0  0  0  0
 15 26  1  0  0  0  0
 16 17  2  0  0  0  0
 16 27  1  0  0  0  0
 17 29  1  0  0  0  0
 18 30  1  0  0  0  0
 19 21  1  0  0  0  0
 19 30  1  0  0  0  0
 19 32  2  0  0  0  0
 20 26  1  1  0  0  0
 20 31  1  0  0  0  0
 20 33  2  0  0  0  0
 21 22  1  0  0  0  0
 22 23  1  0  0  0  0
 23 24  1  0  0  0  0
 24 30  1  0  0  0  0
 25 26  1  0  0  0  0
 27 28  2  0  0  0  0
 28 29  1  0  0  0  0
 29 31  1  0  0  0  0
  1 34  1  0  0  0  0
  2 35  1  0  0  0  0
  3 36  1  0  0  0  0
  4 37  1  0  0  0  0
  5 38  1  0  0  0  0
  6 39  1  0  0  0  0
  7 40  1  0  0  0  0
  8 41  1  0  0  0  0
  9 42  1  0  0  0  0
 10 43  1  0  0  0  0
 11 44  1  0  0  0  0
 12 45  1  0  0  0  0
 13 46  1  0  0  0  0
 21 47  1  0  0  0  0
 21 48  1  0  0  0  0
 22 49  1  0  0  0  0
 22 50  1  0  0  0  0
 23 51  1  0  0  0  0
 23 52  1  0  0  0  0
 24 53  1  0  0  0  0
 24 54  1  0  0  0  0
 25 55  1  0  0  0  0
 25 56  1  0  0  0  0
 26 57  1  0  0  0  0
 31 58  1  0  0  0  0
M  END
> <clash_score>
1.4060999682170179

> <docking_score>
-7.961027145385742

> <overlap_score>
0.9801181554794312

$$$$
BENZO_189_2
  -OEChem-08222022173D

 58 62  0     1  0  0  0  0  0999 V2000
   14.1377    1.9562   23.4064 C   0  0  0  0  0  0  0  0  0  0  0  0
   13.5892    1.1645   24.4154 C   0  0  0  0  0  0  0  0  0  0  0  0
   13.3074    2.5435   22.4518 C   0  0  0  0  0  0  0  0  0  0  0  0
    3.9160    2.0630   19.5520 C   0  0  0  0  0  0  0  0  0  0  0  0
    4.2750    1.7050   20.8490 C   0  0  0  0  0  0  0  0  0  0  0  0
   12.2105    0.9600   24.4696 C   0  0  0  0  0  0  0  0  0  0  0  0
   11.9286    2.3390   22.5060 C   0  0  0  0  0  0  0  0  0  0  0  0
    9.0720   -1.1280   24.8640 C   0  0  0  0  0  0  0  0  0  0  0  0
    9.7200   -2.2600   22.8630 C   0  0  0  0  0  0  0  0  0  0  0  0
    4.6890    1.6810   18.4640 C   0  0  0  0  0  0  0  0  0  0  0  0
    5.4210    0.9600   21.0930 C   0  0  0  0  0  0  0  0  0  0  0  0
    8.9960   -2.3380   25.5320 C   0  0  0  0  0  0  0  0  0  0  0  0
    9.6730   -3.4710   23.5300 C   0  0  0  0  0  0  0  0  0  0  0  0
   11.3802    1.5473   23.5150 C   0  0  0  0  0  0  0  0  0  0  0  0
    9.3350   -1.0880   23.5010 C   0  0  0  0  0  0  0  0  0  0  0  0
    5.8300    0.9190   18.6970 C   0  0  0  0  0  0  0  0  0  0  0  0
    6.1790    0.5730   19.9990 C   0  0  0  0  0  0  0  0  0  0  0  0
    9.3070   -3.5340   24.8780 C   0  0  0  0  0  0  0  0  0  0  0  0
    8.3596   -5.0074   26.6306 C   0  0  0  0  0  0  0  0  0  0  0  0
    9.0420    0.3700   21.5280 C   0  0  0  0  0  0  0  0  0  0  0  0
    8.4719   -6.3982   27.2294 C   0  0  0  0  0  0  0  0  0  0  0  0
    9.9251   -6.7607   27.4801 C   0  0  0  0  0  0  0  0  0  0  0  0
   10.7833   -6.6095   26.2280 C   0  0  0  0  0  0  0  0  0  0  0  0
   10.0539   -5.9100   25.0821 C   0  0  0  0  0  0  0  0  0  0  0  0
    9.8870    1.3260   23.5730 C   0  0  0  0  0  0  0  0  0  0  0  0
    9.4560    0.1560   22.8130 C   0  0  2  0  0  0  0  0  0  0  0  0
    6.7580    0.3810   17.8350 N   0  0  0  0  0  0  0  0  0  0  0  0
    7.6390   -0.2680   18.5410 N   0  0  0  0  0  0  0  0  0  0  0  0
    7.3170   -0.1610   19.8550 N   0  0  0  0  0  0  0  0  0  0  0  0
    9.2529   -4.7797   25.5643 N   0  0  0  0  0  0  0  0  0  0  0  0
    8.1890   -0.7180   20.8700 N   0  0  0  0  0  0  0  0  0  0  0  0
    7.4954   -4.2357   27.0448 O   0  0  0  0  0  0  0  0  0  0  0  0
    9.2690    1.4140   20.9380 O   0  0  0  0  0  0  0  0  0  0  0  0
   15.2111    2.1165   23.3651 H   0  0  0  0  0  0  0  0  0  0  0  0
   14.2355    0.7080   25.1594 H   0  0  0  0  0  0  0  0  0  0  0  0
   13.7339    3.1609   21.6667 H   0  0  0  0  0  0  0  0  0  0  0  0
    3.0136    2.6526   19.3908 H   0  0  0  0  0  0  0  0  0  0  0  0
    3.6480    2.0140   21.6821 H   0  0  0  0  0  0  0  0  0  0  0  0
   11.7921    0.3414   25.2593 H   0  0  0  0  0  0  0  0  0  0  0  0
   11.2895    2.8005   21.7579 H   0  0  0  0  0  0  0  0  0  0  0  0
    8.9202   -0.1986   25.4206 H   0  0  0  0  0  0  0  0  0  0  0  0
   10.0631   -2.2319   21.8252 H   0  0  0  0  0  0  0  0  0  0  0  0
    4.4042    1.9741   17.4524 H   0  0  0  0  0  0  0  0  0  0  0  0
    5.7089    0.6919   22.1150 H   0  0  0  0  0  0  0  0  0  0  0  0
    8.6898   -2.3534   26.5810 H   0  0  0  0  0  0  0  0  0  0  0  0
    9.9254   -4.3899   22.9914 H   0  0  0  0  0  0  0  0  0  0  0  0
    7.9324   -6.4149   28.1639 H   0  0  0  0  0  0  0  0  0  0  0  0
    8.0254   -7.0921   26.5330 H   0  0  0  0  0  0  0  0  0  0  0  0
   10.3386   -6.1268   28.2921 H   0  0  0  0  0  0  0  0  0  0  0  0
    9.9903   -7.8025   27.8535 H   0  0  0  0  0  0  0  0  0  0  0  0
   11.7036   -6.0405   26.4770 H   0  0  0  0  0  0  0  0  0  0  0  0
   11.1411   -7.6069   25.8917 H   0  0  0  0  0  0  0  0  0  0  0  0
   10.7783   -5.5162   24.3756 H   0  0  0  0  0  0  0  0  0  0  0  0
    9.4042   -6.6189   24.5805 H   0  0  0  0  0  0  0  0  0  0  0  0
    9.6004    1.2280   24.6293 H   0  0  0  0  0  0  0  0  0  0  0  0
    9.3666    2.2262   23.2198 H   0  0  0  0  0  0  0  0  0  0  0  0
    8.0666    0.4961   23.2504 H   0  0  0  0  0  0  0  0  0  0  0  0
    8.2487   -1.5564   21.0972 H   0  0  0  0  0  0  0  0  0  0  0  0
  1  2  1  0  0  0  0
  1  3  2  0  0  0  0
  2  6  2  0  0  0  0
  3  7  1  0  0  0  0
  4  5  1  0  0  0  0
  4 10  2  0  0  0  0
  5 11  2  0  0  0  0
  6 14  1  0  0  0  0
  7 14  2  0  0  0  0
  8 12  2  0  0  0  0
  8 15  1  0  0  0  0
  9 13  1  0  0  0  0
  9 15  2  0  0  0  0
 10 16  1  0  0  0  0
 11 17  1  0  0  0  0
 12 18  1  0  0  0  0
 13 18  2  0  0  0  0
 14 25  1  0  0  0  0
 15 26  1  0  0  0  0
 16 17  2  0  0  0  0
 16 27  1  0  0  0  0
 17 29  1  0  0  0  0
 18 30  1  0  0  0  0
 19 21  1  0  0  0  0
 19 30  1  0  0  0  0
 19 32  2  0  0  0  0
 20 26  1  6  0  0  0
 20 31  1  0  0  0  0
 20 33  2  0  0  0  0
 21 22  1  0  0  0  0
 22 23  1  0  0  0  0
 23 24  1  0  0  0  0
 24 30  1  0  0  0  0
 25 26  1  0  0  0  0
 27 28  2  0  0  0  0
 28 29  1  0  0  0  0
 29 31  1  0  0  0  0
  1 34  1  0  0  0  0
  2 35  1  0  0  0  0
  3 36  1  0  0  0  0
  4 37  1  0  0  0  0
  5 38  1  0  0  0  0
  6 39  1  0  0  0  0
  7 40  1  0  0  0  0
  8 41  1  0  0  0  0
  9 42  1  0  0  0  0
 10 43  1  0  0  0  0
 11 44  1  0  0  0  0
 12 45  1  0  0  0  0
 13 46  1  0  0  0  0
 21 47  1  0  0  0  0
 21 48  1  0  0  0  0
 22 49  1  0  0  0  0
 22 50  1  0  0  0  0
 23 51  1  0  0  0  0
 23 52  1  0  0  0  0
 24 53  1  0  0  0  0
 24 54  1  0  0  0  0
 25 55  1  0  0  0  0
 25 56  1  0  0  0  0
 26 57  1  0  0  0  0
 31 58  1  0  0  0  0
M  END
> <clash_score>
0.7790931276820443

> <docking_score>
-8.138006210327148

> <overlap_score>
1.0178078413009644

$$$$
BENZO_188_1
  -OEChem-08222022173D

 55 59  0     1  0  0  0  0  0999 V2000
    3.9160    2.0630   19.5520 C   0  0  0  0  0  0  0  0  0  0  0  0
    4.2750    1.7050   20.8490 C   0  0  0  0  0  0  0  0  0  0  0  0
    9.0720   -1.1280   24.8640 C   0  0  0  0  0  0  0  0  0  0  0  0
    9.7200   -2.2600   22.8630 C   0  0  0  0  0  0  0  0  0  0  0  0
    4.6890    1.6810   18.4640 C   0  0  0  0  0  0  0  0  0  0  0  0
    5.4210    0.9600   21.0930 C   0  0  0  0  0  0  0  0  0  0  0  0
    8.9960   -2.3380   25.5320 C   0  0  0  0  0  0  0  0  0  0  0  0
    9.6730   -3.4710   23.5300 C   0  0  0  0  0  0  0  0  0  0  0  0
   12.4051    0.7237   23.6691 C   0  0  0  0  0  0  0  0  0  0  0  0
   13.4398    0.5874   24.5682 C   0  0  0  0  0  0  0  0  0  0  0  0
   11.3401    1.2429   25.6687 C   0  0  0  0  0  0  0  0  0  0  0  0
    9.3350   -1.0880   23.5010 C   0  0  0  0  0  0  0  0  0  0  0  0
   11.1887    1.1036   24.3065 C   0  0  0  0  0  0  0  0  0  0  0  0
    5.8300    0.9190   18.6970 C   0  0  0  0  0  0  0  0  0  0  0  0
    6.1790    0.5730   19.9990 C   0  0  0  0  0  0  0  0  0  0  0  0
    9.3070   -3.5340   24.8780 C   0  0  0  0  0  0  0  0  0  0  0  0
    8.3596   -5.0074   26.6306 C   0  0  0  0  0  0  0  0  0  0  0  0
    9.0420    0.3700   21.5280 C   0  0  0  0  0  0  0  0  0  0  0  0
    8.4719   -6.3982   27.2294 C   0  0  0  0  0  0  0  0  0  0  0  0
    9.9251   -6.7607   27.4801 C   0  0  0  0  0  0  0  0  0  0  0  0
   10.7833   -6.6095   26.2280 C   0  0  0  0  0  0  0  0  0  0  0  0
   10.0539   -5.9100   25.0821 C   0  0  0  0  0  0  0  0  0  0  0  0
    9.8870    1.3260   23.5730 C   0  0  0  0  0  0  0  0  0  0  0  0
    9.4560    0.1560   22.8130 C   0  0  1  0  0  0  0  0  0  0  0  0
    6.7580    0.3810   17.8350 N   0  0  0  0  0  0  0  0  0  0  0  0
    7.6390   -0.2680   18.5410 N   0  0  0  0  0  0  0  0  0  0  0  0
    7.3170   -0.1610   19.8550 N   0  0  0  0  0  0  0  0  0  0  0  0
    9.2529   -4.7797   25.5643 N   0  0  0  0  0  0  0  0  0  0  0  0
    8.1890   -0.7180   20.8700 N   0  0  0  0  0  0  0  0  0  0  0  0
    7.4954   -4.2357   27.0448 O   0  0  0  0  0  0  0  0  0  0  0  0
    9.2690    1.4140   20.9380 O   0  0  0  0  0  0  0  0  0  0  0  0
   12.9434    0.9166   26.1737 S   0  0  0  0  0  0  0  0  0  0  0  0
    3.0136    2.6526   19.3908 H   0  0  0  0  0  0  0  0  0  0  0  0
    3.6480    2.0140   21.6821 H   0  0  0  0  0  0  0  0  0  0  0  0
    8.9202   -0.1986   25.4206 H   0  0  0  0  0  0  0  0  0  0  0  0
   10.0631   -2.2319   21.8252 H   0  0  0  0  0  0  0  0  0  0  0  0
    4.4042    1.9741   17.4524 H   0  0  0  0  0  0  0  0  0  0  0  0
    5.7089    0.6919   22.1150 H   0  0  0  0  0  0  0  0  0  0  0  0
    8.6898   -2.3534   26.5810 H   0  0  0  0  0  0  0  0  0  0  0  0
    9.9254   -4.3899   22.9914 H   0  0  0  0  0  0  0  0  0  0  0  0
   12.5196    0.5575   22.6054 H   0  0  0  0  0  0  0  0  0  0  0  0
   14.4632    0.3095   24.3593 H   0  0  0  0  0  0  0  0  0  0  0  0
   10.5884    1.5193   26.3951 H   0  0  0  0  0  0  0  0  0  0  0  0
    7.9324   -6.4149   28.1639 H   0  0  0  0  0  0  0  0  0  0  0  0
    8.0254   -7.0921   26.5330 H   0  0  0  0  0  0  0  0  0  0  0  0
   10.3386   -6.1268   28.2921 H   0  0  0  0  0  0  0  0  0  0  0  0
    9.9903   -7.8025   27.8535 H   0  0  0  0  0  0  0  0  0  0  0  0
   11.7036   -6.0405   26.4770 H   0  0  0  0  0  0  0  0  0  0  0  0
   11.1411   -7.6069   25.8917 H   0  0  0  0  0  0  0  0  0  0  0  0
   10.7783   -5.5162   24.3756 H   0  0  0  0  0  0  0  0  0  0  0  0
    9.4042   -6.6189   24.5805 H   0  0  0  0  0  0  0  0  0  0  0  0
    9.1255    1.6082   24.3133 H   0  0  0  0  0  0  0  0  0  0  0  0
    9.9795    2.1993   22.9136 H   0  0  0  0  0  0  0  0  0  0  0  0
   10.7829   -0.1040   22.4083 H   0  0  0  0  0  0  0  0  0  0  0  0
    8.2487   -1.5564   21.0972 H   0  0  0  0  0  0  0  0  0  0  0  0
  1  2  1  0  0  0  0
  1  5  2  0  0  0  0
  2  6  2  0  0  0  0
  3  7  2  0  0  0  0
  3 12  1  0  0  0  0
  4  8  1  0  0  0  0
  4 12  2  0  0  0  0
  5 14  1  0  0  0  0
  6 15  1  0  0  0  0
  7 16  1  0  0  0  0
  8 16  2  0  0  0  0
  9 10  2  0  0  0  0
  9 13  1  0  0  0  0
 10 32  1  0  0  0  0
 11 13  2  0  0  0  0
 11 32  1  0  0  0  0
 12 24  1  0  0  0  0
 13 23  1  0  0  0  0
 14 15  2  0  0  0  0
 14 25  1  0  0  0  0
 15 27  1  0  0  0  0
 16 28  1  0  0  0  0
 17 19  1  0  0  0  0
 17 28  1  0  0  0  0
 17 30  2  0  0  0  0
 18 24  1  1  0  0  0
 18 29  1  0  0  0  0
 18 31  2  0  0  0  0
 19 20  1  0  0  0  0
 20 21  1  0  0  0  0
 21 22  1  0  0  0  0
 22 28  1  0  0  0  0
 23 24  1  0  0  0  0
 25 26  2  0  0  0  0
 26 27  1  0  0  0  0
 27 29  1  0  0  0  0
  1 33  1  0  0  0  0
  2 34  1  0  0  0  0
  3 35  1  0  0  0  0
  4 36  1  0  0  0  0
  5 37  1  0  0  0  0
  6 38  1  0  0  0  0
  7 39  1  0  0  0  0
  8 40  1  0  0  0  0
  9 41  1  0  0  0  0
 10 42  1  0  0  0  0
 11 43  1  0  0  0  0
 19 44  1  0  0  0  0
 19 45  1  0  0  0  0
 20 46  1  0  0  0  0
 20 47  1  0  0  0  0
 21 48  1  0  0  0  0
 21 49  1  0  0  0  0
 22 50  1  0  0  0  0
 22 51  1  0  0  0  0
 23 52  1  0  0  0  0
 23 53  1  0  0  0  0
 24 54  1  0  0  0  0
 29 55  1  0  0  0  0
M  END
> <clash_score>
1.4001415030051607

> <docking_score>
-6.522516250610352

> <overlap_score>
0.935579776763916

$$$$
BENZO_188_2
  -OEChem-08222022173D

 55 59  0     1  0  0  0  0  0999 V2000
    3.9160    2.0630   19.5520 C   0  0  0  0  0  0  0  0  0  0  0  0
    4.2750    1.7050   20.8490 C   0  0  0  0  0  0  0  0  0  0  0  0
    9.0720   -1.1280   24.8640 C   0  0  0  0  0  0  0  0  0  0  0  0
    9.7200   -2.2600   22.8630 C   0  0  0  0  0  0  0  0  0  0  0  0
    4.6890    1.6810   18.4640 C   0  0  0  0  0  0  0  0  0  0  0  0
    5.4210    0.9600   21.0930 C   0  0  0  0  0  0  0  0  0  0  0  0
    8.9960   -2.3380   25.5320 C   0  0  0  0  0  0  0  0  0  0  0  0
    9.6730   -3.4710   23.5300 C   0  0  0  0  0  0  0  0  0  0  0  0
   12.3363    0.4950   23.4224 C   0  0  0  0  0  0  0  0  0  0  0  0
   13.6283    0.9714   23.3861 C   0  0  0  0  0  0  0  0  0  0  0  0
   11.9779    2.7881   23.5462 C   0  0  0  0  0  0  0  0  0  0  0  0
    9.3350   -1.0880   23.5010 C   0  0  0  0  0  0  0  0  0  0  0  0
   11.3802    1.5473   23.5150 C   0  0  0  0  0  0  0  0  0  0  0  0
    5.8300    0.9190   18.6970 C   0  0  0  0  0  0  0  0  0  0  0  0
    6.1790    0.5730   19.9990 C   0  0  0  0  0  0  0  0  0  0  0  0
    9.3070   -3.5340   24.8780 C   0  0  0  0  0  0  0  0  0  0  0  0
    8.3596   -5.0074   26.6306 C   0  0  0  0  0  0  0  0  0  0  0  0
    9.0420    0.3700   21.5280 C   0  0  0  0  0  0  0  0  0  0  0  0
    8.4719   -6.3982   27.2294 C   0  0  0  0  0  0  0  0  0  0  0  0
    9.9251   -6.7607   27.4801 C   0  0  0  0  0  0  0  0  0  0  0  0
   10.7833   -6.6095   26.2280 C   0  0  0  0  0  0  0  0  0  0  0  0
   10.0539   -5.9100   25.0821 C   0  0  0  0  0  0  0  0  0  0  0  0
    9.8870    1.3260   23.5730 C   0  0  0  0  0  0  0  0  0  0  0  0
    9.4560    0.1560   22.8130 C   0  0  2  0  0  0  0  0  0  0  0  0
    6.7580    0.3810   17.8350 N   0  0  0  0  0  0  0  0  0  0  0  0
    7.6390   -0.2680   18.5410 N   0  0  0  0  0  0  0  0  0  0  0  0
    7.3170   -0.1610   19.8550 N   0  0  0  0  0  0  0  0  0  0  0  0
    9.2529   -4.7797   25.5643 N   0  0  0  0  0  0  0  0  0  0  0  0
    8.1890   -0.7180   20.8700 N   0  0  0  0  0  0  0  0  0  0  0  0
    7.4954   -4.2357   27.0448 O   0  0  0  0  0  0  0  0  0  0  0  0
    9.2690    1.4140   20.9380 O   0  0  0  0  0  0  0  0  0  0  0  0
   13.6850    2.6812   23.4637 S   0  0  0  0  0  0  0  0  0  0  0  0
    3.0136    2.6526   19.3908 H   0  0  0  0  0  0  0  0  0  0  0  0
    3.6480    2.0140   21.6821 H   0  0  0  0  0  0  0  0  0  0  0  0
    8.9202   -0.1986   25.4206 H   0  0  0  0  0  0  0  0  0  0  0  0
   10.0631   -2.2319   21.8252 H   0  0  0  0  0  0  0  0  0  0  0  0
    4.4042    1.9741   17.4524 H   0  0  0  0  0  0  0  0  0  0  0  0
    5.7089    0.6919   22.1150 H   0  0  0  0  0  0  0  0  0  0  0  0
    8.6898   -2.3534   26.5810 H   0  0  0  0  0  0  0  0  0  0  0  0
    9.9254   -4.3899   22.9914 H   0  0  0  0  0  0  0  0  0  0  0  0
   12.0932   -0.5594   23.3845 H   0  0  0  0  0  0  0  0  0  0  0  0
   14.5417    0.3974   23.3185 H   0  0  0  0  0  0  0  0  0  0  0  0
   11.4978    3.7544   23.6146 H   0  0  0  0  0  0  0  0  0  0  0  0
    7.9324   -6.4149   28.1639 H   0  0  0  0  0  0  0  0  0  0  0  0
    8.0254   -7.0921   26.5330 H   0  0  0  0  0  0  0  0  0  0  0  0
   10.3386   -6.1268   28.2921 H   0  0  0  0  0  0  0  0  0  0  0  0
    9.9903   -7.8025   27.8535 H   0  0  0  0  0  0  0  0  0  0  0  0
   11.7036   -6.0405   26.4770 H   0  0  0  0  0  0  0  0  0  0  0  0
   11.1411   -7.6069   25.8917 H   0  0  0  0  0  0  0  0  0  0  0  0
   10.7783   -5.5162   24.3756 H   0  0  0  0  0  0  0  0  0  0  0  0
    9.4042   -6.6189   24.5805 H   0  0  0  0  0  0  0  0  0  0  0  0
    9.6004    1.2280   24.6293 H   0  0  0  0  0  0  0  0  0  0  0  0
    9.3666    2.2262   23.2198 H   0  0  0  0  0  0  0  0  0  0  0  0
    8.0666    0.4961   23.2504 H   0  0  0  0  0  0  0  0  0  0  0  0
    8.2487   -1.5564   21.0972 H   0  0  0  0  0  0  0  0  0  0  0  0
  1  2  1  0  0  0  0
  1  5  2  0  0  0  0
  2  6  2  0  0  0  0
  3  7  2  0  0  0  0
  3 12  1  0  0  0  0
  4  8  1  0  0  0  0
  4 12  2  0  0  0  0
  5 14  1  0  0  0  0
  6 15  1  0  0  0  0
  7 16  1  0  0  0  0
  8 16  2  0  0  0  0
  9 10  2  0  0  0  0
  9 13  1  0  0  0  0
 10 32  1  0  0  0  0
 11 13  2  0  0  0  0
 11 32  1  0  0  0  0
 12 24  1  0  0  0  0
 13 23  1  0  0  0  0
 14 15  2  0  0  0  0
 14 25  1  0  0  0  0
 15 27  1  0  0  0  0
 16 28  1  0  0  0  0
 17 19  1  0  0  0  0
 17 28  1  0  0  0  0
 17 30  2  0  0  0  0
 18 24  1  6  0  0  0
 18 29  1  0  0  0  0
 18 31  2  0  0  0  0
 19 20  1  0  0  0  0
 20 21  1  0  0  0  0
 21 22  1  0  0  0  0
 22 28  1  0  0  0  0
 23 24  1  0  0  0  0
 25 26  2  0  0  0  0
 26 27  1  0  0  0  0
 27 29  1  0  0  0  0
  1 33  1  0  0  0  0
  2 34  1  0  0  0  0
  3 35  1  0  0  0  0
  4 36  1  0  0  0  0
  5 37  1  0  0  0  0
  6 38  1  0  0  0  0
  7 39  1  0  0  0  0
  8 40  1  0  0  0  0
  9 41  1  0  0  0  0
 10 42  1  0  0  0  0
 11 43  1  0  0  0  0
 19 44  1  0  0  0  0
 19 45  1  0  0  0  0
 20 46  1  0  0  0  0
 20 47  1  0  0  0  0
 21 48  1  0  0  0  0
 21 49  1  0  0  0  0
 22 50  1  0  0  0  0
 22 51  1  0  0  0  0
 23 52  1  0  0  0  0
 23 53  1  0  0  0  0
 24 54  1  0  0  0  0
 29 55  1  0  0  0  0
M  END
> <clash_score>
0.7790931276820443

> <docking_score>
-8.431848526000977

> <overlap_score>
1.0088375806808472

$$$$
BENZO_190_1
  -OEChem-08222022173D

 58 62  0     1  0  0  0  0  0999 V2000
    3.9160    2.0630   19.5520 C   0  0  0  0  0  0  0  0  0  0  0  0
    4.2750    1.7050   20.8490 C   0  0  0  0  0  0  0  0  0  0  0  0
   13.2791    2.5803   22.4075 C   0  0  0  0  0  0  0  0  0  0  0  0
   12.2978    1.8385   23.0652 C   0  0  0  0  0  0  0  0  0  0  0  0
    9.0720   -1.1280   24.8640 C   0  0  0  0  0  0  0  0  0  0  0  0
    9.7200   -2.2600   22.8630 C   0  0  0  0  0  0  0  0  0  0  0  0
    4.6890    1.6810   18.4640 C   0  0  0  0  0  0  0  0  0  0  0  0
    5.4210    0.9600   21.0930 C   0  0  0  0  0  0  0  0  0  0  0  0
    8.9960   -2.3380   25.5320 C   0  0  0  0  0  0  0  0  0  0  0  0
    9.6730   -3.4710   23.5300 C   0  0  0  0  0  0  0  0  0  0  0  0
   12.9118    3.6142   21.5462 C   0  0  0  0  0  0  0  0  0  0  0  0
   10.5818    3.1644   22.0001 C   0  0  0  0  0  0  0  0  0  0  0  0
    9.3350   -1.0880   23.5010 C   0  0  0  0  0  0  0  0  0  0  0  0
   10.9492    2.1306   22.8614 C   0  0  0  0  0  0  0  0  0  0  0  0
    5.8300    0.9190   18.6970 C   0  0  0  0  0  0  0  0  0  0  0  0
    6.1790    0.5730   19.9990 C   0  0  0  0  0  0  0  0  0  0  0  0
    9.3070   -3.5340   24.8780 C   0  0  0  0  0  0  0  0  0  0  0  0
   11.5631    3.9062   21.3425 C   0  0  0  0  0  0  0  0  0  0  0  0
    8.3596   -5.0074   26.6306 C   0  0  0  0  0  0  0  0  0  0  0  0
    9.0420    0.3700   21.5280 C   0  0  0  0  0  0  0  0  0  0  0  0
    8.4719   -6.3982   27.2294 C   0  0  0  0  0  0  0  0  0  0  0  0
    9.9251   -6.7607   27.4801 C   0  0  0  0  0  0  0  0  0  0  0  0
   10.7833   -6.6095   26.2280 C   0  0  0  0  0  0  0  0  0  0  0  0
   10.0539   -5.9100   25.0821 C   0  0  0  0  0  0  0  0  0  0  0  0
    9.8870    1.3260   23.5730 C   0  0  0  0  0  0  0  0  0  0  0  0
    9.4560    0.1560   22.8130 C   0  0  1  0  0  0  0  0  0  0  0  0
    6.7580    0.3810   17.8350 N   0  0  0  0  0  0  0  0  0  0  0  0
    7.6390   -0.2680   18.5410 N   0  0  0  0  0  0  0  0  0  0  0  0
    7.3170   -0.1610   19.8550 N   0  0  0  0  0  0  0  0  0  0  0  0
    9.2529   -4.7797   25.5643 N   0  0  0  0  0  0  0  0  0  0  0  0
    8.1890   -0.7180   20.8700 N   0  0  0  0  0  0  0  0  0  0  0  0
    7.4954   -4.2357   27.0448 O   0  0  0  0  0  0  0  0  0  0  0  0
    9.2690    1.4140   20.9380 O   0  0  0  0  0  0  0  0  0  0  0  0
   11.1105    5.1811   20.2788 Cl  0  0  0  0  0  0  0  0  0  0  0  0
    3.0136    2.6526   19.3908 H   0  0  0  0  0  0  0  0  0  0  0  0
    3.6480    2.0140   21.6821 H   0  0  0  0  0  0  0  0  0  0  0  0
   14.3292    2.3525   22.5664 H   0  0  0  0  0  0  0  0  0  0  0  0
   12.5932    1.0347   23.7344 H   0  0  0  0  0  0  0  0  0  0  0  0
    8.9202   -0.1986   25.4206 H   0  0  0  0  0  0  0  0  0  0  0  0
   10.0631   -2.2319   21.8252 H   0  0  0  0  0  0  0  0  0  0  0  0
    4.4042    1.9741   17.4524 H   0  0  0  0  0  0  0  0  0  0  0  0
    5.7089    0.6919   22.1150 H   0  0  0  0  0  0  0  0  0  0  0  0
    8.6898   -2.3534   26.5810 H   0  0  0  0  0  0  0  0  0  0  0  0
    9.9254   -4.3899   22.9914 H   0  0  0  0  0  0  0  0  0  0  0  0
   13.6874    4.1838   21.0402 H   0  0  0  0  0  0  0  0  0  0  0  0
    9.5289    3.3885   21.8450 H   0  0  0  0  0  0  0  0  0  0  0  0
    7.9324   -6.4149   28.1639 H   0  0  0  0  0  0  0  0  0  0  0  0
    8.0254   -7.0921   26.5330 H   0  0  0  0  0  0  0  0  0  0  0  0
   10.3386   -6.1268   28.2921 H   0  0  0  0  0  0  0  0  0  0  0  0
    9.9903   -7.8025   27.8535 H   0  0  0  0  0  0  0  0  0  0  0  0
   11.7036   -6.0405   26.4770 H   0  0  0  0  0  0  0  0  0  0  0  0
   11.1411   -7.6069   25.8917 H   0  0  0  0  0  0  0  0  0  0  0  0
   10.7783   -5.5162   24.3756 H   0  0  0  0  0  0  0  0  0  0  0  0
    9.4042   -6.6189   24.5805 H   0  0  0  0  0  0  0  0  0  0  0  0
   10.2886    1.0255   24.5508 H   0  0  0  0  0  0  0  0  0  0  0  0
    9.0288    1.9709   23.8044 H   0  0  0  0  0  0  0  0  0  0  0  0
   10.7829   -0.1040   22.4083 H   0  0  0  0  0  0  0  0  0  0  0  0
    8.2487   -1.5564   21.0972 H   0  0  0  0  0  0  0  0  0  0  0  0
  1  2  1  0  0  0  0
  1  7  2  0  0  0  0
  2  8  2  0  0  0  0
  3  4  2  0  0  0  0
  3 11  1  0  0  0  0
  4 14  1  0  0  0  0
  5  9  2  0  0  0  0
  5 13  1  0  0  0  0
  6 10  1  0  0  0  0
  6 13  2  0  0  0  0
  7 15  1  0  0  0  0
  8 16  1  0  0  0  0
  9 17  1  0  0  0  0
 10 17  2  0  0  0  0
 11 18  2  0  0  0  0
 12 14  2  0  0  0  0
 12 18  1  0  0  0  0
 13 26  1  0  0  0  0
 14 25  1  0  0  0  0
 15 16  2  0  0  0  0
 15 27  1  0  0  0  0
 16 29  1  0  0  0  0
 17 30  1  0  0  0  0
 18 34  1  0  0  0  0
 19 21  1  0  0  0  0
 19 30  1  0  0  0  0
 19 32  2  0  0  0  0
 20 26  1  1  0  0  0
 20 31  1  0  0  0  0
 20 33  2  0  0  0  0
 21 22  1  0  0  0  0
 22 23  1  0  0  0  0
 23 24  1  0  0  0  0
 24 30  1  0  0  0  0
 25 26  1  0  0  0  0
 27 28  2  0  0  0  0
 28 29  1  0  0  0  0
 29 31  1  0  0  0  0
  1 35  1  0  0  0  0
  2 36  1  0  0  0  0
  3 37  1  0  0  0  0
  4 38  1  0  0  0  0
  5 39  1  0  0  0  0
  6 40  1  0  0  0  0
  7 41  1  0  0  0  0
  8 42  1  0  0  0  0
  9 43  1  0  0  0  0
 10 44  1  0  0  0  0
 11 45  1  0  0  0  0
 12 46  1  0  0  0  0
 21 47  1  0  0  0  0
 21 48  1  0  0  0  0
 22 49  1  0  0  0  0
 22 50  1  0  0  0  0
 23 51  1  0  0  0  0
 23 52  1  0  0  0  0
 24 53  1  0  0  0  0
 24 54  1  0  0  0  0
 25 55  1  0  0  0  0
 25 56  1  0  0  0  0
 26 57  1  0  0  0  0
 31 58  1  0  0  0  0
M  END
> <clash_score>
3.012938789336351

> <docking_score>
-7.252009391784668

> <overlap_score>
0.9789112210273743

$$$$
BENZO_191_2
  -OEChem-08222022173D

 58 62  0     1  0  0  0  0  0999 V2000
    3.9160    2.0630   19.5520 C   0  0  0  0  0  0  0  0  0  0  0  0
    4.2750    1.7050   20.8490 C   0  0  0  0  0  0  0  0  0  0  0  0
    9.0720   -1.1280   24.8640 C   0  0  0  0  0  0  0  0  0  0  0  0
    9.7200   -2.2600   22.8630 C   0  0  0  0  0  0  0  0  0  0  0  0
    4.6890    1.6810   18.4640 C   0  0  0  0  0  0  0  0  0  0  0  0
    5.4210    0.9600   21.0930 C   0  0  0  0  0  0  0  0  0  0  0  0
    8.9960   -2.3380   25.5320 C   0  0  0  0  0  0  0  0  0  0  0  0
    9.6730   -3.4710   23.5300 C   0  0  0  0  0  0  0  0  0  0  0  0
   12.3465    1.9795   22.9425 C   0  0  0  0  0  0  0  0  0  0  0  0
   10.7668    3.1736   21.9866 C   0  0  0  0  0  0  0  0  0  0  0  0
    9.3350   -1.0880   23.5010 C   0  0  0  0  0  0  0  0  0  0  0  0
   10.9492    2.1306   22.8614 C   0  0  0  0  0  0  0  0  0  0  0  0
    5.8300    0.9190   18.6970 C   0  0  0  0  0  0  0  0  0  0  0  0
    6.1790    0.5730   19.9990 C   0  0  0  0  0  0  0  0  0  0  0  0
    9.3070   -3.5340   24.8780 C   0  0  0  0  0  0  0  0  0  0  0  0
    8.3596   -5.0074   26.6306 C   0  0  0  0  0  0  0  0  0  0  0  0
    9.0420    0.3700   21.5280 C   0  0  0  0  0  0  0  0  0  0  0  0
    8.4719   -6.3982   27.2294 C   0  0  0  0  0  0  0  0  0  0  0  0
    9.9251   -6.7607   27.4801 C   0  0  0  0  0  0  0  0  0  0  0  0
   10.7833   -6.6095   26.2280 C   0  0  0  0  0  0  0  0  0  0  0  0
   10.0539   -5.9100   25.0821 C   0  0  0  0  0  0  0  0  0  0  0  0
   12.3393    4.6377   20.6972 C   0  0  0  0  0  0  0  0  0  0  0  0
    9.8870    1.3260   23.5730 C   0  0  0  0  0  0  0  0  0  0  0  0
    9.4560    0.1560   22.8130 C   0  0  2  0  0  0  0  0  0  0  0  0
   13.0051    2.8563   22.1800 N   0  0  0  0  0  0  0  0  0  0  0  0
    6.7580    0.3810   17.8350 N   0  0  0  0  0  0  0  0  0  0  0  0
    7.6390   -0.2680   18.5410 N   0  0  0  0  0  0  0  0  0  0  0  0
   12.0173    3.5683   21.6113 N   0  0  0  0  0  0  0  0  0  0  0  0
    7.3170   -0.1610   19.8550 N   0  0  0  0  0  0  0  0  0  0  0  0
    9.2529   -4.7797   25.5643 N   0  0  0  0  0  0  0  0  0  0  0  0
    8.1890   -0.7180   20.8700 N   0  0  0  0  0  0  0  0  0  0  0  0
    7.4954   -4.2357   27.0448 O   0  0  0  0  0  0  0  0  0  0  0  0
    9.2690    1.4140   20.9380 O   0  0  0  0  0  0  0  0  0  0  0  0
    3.0136    2.6526   19.3908 H   0  0  0  0  0  0  0  0  0  0  0  0
    3.6480    2.0140   21.6821 H   0  0  0  0  0  0  0  0  0  0  0  0
    8.9202   -0.1986   25.4206 H   0  0  0  0  0  0  0  0  0  0  0  0
   10.0631   -2.2319   21.8252 H   0  0  0  0  0  0  0  0  0  0  0  0
    4.4042    1.9741   17.4524 H   0  0  0  0  0  0  0  0  0  0  0  0
    5.7089    0.6919   22.1150 H   0  0  0  0  0  0  0  0  0  0  0  0
    8.6898   -2.3534   26.5810 H   0  0  0  0  0  0  0  0  0  0  0  0
    9.9254   -4.3899   22.9914 H   0  0  0  0  0  0  0  0  0  0  0  0
   12.9145    1.2672   23.5241 H   0  0  0  0  0  0  0  0  0  0  0  0
    9.8759    3.6558   21.6076 H   0  0  0  0  0  0  0  0  0  0  0  0
    7.9324   -6.4149   28.1639 H   0  0  0  0  0  0  0  0  0  0  0  0
    8.0254   -7.0921   26.5330 H   0  0  0  0  0  0  0  0  0  0  0  0
   10.3386   -6.1268   28.2921 H   0  0  0  0  0  0  0  0  0  0  0  0
    9.9903   -7.8025   27.8535 H   0  0  0  0  0  0  0  0  0  0  0  0
   11.7036   -6.0405   26.4770 H   0  0  0  0  0  0  0  0  0  0  0  0
   11.1411   -7.6069   25.8917 H   0  0  0  0  0  0  0  0  0  0  0  0
   10.7783   -5.5162   24.3756 H   0  0  0  0  0  0  0  0  0  0  0  0
    9.4042   -6.6189   24.5805 H   0  0  0  0  0  0  0  0  0  0  0  0
   12.4412    5.5584   21.2777 H   0  0  0  0  0  0  0  0  0  0  0  0
   13.2748    4.4059   20.1806 H   0  0  0  0  0  0  0  0  0  0  0  0
   11.5379    4.7362   19.9596 H   0  0  0  0  0  0  0  0  0  0  0  0
   10.2886    1.0255   24.5508 H   0  0  0  0  0  0  0  0  0  0  0  0
    9.0288    1.9709   23.8044 H   0  0  0  0  0  0  0  0  0  0  0  0
   10.7829   -0.1040   22.4083 H   0  0  0  0  0  0  0  0  0  0  0  0
    8.2487   -1.5564   21.0972 H   0  0  0  0  0  0  0  0  0  0  0  0
  1  2  1  0  0  0  0
  1  5  2  0  0  0  0
  2  6  2  0  0  0  0
  3  7  2  0  0  0  0
  3 11  1  0  0  0  0
  4  8  1  0  0  0  0
  4 11  2  0  0  0  0
  5 13  1  0  0  0  0
  6 14  1  0  0  0  0
  7 15  1  0  0  0  0
  8 15  2  0  0  0  0
  9 12  1  0  0  0  0
  9 25  2  0  0  0  0
 10 12  2  0  0  0  0
 10 28  1  0  0  0  0
 11 24  1  0  0  0  0
 12 23  1  0  0  0  0
 13 14  2  0  0  0  0
 13 26  1  0  0  0  0
 14 29  1  0  0  0  0
 15 30  1  0  0  0  0
 16 18  1  0  0  0  0
 16 30  1  0  0  0  0
 16 32  2  0  0  0  0
 17 24  1  0  0  0  0
 17 31  1  0  0  0  0
 17 33  2  0  0  0  0
 18 19  1  0  0  0  0
 19 20  1  0  0  0  0
 20 21  1  0  0  0  0
 21 30  1  0  0  0  0
 22 28  1  0  0  0  0
 23 24  1  6  0  0  0
 25 28  1  0  0  0  0
 26 27  2  0  0  0  0
 27 29  1  0  0  0  0
 29 31  1  0  0  0  0
  1 34  1  0  0  0  0
  2 35  1  0  0  0  0
  3 36  1  0  0  0  0
  4 37  1  0  0  0  0
  5 38  1  0  0  0  0
  6 39  1  0  0  0  0
  7 40  1  0  0  0  0
  8 41  1  0  0  0  0
  9 42  1  0  0  0  0
 10 43  1  0  0  0  0
 18 44  1  0  0  0  0
 18 45  1  0  0  0  0
 19 46  1  0  0  0  0
 19 47  1  0  0  0  0
 20 48  1  0  0  0  0
 20 49  1  0  0  0  0
 21 50  1  0  0  0  0
 21 51  1  0  0  0  0
 22 52  1  0  0  0  0
 22 53  1  0  0  0  0
 22 54  1  0  0  0  0
 23 55  1  0  0  0  0
 23 56  1  0  0  0  0
 24 57  1  0  0  0  0
 31 58  1  0  0  0  0
M  END
> <clash_score>
0.7790931276820443

> <docking_score>
-6.697658061981201

> <overlap_score>
0.973365843296051

$$$$
BENZO_193_1
  -OEChem-08222022173D

 57 61  0     1  0  0  0  0  0999 V2000
   12.9099    3.6168   21.5462 C   0  0  0  0  0  0  0  0  0  0  0  0
   13.2786    2.5833   22.4073 C   0  0  0  0  0  0  0  0  0  0  0  0
   11.5608    3.9073   21.3428 C   0  0  0  0  0  0  0  0  0  0  0  0
    3.9160    2.0630   19.5520 C   0  0  0  0  0  0  0  0  0  0  0  0
    4.2750    1.7050   20.8490 C   0  0  0  0  0  0  0  0  0  0  0  0
   12.2983    1.8401   23.0649 C   0  0  0  0  0  0  0  0  0  0  0  0
   10.5805    3.1641   22.0003 C   0  0  0  0  0  0  0  0  0  0  0  0
    9.0720   -1.1280   24.8640 C   0  0  0  0  0  0  0  0  0  0  0  0
    9.7200   -2.2600   22.8630 C   0  0  0  0  0  0  0  0  0  0  0  0
    4.6890    1.6810   18.4640 C   0  0  0  0  0  0  0  0  0  0  0  0
    5.4210    0.9600   21.0930 C   0  0  0  0  0  0  0  0  0  0  0  0
    8.9960   -2.3380   25.5320 C   0  0  0  0  0  0  0  0  0  0  0  0
    9.6730   -3.4710   23.5300 C   0  0  0  0  0  0  0  0  0  0  0  0
   10.9492    2.1306   22.8614 C   0  0  0  0  0  0  0  0  0  0  0  0
    9.3350   -1.0880   23.5010 C   0  0  0  0  0  0  0  0  0  0  0  0
    5.8300    0.9190   18.6970 C   0  0  0  0  0  0  0  0  0  0  0  0
    6.1790    0.5730   19.9990 C   0  0  0  0  0  0  0  0  0  0  0  0
    9.3070   -3.5340   24.8780 C   0  0  0  0  0  0  0  0  0  0  0  0
    9.0420    0.3700   21.5280 C   0  0  0  0  0  0  0  0  0  0  0  0
    9.5176   -4.8600   26.9769 C   0  0  0  0  0  0  0  0  0  0  0  0
    8.5166   -5.8725   24.9805 C   0  0  0  0  0  0  0  0  0  0  0  0
    8.1870   -5.0443   27.6986 C   0  0  0  0  0  0  0  0  0  0  0  0
    7.2201   -6.0348   25.7753 C   0  0  0  0  0  0  0  0  0  0  0  0
    9.8870    1.3260   23.5730 C   0  0  0  0  0  0  0  0  0  0  0  0
    9.4560    0.1560   22.8130 C   0  0  1  0  0  0  0  0  0  0  0  0
    6.7580    0.3810   17.8350 N   0  0  0  0  0  0  0  0  0  0  0  0
    7.6390   -0.2680   18.5410 N   0  0  0  0  0  0  0  0  0  0  0  0
    7.3170   -0.1610   19.8550 N   0  0  0  0  0  0  0  0  0  0  0  0
    9.2564   -4.7368   25.5411 N   0  0  0  0  0  0  0  0  0  0  0  0
    8.1890   -0.7180   20.8700 N   0  0  0  0  0  0  0  0  0  0  0  0
    9.2690    1.4140   20.9380 O   0  0  0  0  0  0  0  0  0  0  0  0
    7.4995   -6.1856   27.1717 O   0  0  0  0  0  0  0  0  0  0  0  0
   13.6733    4.1962   21.0354 H   0  0  0  0  0  0  0  0  0  0  0  0
   14.3290    2.3577   22.5667 H   0  0  0  0  0  0  0  0  0  0  0  0
   11.2734    4.7126   20.6733 H   0  0  0  0  0  0  0  0  0  0  0  0
    3.0136    2.6526   19.3908 H   0  0  0  0  0  0  0  0  0  0  0  0
    3.6480    2.0140   21.6821 H   0  0  0  0  0  0  0  0  0  0  0  0
   12.5949    1.0365   23.7338 H   0  0  0  0  0  0  0  0  0  0  0  0
    9.5319    3.3975   21.8356 H   0  0  0  0  0  0  0  0  0  0  0  0
    8.9214   -0.1986   25.4206 H   0  0  0  0  0  0  0  0  0  0  0  0
   10.0622   -2.2326   21.8251 H   0  0  0  0  0  0  0  0  0  0  0  0
    4.4042    1.9741   17.4524 H   0  0  0  0  0  0  0  0  0  0  0  0
    5.7089    0.6919   22.1150 H   0  0  0  0  0  0  0  0  0  0  0  0
    8.6882   -2.3542   26.5803 H   0  0  0  0  0  0  0  0  0  0  0  0
    9.9258   -4.3896   22.9914 H   0  0  0  0  0  0  0  0  0  0  0  0
   10.0207   -3.9702   27.3608 H   0  0  0  0  0  0  0  0  0  0  0  0
   10.1536   -5.7313   27.1546 H   0  0  0  0  0  0  0  0  0  0  0  0
    9.1181   -6.7774   25.0751 H   0  0  0  0  0  0  0  0  0  0  0  0
    8.2812   -5.7063   23.9302 H   0  0  0  0  0  0  0  0  0  0  0  0
    8.3631   -5.2257   28.7609 H   0  0  0  0  0  0  0  0  0  0  0  0
    7.5532   -4.1574   27.6103 H   0  0  0  0  0  0  0  0  0  0  0  0
    6.5460   -5.1840   25.6220 H   0  0  0  0  0  0  0  0  0  0  0  0
    6.6948   -6.9355   25.4433 H   0  0  0  0  0  0  0  0  0  0  0  0
   10.2886    1.0256   24.5508 H   0  0  0  0  0  0  0  0  0  0  0  0
    9.0288    1.9709   23.8044 H   0  0  0  0  0  0  0  0  0  0  0  0
   10.7829   -0.1040   22.4083 H   0  0  0  0  0  0  0  0  0  0  0  0
    8.2487   -1.5564   21.0972 H   0  0  0  0  0  0  0  0  0  0  0  0
  1  2  1  0  0  0  0
  1  3  2  0  0  0  0
  2  6  2  0  0  0  0
  3  7  1  0  0  0  0
  4  5  1  0  0  0  0
  4 10  2  0  0  0  0
  5 11  2  0  0  0  0
  6 14  1  0  0  0  0
  7 14  2  0  0  0  0
  8 12  2  0  0  0  0
  8 15  1  0  0  0  0
  9 13  1  0  0  0  0
  9 15  2  0  0  0  0
 10 16  1  0  0  0  0
 11 17  1  0  0  0  0
 12 18  1  0  0  0  0
 13 18  2  0  0  0  0
 14 24  1  0  0  0  0
 15 25  1  0  0  0  0
 16 17  2  0  0  0  0
 16 26  1  0  0  0  0
 17 28  1  0  0  0  0
 18 29  1  0  0  0  0
 19 25  1  1  0  0  0
 19 30  1  0  0  0  0
 19 31  2  0  0  0  0
 20 22  1  0  0  0  0
 20 29  1  0  0  0  0
 21 23  1  0  0  0  0
 21 29  1  0  0  0  0
 22 32  1  0  0  0  0
 23 32  1  0  0  0  0
 24 25  1  0  0  0  0
 26 27  2  0  0  0  0
 27 28  1  0  0  0  0
 28 30  1  0  0  0  0
  1 33  1  0  0  0  0
  2 34  1  0  0  0  0
  3 35  1  0  0  0  0
  4 36  1  0  0  0  0
  5 37  1  0  0  0  0
  6 38  1  0  0  0  0
  7 39  1  0  0  0  0
  8 40  1  0  0  0  0
  9 41  1  0  0  0  0
 10 42  1  0  0  0  0
 11 43  1  0  0  0  0
 12 44  1  0  0  0  0
 13 45  1  0  0  0  0
 20 46  1  0  0  0  0
 20 47  1  0  0  0  0
 21 48  1  0  0  0  0
 21 49  1  0  0  0  0
 22 50  1  0  0  0  0
 22 51  1  0  0  0  0
 23 52  1  0  0  0  0
 23 53  1  0  0  0  0
 24 54  1  0  0  0  0
 24 55  1  0  0  0  0
 25 56  1  0  0  0  0
 30 57  1  0  0  0  0
M  END
> <clash_score>
0.6270116611195339

> <docking_score>
-8.904712677001953

> <overlap_score>
0.9700440168380737

$$$$
BENZO_192_1
  -OEChem-08222022173D

 54 58  0     1  0  0  0  0  0999 V2000
    3.9160    2.0630   19.5520 C   0  0  0  0  0  0  0  0  0  0  0  0
    4.2750    1.7050   20.8490 C   0  0  0  0  0  0  0  0  0  0  0  0
    9.0720   -1.1280   24.8640 C   0  0  0  0  0  0  0  0  0  0  0  0
    9.7200   -2.2600   22.8630 C   0  0  0  0  0  0  0  0  0  0  0  0
    4.6890    1.6810   18.4640 C   0  0  0  0  0  0  0  0  0  0  0  0
    5.4210    0.9600   21.0930 C   0  0  0  0  0  0  0  0  0  0  0  0
    8.9960   -2.3380   25.5320 C   0  0  0  0  0  0  0  0  0  0  0  0
    9.6730   -3.4710   23.5300 C   0  0  0  0  0  0  0  0  0  0  0  0
   12.4051    0.7237   23.6691 C   0  0  0  0  0  0  0  0  0  0  0  0
   13.4398    0.5873   24.5682 C   0  0  0  0  0  0  0  0  0  0  0  0
   11.3401    1.2429   25.6687 C   0  0  0  0  0  0  0  0  0  0  0  0
    9.3350   -1.0880   23.5010 C   0  0  0  0  0  0  0  0  0  0  0  0
   11.1887    1.1036   24.3065 C   0  0  0  0  0  0  0  0  0  0  0  0
    5.8300    0.9190   18.6970 C   0  0  0  0  0  0  0  0  0  0  0  0
    6.1790    0.5730   19.9990 C   0  0  0  0  0  0  0  0  0  0  0  0
    9.3070   -3.5340   24.8780 C   0  0  0  0  0  0  0  0  0  0  0  0
    9.0420    0.3700   21.5280 C   0  0  0  0  0  0  0  0  0  0  0  0
   10.0772   -5.0257   26.7191 C   0  0  0  0  0  0  0  0  0  0  0  0
    8.0927   -5.6196   25.4069 C   0  0  0  0  0  0  0  0  0  0  0  0
    9.1935   -4.9431   27.9590 C   0  0  0  0  0  0  0  0  0  0  0  0
    7.2758   -5.5292   26.6966 C   0  0  0  0  0  0  0  0  0  0  0  0
    9.8870    1.3260   23.5730 C   0  0  0  0  0  0  0  0  0  0  0  0
    9.4560    0.1560   22.8130 C   0  0  1  0  0  0  0  0  0  0  0  0
    6.7580    0.3810   17.8350 N   0  0  0  0  0  0  0  0  0  0  0  0
    7.6390   -0.2680   18.5410 N   0  0  0  0  0  0  0  0  0  0  0  0
    7.3170   -0.1610   19.8550 N   0  0  0  0  0  0  0  0  0  0  0  0
    9.2564   -4.7368   25.5411 N   0  0  0  0  0  0  0  0  0  0  0  0
    8.1890   -0.7180   20.8700 N   0  0  0  0  0  0  0  0  0  0  0  0
    9.2690    1.4140   20.9380 O   0  0  0  0  0  0  0  0  0  0  0  0
    8.0884   -5.8462   27.8322 O   0  0  0  0  0  0  0  0  0  0  0  0
   12.9435    0.9166   26.1737 S   0  0  0  0  0  0  0  0  0  0  0  0
    3.0136    2.6526   19.3908 H   0  0  0  0  0  0  0  0  0  0  0  0
    3.6480    2.0140   21.6821 H   0  0  0  0  0  0  0  0  0  0  0  0
    8.9214   -0.1986   25.4206 H   0  0  0  0  0  0  0  0  0  0  0  0
   10.0622   -2.2326   21.8251 H   0  0  0  0  0  0  0  0  0  0  0  0
    4.4042    1.9741   17.4524 H   0  0  0  0  0  0  0  0  0  0  0  0
    5.7089    0.6919   22.1150 H   0  0  0  0  0  0  0  0  0  0  0  0
    8.6882   -2.3542   26.5803 H   0  0  0  0  0  0  0  0  0  0  0  0
    9.9258   -4.3896   22.9914 H   0  0  0  0  0  0  0  0  0  0  0  0
   12.5196    0.5574   22.6054 H   0  0  0  0  0  0  0  0  0  0  0  0
   14.4632    0.3094   24.3592 H   0  0  0  0  0  0  0  0  0  0  0  0
   10.5884    1.5193   26.3951 H   0  0  0  0  0  0  0  0  0  0  0  0
   10.8986   -4.3117   26.8083 H   0  0  0  0  0  0  0  0  0  0  0  0
   10.4916   -6.0336   26.6319 H   0  0  0  0  0  0  0  0  0  0  0  0
    8.4328   -6.6457   25.2617 H   0  0  0  0  0  0  0  0  0  0  0  0
    7.4726   -5.3240   24.5618 H   0  0  0  0  0  0  0  0  0  0  0  0
    9.7638   -5.2402   28.8416 H   0  0  0  0  0  0  0  0  0  0  0  0
    8.8238   -3.9272   28.1248 H   0  0  0  0  0  0  0  0  0  0  0  0
    6.8340   -4.5339   26.8232 H   0  0  0  0  0  0  0  0  0  0  0  0
    6.4551   -6.2523   26.6641 H   0  0  0  0  0  0  0  0  0  0  0  0
    9.1255    1.6083   24.3133 H   0  0  0  0  0  0  0  0  0  0  0  0
    9.9796    2.1992   22.9136 H   0  0  0  0  0  0  0  0  0  0  0  0
   10.7829   -0.1040   22.4083 H   0  0  0  0  0  0  0  0  0  0  0  0
    8.2487   -1.5564   21.0972 H   0  0  0  0  0  0  0  0  0  0  0  0
  1  2  1  0  0  0  0
  1  5  2  0  0  0  0
  2  6  2  0  0  0  0
  3  7  2  0  0  0  0
  3 12  1  0  0  0  0
  4  8  1  0  0  0  0
  4 12  2  0  0  0  0
  5 14  1  0  0  0  0
  6 15  1  0  0  0  0
  7 16  1  0  0  0  0
  8 16  2  0  0  0  0
  9 10  2  0  0  0  0
  9 13  1  0  0  0  0
 10 31  1  0  0  0  0
 11 13  2  0  0  0  0
 11 31  1  0  0  0  0
 12 23  1  0  0  0  0
 13 22  1  0  0  0  0
 14 15  2  0  0  0  0
 14 24  1  0  0  0  0
 15 26  1  0  0  0  0
 16 27  1  0  0  0  0
 17 23  1  1  0  0  0
 17 28  1  0  0  0  0
 17 29  2  0  0  0  0
 18 20  1  0  0  0  0
 18 27  1  0  0  0  0
 19 21  1  0  0  0  0
 19 27  1  0  0  0  0
 20 30  1  0  0  0  0
 21 30  1  0  0  0  0
 22 23  1  0  0  0  0
 24 25  2  0  0  0  0
 25 26  1  0  0  0  0
 26 28  1  0  0  0  0
  1 32  1  0  0  0  0
  2 33  1  0  0  0  0
  3 34  1  0  0  0  0
  4 35  1  0  0  0  0
  5 36  1  0  0  0  0
  6 37  1  0  0  0  0
  7 38  1  0  0  0  0
  8 39  1  0  0  0  0
  9 40  1  0  0  0  0
 10 41  1  0  0  0  0
 11 42  1  0  0  0  0
 18 43  1  0  0  0  0
 18 44  1  0  0  0  0
 19 45  1  0  0  0  0
 19 46  1  0  0  0  0
 20 47  1  0  0  0  0
 20 48  1  0  0  0  0
 21 49  1  0  0  0  0
 21 50  1  0  0  0  0
 22 51  1  0  0  0  0
 22 52  1  0  0  0  0
 23 53  1  0  0  0  0
 28 54  1  0  0  0  0
M  END
> <clash_score>
0.6210428435680381

> <docking_score>
-7.503995418548584

> <overlap_score>
0.921657919883728

$$$$
BENZO_190_2
  -OEChem-08222022173D

 58 62  0     1  0  0  0  0  0999 V2000
    3.9160    2.0630   19.5520 C   0  0  0  0  0  0  0  0  0  0  0  0
    4.2750    1.7050   20.8490 C   0  0  0  0  0  0  0  0  0  0  0  0
   13.6195    0.6628   23.3152 C   0  0  0  0  0  0  0  0  0  0  0  0
   12.2407    0.4591   23.3700 C   0  0  0  0  0  0  0  0  0  0  0  0
    9.0720   -1.1280   24.8640 C   0  0  0  0  0  0  0  0  0  0  0  0
    9.7200   -2.2600   22.8630 C   0  0  0  0  0  0  0  0  0  0  0  0
    4.6890    1.6810   18.4640 C   0  0  0  0  0  0  0  0  0  0  0  0
    5.4210    0.9600   21.0930 C   0  0  0  0  0  0  0  0  0  0  0  0
    8.9960   -2.3380   25.5320 C   0  0  0  0  0  0  0  0  0  0  0  0
    9.6730   -3.4710   23.5300 C   0  0  0  0  0  0  0  0  0  0  0  0
   14.1378    1.9547   23.4055 C   0  0  0  0  0  0  0  0  0  0  0  0
   11.8985    2.8392   23.6052 C   0  0  0  0  0  0  0  0  0  0  0  0
    9.3350   -1.0880   23.5010 C   0  0  0  0  0  0  0  0  0  0  0  0
   11.3802    1.5473   23.5150 C   0  0  0  0  0  0  0  0  0  0  0  0
    5.8300    0.9190   18.6970 C   0  0  0  0  0  0  0  0  0  0  0  0
    6.1790    0.5730   19.9990 C   0  0  0  0  0  0  0  0  0  0  0  0
    9.3070   -3.5340   24.8780 C   0  0  0  0  0  0  0  0  0  0  0  0
   13.2773    3.0428   23.5505 C   0  0  0  0  0  0  0  0  0  0  0  0
    8.3596   -5.0074   26.6306 C   0  0  0  0  0  0  0  0  0  0  0  0
    9.0420    0.3700   21.5280 C   0  0  0  0  0  0  0  0  0  0  0  0
    8.4719   -6.3982   27.2294 C   0  0  0  0  0  0  0  0  0  0  0  0
    9.9251   -6.7607   27.4801 C   0  0  0  0  0  0  0  0  0  0  0  0
   10.7833   -6.6095   26.2280 C   0  0  0  0  0  0  0  0  0  0  0  0
   10.0539   -5.9100   25.0821 C   0  0  0  0  0  0  0  0  0  0  0  0
    9.8870    1.3260   23.5730 C   0  0  0  0  0  0  0  0  0  0  0  0
    9.4560    0.1560   22.8130 C   0  0  2  0  0  0  0  0  0  0  0  0
    6.7580    0.3810   17.8350 N   0  0  0  0  0  0  0  0  0  0  0  0
    7.6390   -0.2680   18.5410 N   0  0  0  0  0  0  0  0  0  0  0  0
    7.3170   -0.1610   19.8550 N   0  0  0  0  0  0  0  0  0  0  0  0
    9.2529   -4.7797   25.5643 N   0  0  0  0  0  0  0  0  0  0  0  0
    8.1890   -0.7180   20.8700 N   0  0  0  0  0  0  0  0  0  0  0  0
    7.4954   -4.2357   27.0448 O   0  0  0  0  0  0  0  0  0  0  0  0
    9.2690    1.4140   20.9380 O   0  0  0  0  0  0  0  0  0  0  0  0
   13.9173    4.6366   23.6606 Cl  0  0  0  0  0  0  0  0  0  0  0  0
    3.0136    2.6526   19.3908 H   0  0  0  0  0  0  0  0  0  0  0  0
    3.6480    2.0140   21.6821 H   0  0  0  0  0  0  0  0  0  0  0  0
   14.2893   -0.1848   23.2021 H   0  0  0  0  0  0  0  0  0  0  0  0
   11.8457   -0.5509   23.2987 H   0  0  0  0  0  0  0  0  0  0  0  0
    8.9202   -0.1986   25.4206 H   0  0  0  0  0  0  0  0  0  0  0  0
   10.0631   -2.2319   21.8252 H   0  0  0  0  0  0  0  0  0  0  0  0
    4.4042    1.9741   17.4524 H   0  0  0  0  0  0  0  0  0  0  0  0
    5.7089    0.6919   22.1150 H   0  0  0  0  0  0  0  0  0  0  0  0
    8.6898   -2.3534   26.5810 H   0  0  0  0  0  0  0  0  0  0  0  0
    9.9254   -4.3899   22.9914 H   0  0  0  0  0  0  0  0  0  0  0  0
   15.2146    2.0985   23.3610 H   0  0  0  0  0  0  0  0  0  0  0  0
   11.2234    3.6842   23.7187 H   0  0  0  0  0  0  0  0  0  0  0  0
    7.9324   -6.4149   28.1639 H   0  0  0  0  0  0  0  0  0  0  0  0
    8.0254   -7.0921   26.5330 H   0  0  0  0  0  0  0  0  0  0  0  0
   10.3386   -6.1268   28.2921 H   0  0  0  0  0  0  0  0  0  0  0  0
    9.9903   -7.8025   27.8535 H   0  0  0  0  0  0  0  0  0  0  0  0
   11.7036   -6.0405   26.4770 H   0  0  0  0  0  0  0  0  0  0  0  0
   11.1411   -7.6069   25.8917 H   0  0  0  0  0  0  0  0  0  0  0  0
   10.7783   -5.5162   24.3756 H   0  0  0  0  0  0  0  0  0  0  0  0
    9.4042   -6.6189   24.5805 H   0  0  0  0  0  0  0  0  0  0  0  0
    9.6004    1.2280   24.6293 H   0  0  0  0  0  0  0  0  0  0  0  0
    9.3666    2.2262   23.2198 H   0  0  0  0  0  0  0  0  0  0  0  0
    8.0666    0.4961   23.2504 H   0  0  0  0  0  0  0  0  0  0  0  0
    8.2487   -1.5564   21.0972 H   0  0  0  0  0  0  0  0  0  0  0  0
  1  2  1  0  0  0  0
  1  7  2  0  0  0  0
  2  8  2  0  0  0  0
  3  4  2  0  0  0  0
  3 11  1  0  0  0  0
  4 14  1  0  0  0  0
  5  9  2  0  0  0  0
  5 13  1  0  0  0  0
  6 10  1  0  0  0  0
  6 13  2  0  0  0  0
  7 15  1  0  0  0  0
  8 16  1  0  0  0  0
  9 17  1  0  0  0  0
 10 17  2  0  0  0  0
 11 18  2  0  0  0  0
 12 14  2  0  0  0  0
 12 18  1  0  0  0  0
 13 26  1  0  0  0  0
 14 25  1  0  0  0  0
 15 16  2  0  0  0  0
 15 27  1  0  0  0  0
 16 29  1  0  0  0  0
 17 30  1  0  0  0  0
 18 34  1  0  0  0  0
 19 21  1  0  0  0  0
 19 30  1  0  0  0  0
 19 32  2  0  0  0  0
 20 26  1  6  0  0  0
 20 31  1  0  0  0  0
 20 33  2  0  0  0  0
 21 22  1  0  0  0  0
 22 23  1  0  0  0  0
 23 24  1  0  0  0  0
 24 30  1  0  0  0  0
 25 26  1  0  0  0  0
 27 28  2  0  0  0  0
 28 29  1  0  0  0  0
 29 31  1  0  0  0  0
  1 35  1  0  0  0  0
  2 36  1  0  0  0  0
  3 37  1  0  0  0  0
  4 38  1  0  0  0  0
  5 39  1  0  0  0  0
  6 40  1  0  0  0  0
  7 41  1  0  0  0  0
  8 42  1  0  0  0  0
  9 43  1  0  0  0  0
 10 44  1  0  0  0  0
 11 45  1  0  0  0  0
 12 46  1  0  0  0  0
 21 47  1  0  0  0  0
 21 48  1  0  0  0  0
 22 49  1  0  0  0  0
 22 50  1  0  0  0  0
 23 51  1  0  0  0  0
 23 52  1  0  0  0  0
 24 53  1  0  0  0  0
 24 54  1  0  0  0  0
 25 55  1  0  0  0  0
 25 56  1  0  0  0  0
 26 57  1  0  0  0  0
 31 58  1  0  0  0  0
M  END
> <clash_score>
0.7790931276820443

> <docking_score>
-7.5827484130859375

> <overlap_score>
1.0261739492416382

$$$$
BENZO_193_2
  -OEChem-08222022173D

 57 61  0     1  0  0  0  0  0999 V2000
   14.1380    1.9545   23.4082 C   0  0  0  0  0  0  0  0  0  0  0  0
   13.2774    3.0427   23.5520 C   0  0  0  0  0  0  0  0  0  0  0  0
   13.6197    0.6626   23.3176 C   0  0  0  0  0  0  0  0  0  0  0  0
    3.9160    2.0630   19.5520 C   0  0  0  0  0  0  0  0  0  0  0  0
    4.2750    1.7050   20.8490 C   0  0  0  0  0  0  0  0  0  0  0  0
   11.8985    2.8391   23.6054 C   0  0  0  0  0  0  0  0  0  0  0  0
   12.2408    0.4590   23.3711 C   0  0  0  0  0  0  0  0  0  0  0  0
    9.0720   -1.1280   24.8640 C   0  0  0  0  0  0  0  0  0  0  0  0
    9.7200   -2.2600   22.8630 C   0  0  0  0  0  0  0  0  0  0  0  0
    4.6890    1.6810   18.4640 C   0  0  0  0  0  0  0  0  0  0  0  0
    5.4210    0.9600   21.0930 C   0  0  0  0  0  0  0  0  0  0  0  0
    8.9960   -2.3380   25.5320 C   0  0  0  0  0  0  0  0  0  0  0  0
    9.6730   -3.4710   23.5300 C   0  0  0  0  0  0  0  0  0  0  0  0
   11.3802    1.5472   23.5150 C   0  0  0  0  0  0  0  0  0  0  0  0
    9.3350   -1.0880   23.5010 C   0  0  0  0  0  0  0  0  0  0  0  0
    5.8300    0.9190   18.6970 C   0  0  0  0  0  0  0  0  0  0  0  0
    6.1790    0.5730   19.9990 C   0  0  0  0  0  0  0  0  0  0  0  0
    9.3070   -3.5340   24.8780 C   0  0  0  0  0  0  0  0  0  0  0  0
    9.0420    0.3700   21.5280 C   0  0  0  0  0  0  0  0  0  0  0  0
   10.0772   -5.0257   26.7191 C   0  0  0  0  0  0  0  0  0  0  0  0
    8.0927   -5.6196   25.4069 C   0  0  0  0  0  0  0  0  0  0  0  0
    9.1935   -4.9431   27.9590 C   0  0  0  0  0  0  0  0  0  0  0  0
    7.2758   -5.5292   26.6966 C   0  0  0  0  0  0  0  0  0  0  0  0
    9.8870    1.3260   23.5730 C   0  0  0  0  0  0  0  0  0  0  0  0
    9.4560    0.1560   22.8130 C   0  0  2  0  0  0  0  0  0  0  0  0
    6.7580    0.3810   17.8350 N   0  0  0  0  0  0  0  0  0  0  0  0
    7.6390   -0.2680   18.5410 N   0  0  0  0  0  0  0  0  0  0  0  0
    7.3170   -0.1610   19.8550 N   0  0  0  0  0  0  0  0  0  0  0  0
    9.2564   -4.7368   25.5411 N   0  0  0  0  0  0  0  0  0  0  0  0
    8.1890   -0.7180   20.8700 N   0  0  0  0  0  0  0  0  0  0  0  0
    9.2690    1.4140   20.9380 O   0  0  0  0  0  0  0  0  0  0  0  0
    8.0884   -5.8462   27.8322 O   0  0  0  0  0  0  0  0  0  0  0  0
   15.2116    2.1133   23.3652 H   0  0  0  0  0  0  0  0  0  0  0  0
   13.6807    4.0488   23.6214 H   0  0  0  0  0  0  0  0  0  0  0  0
   14.2894   -0.1848   23.2045 H   0  0  0  0  0  0  0  0  0  0  0  0
    3.0136    2.6526   19.3908 H   0  0  0  0  0  0  0  0  0  0  0  0
    3.6480    2.0140   21.6821 H   0  0  0  0  0  0  0  0  0  0  0  0
   11.2356    3.6930   23.7179 H   0  0  0  0  0  0  0  0  0  0  0  0
   11.8460   -0.5511   23.2999 H   0  0  0  0  0  0  0  0  0  0  0  0
    8.9214   -0.1986   25.4206 H   0  0  0  0  0  0  0  0  0  0  0  0
   10.0622   -2.2326   21.8251 H   0  0  0  0  0  0  0  0  0  0  0  0
    4.4042    1.9741   17.4524 H   0  0  0  0  0  0  0  0  0  0  0  0
    5.7089    0.6919   22.1150 H   0  0  0  0  0  0  0  0  0  0  0  0
    8.6882   -2.3542   26.5803 H   0  0  0  0  0  0  0  0  0  0  0  0
    9.9258   -4.3896   22.9914 H   0  0  0  0  0  0  0  0  0  0  0  0
   10.8986   -4.3117   26.8083 H   0  0  0  0  0  0  0  0  0  0  0  0
   10.4916   -6.0336   26.6319 H   0  0  0  0  0  0  0  0  0  0  0  0
    8.4328   -6.6457   25.2617 H   0  0  0  0  0  0  0  0  0  0  0  0
    7.4726   -5.3240   24.5618 H   0  0  0  0  0  0  0  0  0  0  0  0
    9.7638   -5.2402   28.8416 H   0  0  0  0  0  0  0  0  0  0  0  0
    8.8238   -3.9272   28.1248 H   0  0  0  0  0  0  0  0  0  0  0  0
    6.8340   -4.5339   26.8232 H   0  0  0  0  0  0  0  0  0  0  0  0
    6.4551   -6.2523   26.6641 H   0  0  0  0  0  0  0  0  0  0  0  0
    9.6004    1.2281   24.6293 H   0  0  0  0  0  0  0  0  0  0  0  0
    9.3666    2.2262   23.2197 H   0  0  0  0  0  0  0  0  0  0  0  0
    8.0666    0.4961   23.2504 H   0  0  0  0  0  0  0  0  0  0  0  0
    8.2487   -1.5564   21.0972 H   0  0  0  0  0  0  0  0  0  0  0  0
  1  2  1  0  0  0  0
  1  3  2  0  0  0  0
  2  6  2  0  0  0  0
  3  7  1  0  0  0  0
  4  5  1  0  0  0  0
  4 10  2  0  0  0  0
  5 11  2  0  0  0  0
  6 14  1  0  0  0  0
  7 14  2  0  0  0  0
  8 12  2  0  0  0  0
  8 15  1  0  0  0  0
  9 13  1  0  0  0  0
  9 15  2  0  0  0  0
 10 16  1  0  0  0  0
 11 17  1  0  0  0  0
 12 18  1  0  0  0  0
 13 18  2  0  0  0  0
 14 24  1  0  0  0  0
 15 25  1  0  0  0  0
 16 17  2  0  0  0  0
 16 26  1  0  0  0  0
 17 28  1  0  0  0  0
 18 29  1  0  0  0  0
 19 25  1  6  0  0  0
 19 30  1  0  0  0  0
 19 31  2  0  0  0  0
 20 22  1  0  0  0  0
 20 29  1  0  0  0  0
 21 23  1  0  0  0  0
 21 29  1  0  0  0  0
 22 32  1  0  0  0  0
 23 32  1  0  0  0  0
 24 25  1  0  0  0  0
 26 27  2  0  0  0  0
 27 28  1  0  0  0  0
 28 30  1  0  0  0  0
  1 33  1  0  0  0  0
  2 34  1  0  0  0  0
  3 35  1  0  0  0  0
  4 36  1  0  0  0  0
  5 37  1  0  0  0  0
  6 38  1  0  0  0  0
  7 39  1  0  0  0  0
  8 40  1  0  0  0  0
  9 41  1  0  0  0  0
 10 42  1  0  0  0  0
 11 43  1  0  0  0  0
 12 44  1  0  0  0  0
 13 45  1  0  0  0  0
 20 46  1  0  0  0  0
 20 47  1  0  0  0  0
 21 48  1  0  0  0  0
 21 49  1  0  0  0  0
 22 50  1  0  0  0  0
 22 51  1  0  0  0  0
 23 52  1  0  0  0  0
 23 53  1  0  0  0  0
 24 54  1  0  0  0  0
 24 55  1  0  0  0  0
 25 56  1  0  0  0  0
 30 57  1  0  0  0  0
M  END
> <clash_score>
0

> <docking_score>
-8.917524337768555

> <overlap_score>
1.0104820728302002

$$$$
BENZO_191_1
  -OEChem-08222022173D

 58 62  0     1  0  0  0  0  0999 V2000
    3.9160    2.0630   19.5520 C   0  0  0  0  0  0  0  0  0  0  0  0
    4.2750    1.7050   20.8490 C   0  0  0  0  0  0  0  0  0  0  0  0
    9.0720   -1.1280   24.8640 C   0  0  0  0  0  0  0  0  0  0  0  0
    9.7200   -2.2600   22.8630 C   0  0  0  0  0  0  0  0  0  0  0  0
    4.6890    1.6810   18.4640 C   0  0  0  0  0  0  0  0  0  0  0  0
    5.4210    0.9600   21.0930 C   0  0  0  0  0  0  0  0  0  0  0  0
    8.9960   -2.3380   25.5320 C   0  0  0  0  0  0  0  0  0  0  0  0
    9.6730   -3.4710   23.5300 C   0  0  0  0  0  0  0  0  0  0  0  0
   12.0761    2.7685   23.5923 C   0  0  0  0  0  0  0  0  0  0  0  0
   12.3645    0.5993   23.3773 C   0  0  0  0  0  0  0  0  0  0  0  0
    9.3350   -1.0880   23.5010 C   0  0  0  0  0  0  0  0  0  0  0  0
   11.3802    1.5473   23.5150 C   0  0  0  0  0  0  0  0  0  0  0  0
    5.8300    0.9190   18.6970 C   0  0  0  0  0  0  0  0  0  0  0  0
    6.1790    0.5730   19.9990 C   0  0  0  0  0  0  0  0  0  0  0  0
    9.3070   -3.5340   24.8780 C   0  0  0  0  0  0  0  0  0  0  0  0
    8.3596   -5.0074   26.6306 C   0  0  0  0  0  0  0  0  0  0  0  0
    9.0420    0.3700   21.5280 C   0  0  0  0  0  0  0  0  0  0  0  0
    8.4719   -6.3982   27.2294 C   0  0  0  0  0  0  0  0  0  0  0  0
    9.9251   -6.7607   27.4801 C   0  0  0  0  0  0  0  0  0  0  0  0
   10.7833   -6.6095   26.2280 C   0  0  0  0  0  0  0  0  0  0  0  0
   10.0539   -5.9100   25.0821 C   0  0  0  0  0  0  0  0  0  0  0  0
   14.8649    0.7141   23.2612 C   0  0  0  0  0  0  0  0  0  0  0  0
    9.8870    1.3260   23.5730 C   0  0  0  0  0  0  0  0  0  0  0  0
    9.4560    0.1560   22.8130 C   0  0  1  0  0  0  0  0  0  0  0  0
   13.4002    2.6135   23.5107 N   0  0  0  0  0  0  0  0  0  0  0  0
    6.7580    0.3810   17.8350 N   0  0  0  0  0  0  0  0  0  0  0  0
    7.6390   -0.2680   18.5410 N   0  0  0  0  0  0  0  0  0  0  0  0
   13.5442    1.2837   23.3808 N   0  0  0  0  0  0  0  0  0  0  0  0
    7.3170   -0.1610   19.8550 N   0  0  0  0  0  0  0  0  0  0  0  0
    9.2529   -4.7797   25.5643 N   0  0  0  0  0  0  0  0  0  0  0  0
    8.1890   -0.7180   20.8700 N   0  0  0  0  0  0  0  0  0  0  0  0
    7.4954   -4.2357   27.0448 O   0  0  0  0  0  0  0  0  0  0  0  0
    9.2690    1.4140   20.9380 O   0  0  0  0  0  0  0  0  0  0  0  0
    3.0136    2.6526   19.3908 H   0  0  0  0  0  0  0  0  0  0  0  0
    3.6480    2.0140   21.6821 H   0  0  0  0  0  0  0  0  0  0  0  0
    8.9202   -0.1986   25.4206 H   0  0  0  0  0  0  0  0  0  0  0  0
   10.0631   -2.2319   21.8252 H   0  0  0  0  0  0  0  0  0  0  0  0
    4.4042    1.9741   17.4524 H   0  0  0  0  0  0  0  0  0  0  0  0
    5.7089    0.6919   22.1150 H   0  0  0  0  0  0  0  0  0  0  0  0
    8.6898   -2.3534   26.5810 H   0  0  0  0  0  0  0  0  0  0  0  0
    9.9254   -4.3899   22.9914 H   0  0  0  0  0  0  0  0  0  0  0  0
   11.6759    3.7661   23.7056 H   0  0  0  0  0  0  0  0  0  0  0  0
   12.3270   -0.4774   23.2810 H   0  0  0  0  0  0  0  0  0  0  0  0
    7.9324   -6.4149   28.1639 H   0  0  0  0  0  0  0  0  0  0  0  0
    8.0254   -7.0921   26.5330 H   0  0  0  0  0  0  0  0  0  0  0  0
   10.3386   -6.1268   28.2921 H   0  0  0  0  0  0  0  0  0  0  0  0
    9.9903   -7.8025   27.8535 H   0  0  0  0  0  0  0  0  0  0  0  0
   11.7036   -6.0405   26.4770 H   0  0  0  0  0  0  0  0  0  0  0  0
   11.1411   -7.6069   25.8917 H   0  0  0  0  0  0  0  0  0  0  0  0
   10.7783   -5.5162   24.3756 H   0  0  0  0  0  0  0  0  0  0  0  0
    9.4042   -6.6189   24.5805 H   0  0  0  0  0  0  0  0  0  0  0  0
   15.1212    0.6765   22.1992 H   0  0  0  0  0  0  0  0  0  0  0  0
   15.5806    1.3366   23.8054 H   0  0  0  0  0  0  0  0  0  0  0  0
   14.8651   -0.2914   23.6914 H   0  0  0  0  0  0  0  0  0  0  0  0
    9.6004    1.2280   24.6293 H   0  0  0  0  0  0  0  0  0  0  0  0
    9.3666    2.2262   23.2198 H   0  0  0  0  0  0  0  0  0  0  0  0
    8.0666    0.4961   23.2504 H   0  0  0  0  0  0  0  0  0  0  0  0
    8.2487   -1.5564   21.0972 H   0  0  0  0  0  0  0  0  0  0  0  0
  1  2  1  0  0  0  0
  1  5  2  0  0  0  0
  2  6  2  0  0  0  0
  3  7  2  0  0  0  0
  3 11  1  0  0  0  0
  4  8  1  0  0  0  0
  4 11  2  0  0  0  0
  5 13  1  0  0  0  0
  6 14  1  0  0  0  0
  7 15  1  0  0  0  0
  8 15  2  0  0  0  0
  9 12  1  0  0  0  0
  9 25  2  0  0  0  0
 10 12  2  0  0  0  0
 10 28  1  0  0  0  0
 11 24  1  0  0  0  0
 12 23  1  0  0  0  0
 13 14  2  0  0  0  0
 13 26  1  0  0  0  0
 14 29  1  0  0  0  0
 15 30  1  0  0  0  0
 16 18  1  0  0  0  0
 16 30  1  0  0  0  0
 16 32  2  0  0  0  0
 17 24  1  0  0  0  0
 17 31  1  0  0  0  0
 17 33  2  0  0  0  0
 18 19  1  0  0  0  0
 19 20  1  0  0  0  0
 20 21  1  0  0  0  0
 21 30  1  0  0  0  0
 22 28  1  0  0  0  0
 23 24  1  1  0  0  0
 25 28  1  0  0  0  0
 26 27  2  0  0  0  0
 27 29  1  0  0  0  0
 29 31  1  0  0  0  0
  1 34  1  0  0  0  0
  2 35  1  0  0  0  0
  3 36  1  0  0  0  0
  4 37  1  0  0  0  0
  5 38  1  0  0  0  0
  6 39  1  0  0  0  0
  7 40  1  0  0  0  0
  8 41  1  0  0  0  0
  9 42  1  0  0  0  0
 10 43  1  0  0  0  0
 18 44  1  0  0  0  0
 18 45  1  0  0  0  0
 19 46  1  0  0  0  0
 19 47  1  0  0  0  0
 20 48  1  0  0  0  0
 20 49  1  0  0  0  0
 21 50  1  0  0  0  0
 21 51  1  0  0  0  0
 22 52  1  0  0  0  0
 22 53  1  0  0  0  0
 22 54  1  0  0  0  0
 23 55  1  0  0  0  0
 23 56  1  0  0  0  0
 24 57  1  0  0  0  0
 31 58  1  0  0  0  0
M  END
> <clash_score>
0.7790931276820443

> <docking_score>
-8.00979232788086

> <overlap_score>
1.0250213146209717

$$$$
BENZO_192_2
  -OEChem-08222022173D

 54 58  0     1  0  0  0  0  0999 V2000
    3.9160    2.0630   19.5520 C   0  0  0  0  0  0  0  0  0  0  0  0
    4.2750    1.7050   20.8490 C   0  0  0  0  0  0  0  0  0  0  0  0
    9.0720   -1.1280   24.8640 C   0  0  0  0  0  0  0  0  0  0  0  0
    9.7200   -2.2600   22.8630 C   0  0  0  0  0  0  0  0  0  0  0  0
    4.6890    1.6810   18.4640 C   0  0  0  0  0  0  0  0  0  0  0  0
    5.4210    0.9600   21.0930 C   0  0  0  0  0  0  0  0  0  0  0  0
    8.9960   -2.3380   25.5320 C   0  0  0  0  0  0  0  0  0  0  0  0
    9.6730   -3.4710   23.5300 C   0  0  0  0  0  0  0  0  0  0  0  0
   12.3363    0.4949   23.4224 C   0  0  0  0  0  0  0  0  0  0  0  0
   13.6283    0.9714   23.3861 C   0  0  0  0  0  0  0  0  0  0  0  0
   11.9780    2.7881   23.5461 C   0  0  0  0  0  0  0  0  0  0  0  0
    9.3350   -1.0880   23.5010 C   0  0  0  0  0  0  0  0  0  0  0  0
   11.3802    1.5472   23.5150 C   0  0  0  0  0  0  0  0  0  0  0  0
    5.8300    0.9190   18.6970 C   0  0  0  0  0  0  0  0  0  0  0  0
    6.1790    0.5730   19.9990 C   0  0  0  0  0  0  0  0  0  0  0  0
    9.3070   -3.5340   24.8780 C   0  0  0  0  0  0  0  0  0  0  0  0
    9.0420    0.3700   21.5280 C   0  0  0  0  0  0  0  0  0  0  0  0
   10.0772   -5.0257   26.7191 C   0  0  0  0  0  0  0  0  0  0  0  0
    8.0927   -5.6196   25.4069 C   0  0  0  0  0  0  0  0  0  0  0  0
    9.1935   -4.9431   27.9590 C   0  0  0  0  0  0  0  0  0  0  0  0
    7.2758   -5.5292   26.6966 C   0  0  0  0  0  0  0  0  0  0  0  0
    9.8870    1.3260   23.5730 C   0  0  0  0  0  0  0  0  0  0  0  0
    9.4560    0.1560   22.8130 C   0  0  2  0  0  0  0  0  0  0  0  0
    6.7580    0.3810   17.8350 N   0  0  0  0  0  0  0  0  0  0  0  0
    7.6390   -0.2680   18.5410 N   0  0  0  0  0  0  0  0  0  0  0  0
    7.3170   -0.1610   19.8550 N   0  0  0  0  0  0  0  0  0  0  0  0
    9.2564   -4.7368   25.5411 N   0  0  0  0  0  0  0  0  0  0  0  0
    8.1890   -0.7180   20.8700 N   0  0  0  0  0  0  0  0  0  0  0  0
    9.2690    1.4140   20.9380 O   0  0  0  0  0  0  0  0  0  0  0  0
    8.0884   -5.8462   27.8322 O   0  0  0  0  0  0  0  0  0  0  0  0
   13.6850    2.6811   23.4637 S   0  0  0  0  0  0  0  0  0  0  0  0
    3.0136    2.6526   19.3908 H   0  0  0  0  0  0  0  0  0  0  0  0
    3.6480    2.0140   21.6821 H   0  0  0  0  0  0  0  0  0  0  0  0
    8.9214   -0.1986   25.4206 H   0  0  0  0  0  0  0  0  0  0  0  0
   10.0622   -2.2326   21.8251 H   0  0  0  0  0  0  0  0  0  0  0  0
    4.4042    1.9741   17.4524 H   0  0  0  0  0  0  0  0  0  0  0  0
    5.7089    0.6919   22.1150 H   0  0  0  0  0  0  0  0  0  0  0  0
    8.6882   -2.3542   26.5803 H   0  0  0  0  0  0  0  0  0  0  0  0
    9.9258   -4.3896   22.9914 H   0  0  0  0  0  0  0  0  0  0  0  0
   12.0932   -0.5595   23.3845 H   0  0  0  0  0  0  0  0  0  0  0  0
   14.5416    0.3974   23.3186 H   0  0  0  0  0  0  0  0  0  0  0  0
   11.4978    3.7544   23.6145 H   0  0  0  0  0  0  0  0  0  0  0  0
   10.8986   -4.3117   26.8083 H   0  0  0  0  0  0  0  0  0  0  0  0
   10.4916   -6.0336   26.6319 H   0  0  0  0  0  0  0  0  0  0  0  0
    8.4328   -6.6457   25.2617 H   0  0  0  0  0  0  0  0  0  0  0  0
    7.4726   -5.3240   24.5618 H   0  0  0  0  0  0  0  0  0  0  0  0
    9.7638   -5.2402   28.8416 H   0  0  0  0  0  0  0  0  0  0  0  0
    8.8238   -3.9272   28.1248 H   0  0  0  0  0  0  0  0  0  0  0  0
    6.8340   -4.5339   26.8232 H   0  0  0  0  0  0  0  0  0  0  0  0
    6.4551   -6.2523   26.6641 H   0  0  0  0  0  0  0  0  0  0  0  0
    9.6004    1.2281   24.6293 H   0  0  0  0  0  0  0  0  0  0  0  0
    9.3666    2.2262   23.2198 H   0  0  0  0  0  0  0  0  0  0  0  0
    8.0666    0.4961   23.2504 H   0  0  0  0  0  0  0  0  0  0  0  0
    8.2487   -1.5564   21.0972 H   0  0  0  0  0  0  0  0  0  0  0  0
  1  2  1  0  0  0  0
  1  5  2  0  0  0  0
  2  6  2  0  0  0  0
  3  7  2  0  0  0  0
  3 12  1  0  0  0  0
  4  8  1  0  0  0  0
  4 12  2  0  0  0  0
  5 14  1  0  0  0  0
  6 15  1  0  0  0  0
  7 16  1  0  0  0  0
  8 16  2  0  0  0  0
  9 10  2  0  0  0  0
  9 13  1  0  0  0  0
 10 31  1  0  0  0  0
 11 13  2  0  0  0  0
 11 31  1  0  0  0  0
 12 23  1  0  0  0  0
 13 22  1  0  0  0  0
 14 15  2  0  0  0  0
 14 24  1  0  0  0  0
 15 26  1  0  0  0  0
 16 27  1  0  0  0  0
 17 23  1  6  0  0  0
 17 28  1  0  0  0  0
 17 29  2  0  0  0  0
 18 20  1  0  0  0  0
 18 27  1  0  0  0  0
 19 21  1  0  0  0  0
 19 27  1  0  0  0  0
 20 30  1  0  0  0  0
 21 30  1  0  0  0  0
 22 23  1  0  0  0  0
 24 25  2  0  0  0  0
 25 26  1  0  0  0  0
 26 28  1  0  0  0  0
  1 32  1  0  0  0  0
  2 33  1  0  0  0  0
  3 34  1  0  0  0  0
  4 35  1  0  0  0  0
  5 36  1  0  0  0  0
  6 37  1  0  0  0  0
  7 38  1  0  0  0  0
  8 39  1  0  0  0  0
  9 40  1  0  0  0  0
 10 41  1  0  0  0  0
 11 42  1  0  0  0  0
 18 43  1  0  0  0  0
 18 44  1  0  0  0  0
 19 45  1  0  0  0  0
 19 46  1  0  0  0  0
 20 47  1  0  0  0  0
 20 48  1  0  0  0  0
 21 49  1  0  0  0  0
 21 50  1  0  0  0  0
 22 51  1  0  0  0  0
 22 52  1  0  0  0  0
 23 53  1  0  0  0  0
 28 54  1  0  0  0  0
M  END
> <clash_score>
0

> <docking_score>
-9.413312911987305

> <overlap_score>
0.9950448870658875

$$$$
BENZO_194_1
  -OEChem-08222022173D

 57 61  0     1  0  0  0  0  0999 V2000
    3.9160    2.0630   19.5520 C   0  0  0  0  0  0  0  0  0  0  0  0
    4.2750    1.7050   20.8490 C   0  0  0  0  0  0  0  0  0  0  0  0
   13.2791    2.5803   22.4075 C   0  0  0  0  0  0  0  0  0  0  0  0
   12.2978    1.8385   23.0651 C   0  0  0  0  0  0  0  0  0  0  0  0
    9.0720   -1.1280   24.8640 C   0  0  0  0  0  0  0  0  0  0  0  0
    9.7200   -2.2600   22.8630 C   0  0  0  0  0  0  0  0  0  0  0  0
    4.6890    1.6810   18.4640 C   0  0  0  0  0  0  0  0  0  0  0  0
    5.4210    0.9600   21.0930 C   0  0  0  0  0  0  0  0  0  0  0  0
    8.9960   -2.3380   25.5320 C   0  0  0  0  0  0  0  0  0  0  0  0
    9.6730   -3.4710   23.5300 C   0  0  0  0  0  0  0  0  0  0  0  0
   12.9118    3.6142   21.5462 C   0  0  0  0  0  0  0  0  0  0  0  0
   10.5818    3.1644   22.0000 C   0  0  0  0  0  0  0  0  0  0  0  0
    9.3350   -1.0880   23.5010 C   0  0  0  0  0  0  0  0  0  0  0  0
   10.9492    2.1306   22.8614 C   0  0  0  0  0  0  0  0  0  0  0  0
    5.8300    0.9190   18.6970 C   0  0  0  0  0  0  0  0  0  0  0  0
    6.1790    0.5730   19.9990 C   0  0  0  0  0  0  0  0  0  0  0  0
    9.3070   -3.5340   24.8780 C   0  0  0  0  0  0  0  0  0  0  0  0
   11.5631    3.9062   21.3424 C   0  0  0  0  0  0  0  0  0  0  0  0
    9.0420    0.3700   21.5280 C   0  0  0  0  0  0  0  0  0  0  0  0
    9.5176   -4.8600   26.9769 C   0  0  0  0  0  0  0  0  0  0  0  0
    8.5166   -5.8725   24.9805 C   0  0  0  0  0  0  0  0  0  0  0  0
    8.1870   -5.0443   27.6986 C   0  0  0  0  0  0  0  0  0  0  0  0
    7.2201   -6.0348   25.7753 C   0  0  0  0  0  0  0  0  0  0  0  0
    9.8870    1.3260   23.5730 C   0  0  0  0  0  0  0  0  0  0  0  0
    9.4560    0.1560   22.8130 C   0  0  1  0  0  0  0  0  0  0  0  0
    6.7580    0.3810   17.8350 N   0  0  0  0  0  0  0  0  0  0  0  0
    7.6390   -0.2680   18.5410 N   0  0  0  0  0  0  0  0  0  0  0  0
    7.3170   -0.1610   19.8550 N   0  0  0  0  0  0  0  0  0  0  0  0
    9.2564   -4.7368   25.5411 N   0  0  0  0  0  0  0  0  0  0  0  0
    8.1890   -0.7180   20.8700 N   0  0  0  0  0  0  0  0  0  0  0  0
    9.2690    1.4140   20.9380 O   0  0  0  0  0  0  0  0  0  0  0  0
    7.4995   -6.1856   27.1717 O   0  0  0  0  0  0  0  0  0  0  0  0
   11.1105    5.1811   20.2787 Cl  0  0  0  0  0  0  0  0  0  0  0  0
    3.0136    2.6526   19.3908 H   0  0  0  0  0  0  0  0  0  0  0  0
    3.6480    2.0140   21.6821 H   0  0  0  0  0  0  0  0  0  0  0  0
   14.3292    2.3525   22.5663 H   0  0  0  0  0  0  0  0  0  0  0  0
   12.5932    1.0347   23.7344 H   0  0  0  0  0  0  0  0  0  0  0  0
    8.9214   -0.1986   25.4206 H   0  0  0  0  0  0  0  0  0  0  0  0
   10.0622   -2.2326   21.8251 H   0  0  0  0  0  0  0  0  0  0  0  0
    4.4042    1.9741   17.4524 H   0  0  0  0  0  0  0  0  0  0  0  0
    5.7089    0.6919   22.1150 H   0  0  0  0  0  0  0  0  0  0  0  0
    8.6882   -2.3542   26.5803 H   0  0  0  0  0  0  0  0  0  0  0  0
    9.9258   -4.3896   22.9914 H   0  0  0  0  0  0  0  0  0  0  0  0
   13.6873    4.1838   21.0401 H   0  0  0  0  0  0  0  0  0  0  0  0
    9.5289    3.3885   21.8449 H   0  0  0  0  0  0  0  0  0  0  0  0
   10.0207   -3.9702   27.3608 H   0  0  0  0  0  0  0  0  0  0  0  0
   10.1536   -5.7313   27.1546 H   0  0  0  0  0  0  0  0  0  0  0  0
    9.1181   -6.7774   25.0751 H   0  0  0  0  0  0  0  0  0  0  0  0
    8.2812   -5.7063   23.9302 H   0  0  0  0  0  0  0  0  0  0  0  0
    8.3631   -5.2257   28.7609 H   0  0  0  0  0  0  0  0  0  0  0  0
    7.5532   -4.1574   27.6103 H   0  0  0  0  0  0  0  0  0  0  0  0
    6.5460   -5.1840   25.6220 H   0  0  0  0  0  0  0  0  0  0  0  0
    6.6948   -6.9355   25.4433 H   0  0  0  0  0  0  0  0  0  0  0  0
   10.2886    1.0256   24.5508 H   0  0  0  0  0  0  0  0  0  0  0  0
    9.0288    1.9709   23.8044 H   0  0  0  0  0  0  0  0  0  0  0  0
   10.7829   -0.1040   22.4083 H   0  0  0  0  0  0  0  0  0  0  0  0
    8.2487   -1.5564   21.0972 H   0  0  0  0  0  0  0  0  0  0  0  0
  1  2  1  0  0  0  0
  1  7  2  0  0  0  0
  2  8  2  0  0  0  0
  3  4  2  0  0  0  0
  3 11  1  0  0  0  0
  4 14  1  0  0  0  0
  5  9  2  0  0  0  0
  5 13  1  0  0  0  0
  6 10  1  0  0  0  0
  6 13  2  0  0  0  0
  7 15  1  0  0  0  0
  8 16  1  0  0  0  0
  9 17  1  0  0  0  0
 10 17  2  0  0  0  0
 11 18  2  0  0  0  0
 12 14  2  0  0  0  0
 12 18  1  0  0  0  0
 13 25  1  0  0  0  0
 14 24  1  0  0  0  0
 15 16  2  0  0  0  0
 15 26  1  0  0  0  0
 16 28  1  0  0  0  0
 17 29  1  0  0  0  0
 18 33  1  0  0  0  0
 19 25  1  1  0  0  0
 19 30  1  0  0  0  0
 19 31  2  0  0  0  0
 20 22  1  0  0  0  0
 20 29  1  0  0  0  0
 21 23  1  0  0  0  0
 21 29  1  0  0  0  0
 22 32  1  0  0  0  0
 23 32  1  0  0  0  0
 24 25  1  0  0  0  0
 26 27  2  0  0  0  0
 27 28  1  0  0  0  0
 28 30  1  0  0  0  0
  1 34  1  0  0  0  0
  2 35  1  0  0  0  0
  3 36  1  0  0  0  0
  4 37  1  0  0  0  0
  5 38  1  0  0  0  0
  6 39  1  0  0  0  0
  7 40  1  0  0  0  0
  8 41  1  0  0  0  0
  9 42  1  0  0  0  0
 10 43  1  0  0  0  0
 11 44  1  0  0  0  0
 12 45  1  0  0  0  0
 20 46  1  0  0  0  0
 20 47  1  0  0  0  0
 21 48  1  0  0  0  0
 21 49  1  0  0  0  0
 22 50  1  0  0  0  0
 22 51  1  0  0  0  0
 23 52  1  0  0  0  0
 23 53  1  0  0  0  0
 24 54  1  0  0  0  0
 24 55  1  0  0  0  0
 25 56  1  0  0  0  0
 30 57  1  0  0  0  0
M  END
> <clash_score>
2.233869101735435

> <docking_score>
-8.195695877075195

> <overlap_score>
0.9688488841056824

$$$$
BENZO_197_1
  -OEChem-08222022173D

 53 56  0     1  0  0  0  0  0999 V2000
   14.1331    1.9885   23.4148 C   0  0  0  0  0  0  0  0  0  0  0  0
   13.2637    3.0696   23.5597 C   0  0  0  0  0  0  0  0  0  0  0  0
   13.6252    0.6927   23.3211 C   0  0  0  0  0  0  0  0  0  0  0  0
    3.9160    2.0630   19.5520 C   0  0  0  0  0  0  0  0  0  0  0  0
    4.2750    1.7050   20.8490 C   0  0  0  0  0  0  0  0  0  0  0  0
   11.8864    2.8549   23.6110 C   0  0  0  0  0  0  0  0  0  0  0  0
   12.2479    0.4781   23.3723 C   0  0  0  0  0  0  0  0  0  0  0  0
    9.0720   -1.1280   24.8640 C   0  0  0  0  0  0  0  0  0  0  0  0
    9.7200   -2.2600   22.8630 C   0  0  0  0  0  0  0  0  0  0  0  0
    4.6890    1.6810   18.4640 C   0  0  0  0  0  0  0  0  0  0  0  0
    5.4210    0.9600   21.0930 C   0  0  0  0  0  0  0  0  0  0  0  0
    8.9960   -2.3380   25.5320 C   0  0  0  0  0  0  0  0  0  0  0  0
    9.6730   -3.4710   23.5300 C   0  0  0  0  0  0  0  0  0  0  0  0
    7.6390   -0.2680   18.5410 C   0  0  0  0  0  0  0  0  0  0  0  0
   11.3785    1.5592   23.5173 C   0  0  0  0  0  0  0  0  0  0  0  0
    9.3350   -1.0880   23.5010 C   0  0  0  0  0  0  0  0  0  0  0  0
    5.8300    0.9190   18.6970 C   0  0  0  0  0  0  0  0  0  0  0  0
    6.1790    0.5730   19.9990 C   0  0  0  0  0  0  0  0  0  0  0  0
    9.3070   -3.5340   24.8780 C   0  0  0  0  0  0  0  0  0  0  0  0
    9.0420    0.3700   21.5280 C   0  0  0  0  0  0  0  0  0  0  0  0
    8.0148   -5.2164   26.1419 C   0  0  0  0  0  0  0  0  0  0  0  0
   10.4390   -5.5857   25.6570 C   0  0  0  0  0  0  0  0  0  0  0  0
    9.8870    1.3260   23.5730 C   0  0  0  0  0  0  0  0  0  0  0  0
    9.4560    0.1560   22.8130 C   0  0  1  0  0  0  0  0  0  0  0  0
    6.7580    0.3810   17.8350 N   0  0  0  0  0  0  0  0  0  0  0  0
    7.3170   -0.1610   19.8550 N   0  0  0  0  0  0  0  0  0  0  0  0
    8.1890   -0.7180   20.8700 N   0  0  0  0  0  0  0  0  0  0  0  0
    9.2556   -4.7554   25.5514 N   0  0  0  0  0  0  0  0  0  0  0  0
    9.2690    1.4140   20.9380 O   0  0  0  0  0  0  0  0  0  0  0  0
   15.2054    2.1559   23.3735 H   0  0  0  0  0  0  0  0  0  0  0  0
   13.6589    4.0787   23.6316 H   0  0  0  0  0  0  0  0  0  0  0  0
   14.3017   -0.1491   23.2071 H   0  0  0  0  0  0  0  0  0  0  0  0
    3.0134    2.6521   19.3911 H   0  0  0  0  0  0  0  0  0  0  0  0
    3.6460    2.0127   21.6812 H   0  0  0  0  0  0  0  0  0  0  0  0
   11.2166    3.7033   23.7242 H   0  0  0  0  0  0  0  0  0  0  0  0
   11.8612   -0.5349   23.2987 H   0  0  0  0  0  0  0  0  0  0  0  0
    8.9214   -0.1986   25.4206 H   0  0  0  0  0  0  0  0  0  0  0  0
   10.0622   -2.2326   21.8251 H   0  0  0  0  0  0  0  0  0  0  0  0
    4.4037    1.9731   17.4543 H   0  0  0  0  0  0  0  0  0  0  0  0
    5.7084    0.6923   22.1132 H   0  0  0  0  0  0  0  0  0  0  0  0
    8.6882   -2.3542   26.5803 H   0  0  0  0  0  0  0  0  0  0  0  0
    9.9258   -4.3896   22.9914 H   0  0  0  0  0  0  0  0  0  0  0  0
    8.4862   -0.8060   18.1787 H   0  0  0  0  0  0  0  0  0  0  0  0
    8.1775   -6.1919   26.6235 H   0  0  0  0  0  0  0  0  0  0  0  0
    7.6740   -4.4889   26.8933 H   0  0  0  0  0  0  0  0  0  0  0  0
    7.2508   -5.3180   25.3570 H   0  0  0  0  0  0  0  0  0  0  0  0
   10.1974   -6.4996   26.2195 H   0  0  0  0  0  0  0  0  0  0  0  0
   10.7877   -5.8568   24.6496 H   0  0  0  0  0  0  0  0  0  0  0  0
   11.2305   -5.0307   26.1819 H   0  0  0  0  0  0  0  0  0  0  0  0
    9.6026    1.2057   24.6276 H   0  0  0  0  0  0  0  0  0  0  0  0
    9.3596    2.2290   23.2378 H   0  0  0  0  0  0  0  0  0  0  0  0
    8.0683    0.4897   23.2524 H   0  0  0  0  0  0  0  0  0  0  0  0
    8.2749   -1.5586   21.1247 H   0  0  0  0  0  0  0  0  0  0  0  0
  1  2  1  0  0  0  0
  1  3  2  0  0  0  0
  2  6  2  0  0  0  0
  3  7  1  0  0  0  0
  4  5  1  0  0  0  0
  4 10  2  0  0  0  0
  5 11  2  0  0  0  0
  6 15  1  0  0  0  0
  7 15  2  0  0  0  0
  8 12  2  0  0  0  0
  8 16  1  0  0  0  0
  9 13  1  0  0  0  0
  9 16  2  0  0  0  0
 10 17  1  0  0  0  0
 11 18  1  0  0  0  0
 12 19  1  0  0  0  0
 13 19  2  0  0  0  0
 14 25  2  0  0  0  0
 14 26  1  0  0  0  0
 15 23  1  0  0  0  0
 16 24  1  0  0  0  0
 17 18  2  0  0  0  0
 17 25  1  0  0  0  0
 18 26  1  0  0  0  0
 19 28  1  0  0  0  0
 20 24  1  0  0  0  0
 20 27  1  0  0  0  0
 20 29  2  0  0  0  0
 21 28  1  0  0  0  0
 22 28  1  0  0  0  0
 23 24  1  1  0  0  0
 26 27  1  0  0  0  0
  1 30  1  0  0  0  0
  2 31  1  0  0  0  0
  3 32  1  0  0  0  0
  4 33  1  0  0  0  0
  5 34  1  0  0  0  0
  6 35  1  0  0  0  0
  7 36  1  0  0  0  0
  8 37  1  0  0  0  0
  9 38  1  0  0  0  0
 10 39  1  0  0  0  0
 11 40  1  0  0  0  0
 12 41  1  0  0  0  0
 13 42  1  0  0  0  0
 14 43  1  0  0  0  0
 21 44  1  0  0  0  0
 21 45  1  0  0  0  0
 21 46  1  0  0  0  0
 22 47  1  0  0  0  0
 22 48  1  0  0  0  0
 22 49  1  0  0  0  0
 23 50  1  0  0  0  0
 23 51  1  0  0  0  0
 24 52  1  0  0  0  0
 27 53  1  0  0  0  0
M  END
> <clash_score>
0

> <docking_score>
-9.792549133300781

> <overlap_score>
0.9981406331062317

$$$$
BENZO_197_2
  -OEChem-08222022173D

 53 56  0     1  0  0  0  0  0999 V2000
   12.9176    3.6318   21.5749 C   0  0  0  0  0  0  0  0  0  0  0  0
   13.2831    2.5951   22.4336 C   0  0  0  0  0  0  0  0  0  0  0  0
   11.5692    3.9205   21.3646 C   0  0  0  0  0  0  0  0  0  0  0  0
    3.9160    2.0630   19.5520 C   0  0  0  0  0  0  0  0  0  0  0  0
    4.2750    1.7050   20.8490 C   0  0  0  0  0  0  0  0  0  0  0  0
   12.3003    1.8471   23.0818 C   0  0  0  0  0  0  0  0  0  0  0  0
   10.5864    3.1725   22.0128 C   0  0  0  0  0  0  0  0  0  0  0  0
    9.0720   -1.1280   24.8640 C   0  0  0  0  0  0  0  0  0  0  0  0
    9.7200   -2.2600   22.8630 C   0  0  0  0  0  0  0  0  0  0  0  0
    4.6890    1.6810   18.4640 C   0  0  0  0  0  0  0  0  0  0  0  0
    5.4210    0.9600   21.0930 C   0  0  0  0  0  0  0  0  0  0  0  0
    8.9960   -2.3380   25.5320 C   0  0  0  0  0  0  0  0  0  0  0  0
    9.6730   -3.4710   23.5300 C   0  0  0  0  0  0  0  0  0  0  0  0
    7.6390   -0.2680   18.5410 C   0  0  0  0  0  0  0  0  0  0  0  0
   10.9519    2.1358   22.8715 C   0  0  0  0  0  0  0  0  0  0  0  0
    9.3350   -1.0880   23.5010 C   0  0  0  0  0  0  0  0  0  0  0  0
    5.8300    0.9190   18.6970 C   0  0  0  0  0  0  0  0  0  0  0  0
    6.1790    0.5730   19.9990 C   0  0  0  0  0  0  0  0  0  0  0  0
    9.3070   -3.5340   24.8780 C   0  0  0  0  0  0  0  0  0  0  0  0
    9.0420    0.3700   21.5280 C   0  0  0  0  0  0  0  0  0  0  0  0
    8.8766   -4.8075   26.9494 C   0  0  0  0  0  0  0  0  0  0  0  0
    9.5669   -5.9896   24.8578 C   0  0  0  0  0  0  0  0  0  0  0  0
    9.8870    1.3260   23.5730 C   0  0  0  0  0  0  0  0  0  0  0  0
    9.4560    0.1560   22.8130 C   0  0  2  0  0  0  0  0  0  0  0  0
    6.7580    0.3810   17.8350 N   0  0  0  0  0  0  0  0  0  0  0  0
    7.3170   -0.1610   19.8550 N   0  0  0  0  0  0  0  0  0  0  0  0
    8.1890   -0.7180   20.8700 N   0  0  0  0  0  0  0  0  0  0  0  0
    9.2556   -4.7554   25.5514 N   0  0  0  0  0  0  0  0  0  0  0  0
    9.2690    1.4140   20.9380 O   0  0  0  0  0  0  0  0  0  0  0  0
   13.6830    4.2150   21.0713 H   0  0  0  0  0  0  0  0  0  0  0  0
   14.3329    2.3708   22.5984 H   0  0  0  0  0  0  0  0  0  0  0  0
   11.2843    4.7283   20.6970 H   0  0  0  0  0  0  0  0  0  0  0  0
    3.0134    2.6521   19.3911 H   0  0  0  0  0  0  0  0  0  0  0  0
    3.6460    2.0127   21.6812 H   0  0  0  0  0  0  0  0  0  0  0  0
   12.5944    1.0411   23.7490 H   0  0  0  0  0  0  0  0  0  0  0  0
    9.5383    3.4046   21.8428 H   0  0  0  0  0  0  0  0  0  0  0  0
    8.9214   -0.1986   25.4206 H   0  0  0  0  0  0  0  0  0  0  0  0
   10.0622   -2.2326   21.8251 H   0  0  0  0  0  0  0  0  0  0  0  0
    4.4037    1.9731   17.4543 H   0  0  0  0  0  0  0  0  0  0  0  0
    5.7084    0.6923   22.1132 H   0  0  0  0  0  0  0  0  0  0  0  0
    8.6882   -2.3542   26.5803 H   0  0  0  0  0  0  0  0  0  0  0  0
    9.9258   -4.3896   22.9914 H   0  0  0  0  0  0  0  0  0  0  0  0
    8.4862   -0.8060   18.1787 H   0  0  0  0  0  0  0  0  0  0  0  0
    8.8955   -5.8512   27.2963 H   0  0  0  0  0  0  0  0  0  0  0  0
    9.5845   -4.2109   27.5435 H   0  0  0  0  0  0  0  0  0  0  0  0
    7.8621   -4.3996   27.0696 H   0  0  0  0  0  0  0  0  0  0  0  0
    9.4707   -6.8361   25.5536 H   0  0  0  0  0  0  0  0  0  0  0  0
    8.8693   -6.1242   24.0181 H   0  0  0  0  0  0  0  0  0  0  0  0
   10.5972   -5.9451   24.4750 H   0  0  0  0  0  0  0  0  0  0  0  0
   10.2899    1.0067   24.5442 H   0  0  0  0  0  0  0  0  0  0  0  0
    9.0336    1.9722   23.8180 H   0  0  0  0  0  0  0  0  0  0  0  0
   10.7792   -0.1072   22.4110 H   0  0  0  0  0  0  0  0  0  0  0  0
    8.2749   -1.5586   21.1247 H   0  0  0  0  0  0  0  0  0  0  0  0
  1  2  1  0  0  0  0
  1  3  2  0  0  0  0
  2  6  2  0  0  0  0
  3  7  1  0  0  0  0
  4  5  1  0  0  0  0
  4 10  2  0  0  0  0
  5 11  2  0  0  0  0
  6 15  1  0  0  0  0
  7 15  2  0  0  0  0
  8 12  2  0  0  0  0
  8 16  1  0  0  0  0
  9 13  1  0  0  0  0
  9 16  2  0  0  0  0
 10 17  1  0  0  0  0
 11 18  1  0  0  0  0
 12 19  1  0  0  0  0
 13 19  2  0  0  0  0
 14 25  2  0  0  0  0
 14 26  1  0  0  0  0
 15 23  1  0  0  0  0
 16 24  1  0  0  0  0
 17 18  2  0  0  0  0
 17 25  1  0  0  0  0
 18 26  1  0  0  0  0
 19 28  1  0  0  0  0
 20 24  1  0  0  0  0
 20 27  1  0  0  0  0
 20 29  2  0  0  0  0
 21 28  1  0  0  0  0
 22 28  1  0  0  0  0
 23 24  1  6  0  0  0
 26 27  1  0  0  0  0
  1 30  1  0  0  0  0
  2 31  1  0  0  0  0
  3 32  1  0  0  0  0
  4 33  1  0  0  0  0
  5 34  1  0  0  0  0
  6 35  1  0  0  0  0
  7 36  1  0  0  0  0
  8 37  1  0  0  0  0
  9 38  1  0  0  0  0
 10 39  1  0  0  0  0
 11 40  1  0  0  0  0
 12 41  1  0  0  0  0
 13 42  1  0  0  0  0
 14 43  1  0  0  0  0
 21 44  1  0  0  0  0
 21 45  1  0  0  0  0
 21 46  1  0  0  0  0
 22 47  1  0  0  0  0
 22 48  1  0  0  0  0
 22 49  1  0  0  0  0
 23 50  1  0  0  0  0
 23 51  1  0  0  0  0
 24 52  1  0  0  0  0
 27 53  1  0  0  0  0
M  END
> <clash_score>
0.623169518521191

> <docking_score>
-9.516317367553711

> <overlap_score>
0.9609172344207764

$$$$
BENZO_196_1
  -OEChem-08222022173D

 50 53  0     1  0  0  0  0  0999 V2000
    3.9160    2.0630   19.5520 C   0  0  0  0  0  0  0  0  0  0  0  0
    4.2750    1.7050   20.8490 C   0  0  0  0  0  0  0  0  0  0  0  0
    9.0720   -1.1280   24.8640 C   0  0  0  0  0  0  0  0  0  0  0  0
    9.7200   -2.2600   22.8630 C   0  0  0  0  0  0  0  0  0  0  0  0
    4.6890    1.6810   18.4640 C   0  0  0  0  0  0  0  0  0  0  0  0
    5.4210    0.9600   21.0930 C   0  0  0  0  0  0  0  0  0  0  0  0
    8.9960   -2.3380   25.5320 C   0  0  0  0  0  0  0  0  0  0  0  0
    9.6730   -3.4710   23.5300 C   0  0  0  0  0  0  0  0  0  0  0  0
   12.3421    0.5158   23.4032 C   0  0  0  0  0  0  0  0  0  0  0  0
   13.6305    1.0023   23.3744 C   0  0  0  0  0  0  0  0  0  0  0  0
   11.9672    2.8035   23.5716 C   0  0  0  0  0  0  0  0  0  0  0  0
    7.6390   -0.2680   18.5410 C   0  0  0  0  0  0  0  0  0  0  0  0
    9.3350   -1.0880   23.5010 C   0  0  0  0  0  0  0  0  0  0  0  0
   11.3785    1.5592   23.5173 C   0  0  0  0  0  0  0  0  0  0  0  0
    5.8300    0.9190   18.6970 C   0  0  0  0  0  0  0  0  0  0  0  0
    6.1790    0.5730   19.9990 C   0  0  0  0  0  0  0  0  0  0  0  0
    9.3070   -3.5340   24.8780 C   0  0  0  0  0  0  0  0  0  0  0  0
    9.0420    0.3700   21.5280 C   0  0  0  0  0  0  0  0  0  0  0  0
    8.0148   -5.2164   26.1419 C   0  0  0  0  0  0  0  0  0  0  0  0
   10.4390   -5.5857   25.6570 C   0  0  0  0  0  0  0  0  0  0  0  0
    9.8870    1.3260   23.5730 C   0  0  0  0  0  0  0  0  0  0  0  0
    9.4560    0.1560   22.8130 C   0  0  1  0  0  0  0  0  0  0  0  0
    6.7580    0.3810   17.8350 N   0  0  0  0  0  0  0  0  0  0  0  0
    7.3170   -0.1610   19.8550 N   0  0  0  0  0  0  0  0  0  0  0  0
    8.1890   -0.7180   20.8700 N   0  0  0  0  0  0  0  0  0  0  0  0
    9.2556   -4.7554   25.5514 N   0  0  0  0  0  0  0  0  0  0  0  0
    9.2690    1.4140   20.9380 O   0  0  0  0  0  0  0  0  0  0  0  0
   13.6749    2.7106   23.4848 S   0  0  0  0  0  0  0  0  0  0  0  0
    3.0134    2.6521   19.3911 H   0  0  0  0  0  0  0  0  0  0  0  0
    3.6460    2.0127   21.6812 H   0  0  0  0  0  0  0  0  0  0  0  0
    8.9214   -0.1986   25.4206 H   0  0  0  0  0  0  0  0  0  0  0  0
   10.0622   -2.2326   21.8251 H   0  0  0  0  0  0  0  0  0  0  0  0
    4.4037    1.9731   17.4543 H   0  0  0  0  0  0  0  0  0  0  0  0
    5.7084    0.6923   22.1132 H   0  0  0  0  0  0  0  0  0  0  0  0
    8.6882   -2.3542   26.5803 H   0  0  0  0  0  0  0  0  0  0  0  0
    9.9258   -4.3896   22.9914 H   0  0  0  0  0  0  0  0  0  0  0  0
   12.1065   -0.5394   23.3454 H   0  0  0  0  0  0  0  0  0  0  0  0
   14.5479    0.4364   23.2946 H   0  0  0  0  0  0  0  0  0  0  0  0
   11.4802    3.7648   23.6592 H   0  0  0  0  0  0  0  0  0  0  0  0
    8.4862   -0.8060   18.1787 H   0  0  0  0  0  0  0  0  0  0  0  0
    8.1775   -6.1919   26.6235 H   0  0  0  0  0  0  0  0  0  0  0  0
    7.6740   -4.4889   26.8933 H   0  0  0  0  0  0  0  0  0  0  0  0
    7.2508   -5.3180   25.3570 H   0  0  0  0  0  0  0  0  0  0  0  0
   10.1974   -6.4996   26.2195 H   0  0  0  0  0  0  0  0  0  0  0  0
   10.7877   -5.8568   24.6496 H   0  0  0  0  0  0  0  0  0  0  0  0
   11.2305   -5.0307   26.1819 H   0  0  0  0  0  0  0  0  0  0  0  0
    9.6026    1.2057   24.6276 H   0  0  0  0  0  0  0  0  0  0  0  0
    9.3596    2.2290   23.2378 H   0  0  0  0  0  0  0  0  0  0  0  0
    8.0683    0.4897   23.2524 H   0  0  0  0  0  0  0  0  0  0  0  0
    8.2749   -1.5586   21.1247 H   0  0  0  0  0  0  0  0  0  0  0  0
  1  2  1  0  0  0  0
  1  5  2  0  0  0  0
  2  6  2  0  0  0  0
  3  7  2  0  0  0  0
  3 13  1  0  0  0  0
  4  8  1  0  0  0  0
  4 13  2  0  0  0  0
  5 15  1  0  0  0  0
  6 16  1  0  0  0  0
  7 17  1  0  0  0  0
  8 17  2  0  0  0  0
  9 10  2  0  0  0  0
  9 14  1  0  0  0  0
 10 28  1  0  0  0  0
 11 14  2  0  0  0  0
 11 28  1  0  0  0  0
 12 23  2  0  0  0  0
 12 24  1  0  0  0  0
 13 22  1  0  0  0  0
 14 21  1  0  0  0  0
 15 16  2  0  0  0  0
 15 23  1  0  0  0  0
 16 24  1  0  0  0  0
 17 26  1  0  0  0  0
 18 22  1  0  0  0  0
 18 25  1  0  0  0  0
 18 27  2  0  0  0  0
 19 26  1  0  0  0  0
 20 26  1  0  0  0  0
 21 22  1  1  0  0  0
 24 25  1  0  0  0  0
  1 29  1  0  0  0  0
  2 30  1  0  0  0  0
  3 31  1  0  0  0  0
  4 32  1  0  0  0  0
  5 33  1  0  0  0  0
  6 34  1  0  0  0  0
  7 35  1  0  0  0  0
  8 36  1  0  0  0  0
  9 37  1  0  0  0  0
 10 38  1  0  0  0  0
 11 39  1  0  0  0  0
 12 40  1  0  0  0  0
 19 41  1  0  0  0  0
 19 42  1  0  0  0  0
 19 43  1  0  0  0  0
 20 44  1  0  0  0  0
 20 45  1  0  0  0  0
 20 46  1  0  0  0  0
 21 47  1  0  0  0  0
 21 48  1  0  0  0  0
 22 49  1  0  0  0  0
 25 50  1  0  0  0  0
M  END
> <clash_score>
0

> <docking_score>
-10.272026062011719

> <overlap_score>
0.9824106097221375

$$$$
BENZO_196_2
  -OEChem-08222022173D

 50 53  0     1  0  0  0  0  0999 V2000
    3.9160    2.0630   19.5520 C   0  0  0  0  0  0  0  0  0  0  0  0
    4.2750    1.7050   20.8490 C   0  0  0  0  0  0  0  0  0  0  0  0
    9.0720   -1.1280   24.8640 C   0  0  0  0  0  0  0  0  0  0  0  0
    9.7200   -2.2600   22.8630 C   0  0  0  0  0  0  0  0  0  0  0  0
    4.6890    1.6810   18.4640 C   0  0  0  0  0  0  0  0  0  0  0  0
    5.4210    0.9600   21.0930 C   0  0  0  0  0  0  0  0  0  0  0  0
    8.9960   -2.3380   25.5320 C   0  0  0  0  0  0  0  0  0  0  0  0
    9.6730   -3.4710   23.5300 C   0  0  0  0  0  0  0  0  0  0  0  0
   12.4120    0.7557   23.6805 C   0  0  0  0  0  0  0  0  0  0  0  0
   13.4422    0.6233   24.5853 C   0  0  0  0  0  0  0  0  0  0  0  0
   11.3265    1.2397   25.6779 C   0  0  0  0  0  0  0  0  0  0  0  0
    7.6390   -0.2680   18.5410 C   0  0  0  0  0  0  0  0  0  0  0  0
    9.3350   -1.0880   23.5010 C   0  0  0  0  0  0  0  0  0  0  0  0
   11.1864    1.1129   24.3133 C   0  0  0  0  0  0  0  0  0  0  0  0
    5.8300    0.9190   18.6970 C   0  0  0  0  0  0  0  0  0  0  0  0
    6.1790    0.5730   19.9990 C   0  0  0  0  0  0  0  0  0  0  0  0
    9.3070   -3.5340   24.8780 C   0  0  0  0  0  0  0  0  0  0  0  0
    9.0420    0.3700   21.5280 C   0  0  0  0  0  0  0  0  0  0  0  0
    8.0148   -5.2164   26.1419 C   0  0  0  0  0  0  0  0  0  0  0  0
   10.4390   -5.5857   25.6570 C   0  0  0  0  0  0  0  0  0  0  0  0
    9.8870    1.3260   23.5730 C   0  0  0  0  0  0  0  0  0  0  0  0
    9.4560    0.1560   22.8130 C   0  0  2  0  0  0  0  0  0  0  0  0
    6.7580    0.3810   17.8350 N   0  0  0  0  0  0  0  0  0  0  0  0
    7.3170   -0.1610   19.8550 N   0  0  0  0  0  0  0  0  0  0  0  0
    8.1890   -0.7180   20.8700 N   0  0  0  0  0  0  0  0  0  0  0  0
    9.2556   -4.7554   25.5514 N   0  0  0  0  0  0  0  0  0  0  0  0
    9.2690    1.4140   20.9380 O   0  0  0  0  0  0  0  0  0  0  0  0
   12.9305    0.9290   26.1907 S   0  0  0  0  0  0  0  0  0  0  0  0
    3.0134    2.6521   19.3911 H   0  0  0  0  0  0  0  0  0  0  0  0
    3.6460    2.0127   21.6812 H   0  0  0  0  0  0  0  0  0  0  0  0
    8.9214   -0.1986   25.4206 H   0  0  0  0  0  0  0  0  0  0  0  0
   10.0622   -2.2326   21.8251 H   0  0  0  0  0  0  0  0  0  0  0  0
    4.4037    1.9731   17.4543 H   0  0  0  0  0  0  0  0  0  0  0  0
    5.7084    0.6923   22.1132 H   0  0  0  0  0  0  0  0  0  0  0  0
    8.6882   -2.3542   26.5803 H   0  0  0  0  0  0  0  0  0  0  0  0
    9.9258   -4.3896   22.9914 H   0  0  0  0  0  0  0  0  0  0  0  0
   12.5361    0.6022   22.6159 H   0  0  0  0  0  0  0  0  0  0  0  0
   14.4706    0.3610   24.3807 H   0  0  0  0  0  0  0  0  0  0  0  0
   10.5663    1.4985   26.4019 H   0  0  0  0  0  0  0  0  0  0  0  0
    8.4862   -0.8060   18.1787 H   0  0  0  0  0  0  0  0  0  0  0  0
    8.1775   -6.1919   26.6235 H   0  0  0  0  0  0  0  0  0  0  0  0
    7.6740   -4.4889   26.8933 H   0  0  0  0  0  0  0  0  0  0  0  0
    7.2508   -5.3180   25.3570 H   0  0  0  0  0  0  0  0  0  0  0  0
   10.1974   -6.4996   26.2195 H   0  0  0  0  0  0  0  0  0  0  0  0
   10.7877   -5.8568   24.6496 H   0  0  0  0  0  0  0  0  0  0  0  0
   11.2305   -5.0307   26.1819 H   0  0  0  0  0  0  0  0  0  0  0  0
    9.1168    1.5904   24.3109 H   0  0  0  0  0  0  0  0  0  0  0  0
    9.9726    2.2073   22.9235 H   0  0  0  0  0  0  0  0  0  0  0  0
   10.7792   -0.1072   22.4110 H   0  0  0  0  0  0  0  0  0  0  0  0
    8.2749   -1.5586   21.1247 H   0  0  0  0  0  0  0  0  0  0  0  0
  1  2  1  0  0  0  0
  1  5  2  0  0  0  0
  2  6  2  0  0  0  0
  3  7  2  0  0  0  0
  3 13  1  0  0  0  0
  4  8  1  0  0  0  0
  4 13  2  0  0  0  0
  5 15  1  0  0  0  0
  6 16  1  0  0  0  0
  7 17  1  0  0  0  0
  8 17  2  0  0  0  0
  9 10  2  0  0  0  0
  9 14  1  0  0  0  0
 10 28  1  0  0  0  0
 11 14  2  0  0  0  0
 11 28  1  0  0  0  0
 12 23  2  0  0  0  0
 12 24  1  0  0  0  0
 13 22  1  0  0  0  0
 14 21  1  0  0  0  0
 15 16  2  0  0  0  0
 15 23  1  0  0  0  0
 16 24  1  0  0  0  0
 17 26  1  0  0  0  0
 18 22  1  0  0  0  0
 18 25  1  0  0  0  0
 18 27  2  0  0  0  0
 19 26  1  0  0  0  0
 20 26  1  0  0  0  0
 21 22  1  6  0  0  0
 24 25  1  0  0  0  0
  1 29  1  0  0  0  0
  2 30  1  0  0  0  0
  3 31  1  0  0  0  0
  4 32  1  0  0  0  0
  5 33  1  0  0  0  0
  6 34  1  0  0  0  0
  7 35  1  0  0  0  0
  8 36  1  0  0  0  0
  9 37  1  0  0  0  0
 10 38  1  0  0  0  0
 11 39  1  0  0  0  0
 12 40  1  0  0  0  0
 19 41  1  0  0  0  0
 19 42  1  0  0  0  0
 19 43  1  0  0  0  0
 20 44  1  0  0  0  0
 20 45  1  0  0  0  0
 20 46  1  0  0  0  0
 21 47  1  0  0  0  0
 21 48  1  0  0  0  0
 22 49  1  0  0  0  0
 25 50  1  0  0  0  0
M  END
> <clash_score>
0.6256218321189225

> <docking_score>
-8.365682601928711

> <overlap_score>
0.9089251160621643

$$$$
BENZO_195_2
  -OEChem-08222022173D

 57 61  0     1  0  0  0  0  0999 V2000
    3.9160    2.0630   19.5520 C   0  0  0  0  0  0  0  0  0  0  0  0
    4.2750    1.7050   20.8490 C   0  0  0  0  0  0  0  0  0  0  0  0
    9.0720   -1.1280   24.8640 C   0  0  0  0  0  0  0  0  0  0  0  0
    9.7200   -2.2600   22.8630 C   0  0  0  0  0  0  0  0  0  0  0  0
    4.6890    1.6810   18.4640 C   0  0  0  0  0  0  0  0  0  0  0  0
    5.4210    0.9600   21.0930 C   0  0  0  0  0  0  0  0  0  0  0  0
    8.9960   -2.3380   25.5320 C   0  0  0  0  0  0  0  0  0  0  0  0
    9.6730   -3.4710   23.5300 C   0  0  0  0  0  0  0  0  0  0  0  0
   12.3465    1.9795   22.9425 C   0  0  0  0  0  0  0  0  0  0  0  0
   10.7668    3.1736   21.9866 C   0  0  0  0  0  0  0  0  0  0  0  0
    9.3350   -1.0880   23.5010 C   0  0  0  0  0  0  0  0  0  0  0  0
   10.9492    2.1306   22.8614 C   0  0  0  0  0  0  0  0  0  0  0  0
    5.8300    0.9190   18.6970 C   0  0  0  0  0  0  0  0  0  0  0  0
    6.1790    0.5730   19.9990 C   0  0  0  0  0  0  0  0  0  0  0  0
    9.3070   -3.5340   24.8780 C   0  0  0  0  0  0  0  0  0  0  0  0
    9.0420    0.3700   21.5280 C   0  0  0  0  0  0  0  0  0  0  0  0
    9.5176   -4.8600   26.9769 C   0  0  0  0  0  0  0  0  0  0  0  0
    8.5166   -5.8725   24.9805 C   0  0  0  0  0  0  0  0  0  0  0  0
    8.1870   -5.0443   27.6986 C   0  0  0  0  0  0  0  0  0  0  0  0
    7.2201   -6.0348   25.7753 C   0  0  0  0  0  0  0  0  0  0  0  0
   12.3392    4.6377   20.6971 C   0  0  0  0  0  0  0  0  0  0  0  0
    9.8870    1.3260   23.5730 C   0  0  0  0  0  0  0  0  0  0  0  0
    9.4560    0.1560   22.8130 C   0  0  2  0  0  0  0  0  0  0  0  0
   13.0050    2.8562   22.1799 N   0  0  0  0  0  0  0  0  0  0  0  0
    6.7580    0.3810   17.8350 N   0  0  0  0  0  0  0  0  0  0  0  0
    7.6390   -0.2680   18.5410 N   0  0  0  0  0  0  0  0  0  0  0  0
   12.0173    3.5683   21.6113 N   0  0  0  0  0  0  0  0  0  0  0  0
    7.3170   -0.1610   19.8550 N   0  0  0  0  0  0  0  0  0  0  0  0
    9.2564   -4.7368   25.5411 N   0  0  0  0  0  0  0  0  0  0  0  0
    8.1890   -0.7180   20.8700 N   0  0  0  0  0  0  0  0  0  0  0  0
    9.2690    1.4140   20.9380 O   0  0  0  0  0  0  0  0  0  0  0  0
    7.4995   -6.1856   27.1717 O   0  0  0  0  0  0  0  0  0  0  0  0
    3.0136    2.6526   19.3908 H   0  0  0  0  0  0  0  0  0  0  0  0
    3.6480    2.0140   21.6821 H   0  0  0  0  0  0  0  0  0  0  0  0
    8.9214   -0.1986   25.4206 H   0  0  0  0  0  0  0  0  0  0  0  0
   10.0622   -2.2326   21.8251 H   0  0  0  0  0  0  0  0  0  0  0  0
    4.4042    1.9741   17.4524 H   0  0  0  0  0  0  0  0  0  0  0  0
    5.7089    0.6919   22.1150 H   0  0  0  0  0  0  0  0  0  0  0  0
    8.6882   -2.3542   26.5803 H   0  0  0  0  0  0  0  0  0  0  0  0
    9.9258   -4.3896   22.9914 H   0  0  0  0  0  0  0  0  0  0  0  0
   12.9145    1.2672   23.5241 H   0  0  0  0  0  0  0  0  0  0  0  0
    9.8759    3.6558   21.6076 H   0  0  0  0  0  0  0  0  0  0  0  0
   10.0207   -3.9702   27.3608 H   0  0  0  0  0  0  0  0  0  0  0  0
   10.1536   -5.7313   27.1546 H   0  0  0  0  0  0  0  0  0  0  0  0
    9.1181   -6.7774   25.0751 H   0  0  0  0  0  0  0  0  0  0  0  0
    8.2812   -5.7063   23.9302 H   0  0  0  0  0  0  0  0  0  0  0  0
    8.3631   -5.2257   28.7609 H   0  0  0  0  0  0  0  0  0  0  0  0
    7.5532   -4.1574   27.6103 H   0  0  0  0  0  0  0  0  0  0  0  0
    6.5460   -5.1840   25.6220 H   0  0  0  0  0  0  0  0  0  0  0  0
    6.6948   -6.9355   25.4433 H   0  0  0  0  0  0  0  0  0  0  0  0
   12.4412    5.5584   21.2776 H   0  0  0  0  0  0  0  0  0  0  0  0
   13.2748    4.4059   20.1806 H   0  0  0  0  0  0  0  0  0  0  0  0
   11.5379    4.7362   19.9596 H   0  0  0  0  0  0  0  0  0  0  0  0
   10.2886    1.0256   24.5508 H   0  0  0  0  0  0  0  0  0  0  0  0
    9.0288    1.9709   23.8044 H   0  0  0  0  0  0  0  0  0  0  0  0
   10.7829   -0.1040   22.4083 H   0  0  0  0  0  0  0  0  0  0  0  0
    8.2487   -1.5564   21.0972 H   0  0  0  0  0  0  0  0  0  0  0  0
  1  2  1  0  0  0  0
  1  5  2  0  0  0  0
  2  6  2  0  0  0  0
  3  7  2  0  0  0  0
  3 11  1  0  0  0  0
  4  8  1  0  0  0  0
  4 11  2  0  0  0  0
  5 13  1  0  0  0  0
  6 14  1  0  0  0  0
  7 15  1  0  0  0  0
  8 15  2  0  0  0  0
  9 12  1  0  0  0  0
  9 24  2  0  0  0  0
 10 12  2  0  0  0  0
 10 27  1  0  0  0  0
 11 23  1  0  0  0  0
 12 22  1  0  0  0  0
 13 14  2  0  0  0  0
 13 25  1  0  0  0  0
 14 28  1  0  0  0  0
 15 29  1  0  0  0  0
 16 23  1  0  0  0  0
 16 30  1  0  0  0  0
 16 31  2  0  0  0  0
 17 19  1  0  0  0  0
 17 29  1  0  0  0  0
 18 20  1  0  0  0  0
 18 29  1  0  0  0  0
 19 32  1  0  0  0  0
 20 32  1  0  0  0  0
 21 27  1  0  0  0  0
 22 23  1  6  0  0  0
 24 27  1  0  0  0  0
 25 26  2  0  0  0  0
 26 28  1  0  0  0  0
 28 30  1  0  0  0  0
  1 33  1  0  0  0  0
  2 34  1  0  0  0  0
  3 35  1  0  0  0  0
  4 36  1  0  0  0  0
  5 37  1  0  0  0  0
  6 38  1  0  0  0  0
  7 39  1  0  0  0  0
  8 40  1  0  0  0  0
  9 41  1  0  0  0  0
 10 42  1  0  0  0  0
 17 43  1  0  0  0  0
 17 44  1  0  0  0  0
 18 45  1  0  0  0  0
 18 46  1  0  0  0  0
 19 47  1  0  0  0  0
 19 48  1  0  0  0  0
 20 49  1  0  0  0  0
 20 50  1  0  0  0  0
 21 51  1  0  0  0  0
 21 52  1  0  0  0  0
 21 53  1  0  0  0  0
 22 54  1  0  0  0  0
 22 55  1  0  0  0  0
 23 56  1  0  0  0  0
 30 57  1  0  0  0  0
M  END
> <clash_score>
0

> <docking_score>
-7.6413702964782715

> <overlap_score>
0.9632830619812012

$$$$
BENZO_194_2
  -OEChem-08222022173D

 57 61  0     1  0  0  0  0  0999 V2000
    3.9160    2.0630   19.5520 C   0  0  0  0  0  0  0  0  0  0  0  0
    4.2750    1.7050   20.8490 C   0  0  0  0  0  0  0  0  0  0  0  0
   13.6195    0.6627   23.3152 C   0  0  0  0  0  0  0  0  0  0  0  0
   12.2407    0.4591   23.3700 C   0  0  0  0  0  0  0  0  0  0  0  0
    9.0720   -1.1280   24.8640 C   0  0  0  0  0  0  0  0  0  0  0  0
    9.7200   -2.2600   22.8630 C   0  0  0  0  0  0  0  0  0  0  0  0
    4.6890    1.6810   18.4640 C   0  0  0  0  0  0  0  0  0  0  0  0
    5.4210    0.9600   21.0930 C   0  0  0  0  0  0  0  0  0  0  0  0
    8.9960   -2.3380   25.5320 C   0  0  0  0  0  0  0  0  0  0  0  0
    9.6730   -3.4710   23.5300 C   0  0  0  0  0  0  0  0  0  0  0  0
   14.1378    1.9546   23.4055 C   0  0  0  0  0  0  0  0  0  0  0  0
   11.8985    2.8391   23.6052 C   0  0  0  0  0  0  0  0  0  0  0  0
    9.3350   -1.0880   23.5010 C   0  0  0  0  0  0  0  0  0  0  0  0
   11.3802    1.5472   23.5150 C   0  0  0  0  0  0  0  0  0  0  0  0
    5.8300    0.9190   18.6970 C   0  0  0  0  0  0  0  0  0  0  0  0
    6.1790    0.5730   19.9990 C   0  0  0  0  0  0  0  0  0  0  0  0
    9.3070   -3.5340   24.8780 C   0  0  0  0  0  0  0  0  0  0  0  0
   13.2773    3.0428   23.5505 C   0  0  0  0  0  0  0  0  0  0  0  0
    9.0420    0.3700   21.5280 C   0  0  0  0  0  0  0  0  0  0  0  0
   10.0772   -5.0257   26.7191 C   0  0  0  0  0  0  0  0  0  0  0  0
    8.0927   -5.6196   25.4069 C   0  0  0  0  0  0  0  0  0  0  0  0
    9.1935   -4.9431   27.9590 C   0  0  0  0  0  0  0  0  0  0  0  0
    7.2758   -5.5292   26.6966 C   0  0  0  0  0  0  0  0  0  0  0  0
    9.8870    1.3260   23.5730 C   0  0  0  0  0  0  0  0  0  0  0  0
    9.4560    0.1560   22.8130 C   0  0  2  0  0  0  0  0  0  0  0  0
    6.7580    0.3810   17.8350 N   0  0  0  0  0  0  0  0  0  0  0  0
    7.6390   -0.2680   18.5410 N   0  0  0  0  0  0  0  0  0  0  0  0
    7.3170   -0.1610   19.8550 N   0  0  0  0  0  0  0  0  0  0  0  0
    9.2564   -4.7368   25.5411 N   0  0  0  0  0  0  0  0  0  0  0  0
    8.1890   -0.7180   20.8700 N   0  0  0  0  0  0  0  0  0  0  0  0
    9.2690    1.4140   20.9380 O   0  0  0  0  0  0  0  0  0  0  0  0
    8.0884   -5.8462   27.8322 O   0  0  0  0  0  0  0  0  0  0  0  0
   13.9174    4.6365   23.6606 Cl  0  0  0  0  0  0  0  0  0  0  0  0
    3.0136    2.6526   19.3908 H   0  0  0  0  0  0  0  0  0  0  0  0
    3.6480    2.0140   21.6821 H   0  0  0  0  0  0  0  0  0  0  0  0
   14.2892   -0.1849   23.2021 H   0  0  0  0  0  0  0  0  0  0  0  0
   11.8456   -0.5510   23.2987 H   0  0  0  0  0  0  0  0  0  0  0  0
    8.9214   -0.1986   25.4206 H   0  0  0  0  0  0  0  0  0  0  0  0
   10.0622   -2.2326   21.8251 H   0  0  0  0  0  0  0  0  0  0  0  0
    4.4042    1.9741   17.4524 H   0  0  0  0  0  0  0  0  0  0  0  0
    5.7089    0.6919   22.1150 H   0  0  0  0  0  0  0  0  0  0  0  0
    8.6882   -2.3542   26.5803 H   0  0  0  0  0  0  0  0  0  0  0  0
    9.9258   -4.3896   22.9914 H   0  0  0  0  0  0  0  0  0  0  0  0
   15.2146    2.0984   23.3610 H   0  0  0  0  0  0  0  0  0  0  0  0
   11.2234    3.6842   23.7187 H   0  0  0  0  0  0  0  0  0  0  0  0
   10.8986   -4.3117   26.8083 H   0  0  0  0  0  0  0  0  0  0  0  0
   10.4916   -6.0336   26.6319 H   0  0  0  0  0  0  0  0  0  0  0  0
    8.4328   -6.6457   25.2617 H   0  0  0  0  0  0  0  0  0  0  0  0
    7.4726   -5.3240   24.5618 H   0  0  0  0  0  0  0  0  0  0  0  0
    9.7638   -5.2402   28.8416 H   0  0  0  0  0  0  0  0  0  0  0  0
    8.8238   -3.9272   28.1248 H   0  0  0  0  0  0  0  0  0  0  0  0
    6.8340   -4.5339   26.8232 H   0  0  0  0  0  0  0  0  0  0  0  0
    6.4551   -6.2523   26.6641 H   0  0  0  0  0  0  0  0  0  0  0  0
    9.6004    1.2281   24.6293 H   0  0  0  0  0  0  0  0  0  0  0  0
    9.3666    2.2262   23.2198 H   0  0  0  0  0  0  0  0  0  0  0  0
    8.0666    0.4961   23.2504 H   0  0  0  0  0  0  0  0  0  0  0  0
    8.2487   -1.5564   21.0972 H   0  0  0  0  0  0  0  0  0  0  0  0
  1  2  1  0  0  0  0
  1  7  2  0  0  0  0
  2  8  2  0  0  0  0
  3  4  2  0  0  0  0
  3 11  1  0  0  0  0
  4 14  1  0  0  0  0
  5  9  2  0  0  0  0
  5 13  1  0  0  0  0
  6 10  1  0  0  0  0
  6 13  2  0  0  0  0
  7 15  1  0  0  0  0
  8 16  1  0  0  0  0
  9 17  1  0  0  0  0
 10 17  2  0  0  0  0
 11 18  2  0  0  0  0
 12 14  2  0  0  0  0
 12 18  1  0  0  0  0
 13 25  1  0  0  0  0
 14 24  1  0  0  0  0
 15 16  2  0  0  0  0
 15 26  1  0  0  0  0
 16 28  1  0  0  0  0
 17 29  1  0  0  0  0
 18 33  1  0  0  0  0
 19 25  1  6  0  0  0
 19 30  1  0  0  0  0
 19 31  2  0  0  0  0
 20 22  1  0  0  0  0
 20 29  1  0  0  0  0
 21 23  1  0  0  0  0
 21 29  1  0  0  0  0
 22 32  1  0  0  0  0
 23 32  1  0  0  0  0
 24 25  1  0  0  0  0
 26 27  2  0  0  0  0
 27 28  1  0  0  0  0
 28 30  1  0  0  0  0
  1 34  1  0  0  0  0
  2 35  1  0  0  0  0
  3 36  1  0  0  0  0
  4 37  1  0  0  0  0
  5 38  1  0  0  0  0
  6 39  1  0  0  0  0
  7 40  1  0  0  0  0
  8 41  1  0  0  0  0
  9 42  1  0  0  0  0
 10 43  1  0  0  0  0
 11 44  1  0  0  0  0
 12 45  1  0  0  0  0
 20 46  1  0  0  0  0
 20 47  1  0  0  0  0
 21 48  1  0  0  0  0
 21 49  1  0  0  0  0
 22 50  1  0  0  0  0
 22 51  1  0  0  0  0
 23 52  1  0  0  0  0
 23 53  1  0  0  0  0
 24 54  1  0  0  0  0
 24 55  1  0  0  0  0
 25 56  1  0  0  0  0
 30 57  1  0  0  0  0
M  END
> <clash_score>
0

> <docking_score>
-8.56403923034668

> <overlap_score>
1.01246178150177

$$$$
BENZO_195_1
  -OEChem-08222022173D

 57 61  0     1  0  0  0  0  0999 V2000
    3.9160    2.0630   19.5520 C   0  0  0  0  0  0  0  0  0  0  0  0
    4.2750    1.7050   20.8490 C   0  0  0  0  0  0  0  0  0  0  0  0
    9.0720   -1.1280   24.8640 C   0  0  0  0  0  0  0  0  0  0  0  0
    9.7200   -2.2600   22.8630 C   0  0  0  0  0  0  0  0  0  0  0  0
    4.6890    1.6810   18.4640 C   0  0  0  0  0  0  0  0  0  0  0  0
    5.4210    0.9600   21.0930 C   0  0  0  0  0  0  0  0  0  0  0  0
    8.9960   -2.3380   25.5320 C   0  0  0  0  0  0  0  0  0  0  0  0
    9.6730   -3.4710   23.5300 C   0  0  0  0  0  0  0  0  0  0  0  0
   12.0761    2.7685   23.5923 C   0  0  0  0  0  0  0  0  0  0  0  0
   12.3645    0.5993   23.3773 C   0  0  0  0  0  0  0  0  0  0  0  0
    9.3350   -1.0880   23.5010 C   0  0  0  0  0  0  0  0  0  0  0  0
   11.3802    1.5472   23.5150 C   0  0  0  0  0  0  0  0  0  0  0  0
    5.8300    0.9190   18.6970 C   0  0  0  0  0  0  0  0  0  0  0  0
    6.1790    0.5730   19.9990 C   0  0  0  0  0  0  0  0  0  0  0  0
    9.3070   -3.5340   24.8780 C   0  0  0  0  0  0  0  0  0  0  0  0
    9.0420    0.3700   21.5280 C   0  0  0  0  0  0  0  0  0  0  0  0
   10.0772   -5.0257   26.7191 C   0  0  0  0  0  0  0  0  0  0  0  0
    8.0927   -5.6196   25.4069 C   0  0  0  0  0  0  0  0  0  0  0  0
    9.1935   -4.9431   27.9590 C   0  0  0  0  0  0  0  0  0  0  0  0
    7.2758   -5.5292   26.6966 C   0  0  0  0  0  0  0  0  0  0  0  0
   14.8649    0.7140   23.2612 C   0  0  0  0  0  0  0  0  0  0  0  0
    9.8870    1.3260   23.5730 C   0  0  0  0  0  0  0  0  0  0  0  0
    9.4560    0.1560   22.8130 C   0  0  1  0  0  0  0  0  0  0  0  0
   13.4003    2.6135   23.5107 N   0  0  0  0  0  0  0  0  0  0  0  0
    6.7580    0.3810   17.8350 N   0  0  0  0  0  0  0  0  0  0  0  0
    7.6390   -0.2680   18.5410 N   0  0  0  0  0  0  0  0  0  0  0  0
   13.5442    1.2836   23.3808 N   0  0  0  0  0  0  0  0  0  0  0  0
    7.3170   -0.1610   19.8550 N   0  0  0  0  0  0  0  0  0  0  0  0
    9.2564   -4.7368   25.5411 N   0  0  0  0  0  0  0  0  0  0  0  0
    8.1890   -0.7180   20.8700 N   0  0  0  0  0  0  0  0  0  0  0  0
    9.2690    1.4140   20.9380 O   0  0  0  0  0  0  0  0  0  0  0  0
    8.0884   -5.8462   27.8322 O   0  0  0  0  0  0  0  0  0  0  0  0
    3.0136    2.6526   19.3908 H   0  0  0  0  0  0  0  0  0  0  0  0
    3.6480    2.0140   21.6821 H   0  0  0  0  0  0  0  0  0  0  0  0
    8.9214   -0.1986   25.4206 H   0  0  0  0  0  0  0  0  0  0  0  0
   10.0622   -2.2326   21.8251 H   0  0  0  0  0  0  0  0  0  0  0  0
    4.4042    1.9741   17.4524 H   0  0  0  0  0  0  0  0  0  0  0  0
    5.7089    0.6919   22.1150 H   0  0  0  0  0  0  0  0  0  0  0  0
    8.6882   -2.3542   26.5803 H   0  0  0  0  0  0  0  0  0  0  0  0
    9.9258   -4.3896   22.9914 H   0  0  0  0  0  0  0  0  0  0  0  0
   11.6759    3.7661   23.7056 H   0  0  0  0  0  0  0  0  0  0  0  0
   12.3269   -0.4774   23.2810 H   0  0  0  0  0  0  0  0  0  0  0  0
   10.8986   -4.3117   26.8083 H   0  0  0  0  0  0  0  0  0  0  0  0
   10.4916   -6.0336   26.6319 H   0  0  0  0  0  0  0  0  0  0  0  0
    8.4328   -6.6457   25.2617 H   0  0  0  0  0  0  0  0  0  0  0  0
    7.4726   -5.3240   24.5618 H   0  0  0  0  0  0  0  0  0  0  0  0
    9.7638   -5.2402   28.8416 H   0  0  0  0  0  0  0  0  0  0  0  0
    8.8238   -3.9272   28.1248 H   0  0  0  0  0  0  0  0  0  0  0  0
    6.8340   -4.5339   26.8232 H   0  0  0  0  0  0  0  0  0  0  0  0
    6.4551   -6.2523   26.6641 H   0  0  0  0  0  0  0  0  0  0  0  0
   15.1211    0.6764   22.1991 H   0  0  0  0  0  0  0  0  0  0  0  0
   15.5806    1.3365   23.8054 H   0  0  0  0  0  0  0  0  0  0  0  0
   14.8651   -0.2914   23.6914 H   0  0  0  0  0  0  0  0  0  0  0  0
    9.6004    1.2281   24.6293 H   0  0  0  0  0  0  0  0  0  0  0  0
    9.3666    2.2262   23.2198 H   0  0  0  0  0  0  0  0  0  0  0  0
    8.0666    0.4961   23.2504 H   0  0  0  0  0  0  0  0  0  0  0  0
    8.2487   -1.5564   21.0972 H   0  0  0  0  0  0  0  0  0  0  0  0
  1  2  1  0  0  0  0
  1  5  2  0  0  0  0
  2  6  2  0  0  0  0
  3  7  2  0  0  0  0
  3 11  1  0  0  0  0
  4  8  1  0  0  0  0
  4 11  2  0  0  0  0
  5 13  1  0  0  0  0
  6 14  1  0  0  0  0
  7 15  1  0  0  0  0
  8 15  2  0  0  0  0
  9 12  1  0  0  0  0
  9 24  2  0  0  0  0
 10 12  2  0  0  0  0
 10 27  1  0  0  0  0
 11 23  1  0  0  0  0
 12 22  1  0  0  0  0
 13 14  2  0  0  0  0
 13 25  1  0  0  0  0
 14 28  1  0  0  0  0
 15 29  1  0  0  0  0
 16 23  1  0  0  0  0
 16 30  1  0  0  0  0
 16 31  2  0  0  0  0
 17 19  1  0  0  0  0
 17 29  1  0  0  0  0
 18 20  1  0  0  0  0
 18 29  1  0  0  0  0
 19 32  1  0  0  0  0
 20 32  1  0  0  0  0
 21 27  1  0  0  0  0
 22 23  1  1  0  0  0
 24 27  1  0  0  0  0
 25 26  2  0  0  0  0
 26 28  1  0  0  0  0
 28 30  1  0  0  0  0
  1 33  1  0  0  0  0
  2 34  1  0  0  0  0
  3 35  1  0  0  0  0
  4 36  1  0  0  0  0
  5 37  1  0  0  0  0
  6 38  1  0  0  0  0
  7 39  1  0  0  0  0
  8 40  1  0  0  0  0
  9 41  1  0  0  0  0
 10 42  1  0  0  0  0
 17 43  1  0  0  0  0
 17 44  1  0  0  0  0
 18 45  1  0  0  0  0
 18 46  1  0  0  0  0
 19 47  1  0  0  0  0
 19 48  1  0  0  0  0
 20 49  1  0  0  0  0
 20 50  1  0  0  0  0
 21 51  1  0  0  0  0
 21 52  1  0  0  0  0
 21 53  1  0  0  0  0
 22 54  1  0  0  0  0
 22 55  1  0  0  0  0
 23 56  1  0  0  0  0
 30 57  1  0  0  0  0
M  END
> <clash_score>
0

> <docking_score>
-8.991270065307617

> <overlap_score>
1.0112919807434082

$$$$
BENZO_198_1
  -OEChem-08222022173D

 53 56  0     1  0  0  0  0  0999 V2000
    3.9160    2.0630   19.5520 C   0  0  0  0  0  0  0  0  0  0  0  0
    4.2750    1.7050   20.8490 C   0  0  0  0  0  0  0  0  0  0  0  0
   13.6250    0.6928   23.3186 C   0  0  0  0  0  0  0  0  0  0  0  0
   12.2478    0.4781   23.3713 C   0  0  0  0  0  0  0  0  0  0  0  0
    9.0720   -1.1280   24.8640 C   0  0  0  0  0  0  0  0  0  0  0  0
    9.7200   -2.2600   22.8630 C   0  0  0  0  0  0  0  0  0  0  0  0
    4.6890    1.6810   18.4640 C   0  0  0  0  0  0  0  0  0  0  0  0
    5.4210    0.9600   21.0930 C   0  0  0  0  0  0  0  0  0  0  0  0
    8.9960   -2.3380   25.5320 C   0  0  0  0  0  0  0  0  0  0  0  0
    9.6730   -3.4710   23.5300 C   0  0  0  0  0  0  0  0  0  0  0  0
   14.1329    1.9886   23.4121 C   0  0  0  0  0  0  0  0  0  0  0  0
   11.8864    2.8550   23.6107 C   0  0  0  0  0  0  0  0  0  0  0  0
    7.6390   -0.2680   18.5410 C   0  0  0  0  0  0  0  0  0  0  0  0
    9.3350   -1.0880   23.5010 C   0  0  0  0  0  0  0  0  0  0  0  0
   11.3785    1.5592   23.5173 C   0  0  0  0  0  0  0  0  0  0  0  0
    5.8300    0.9190   18.6970 C   0  0  0  0  0  0  0  0  0  0  0  0
    6.1790    0.5730   19.9990 C   0  0  0  0  0  0  0  0  0  0  0  0
    9.3070   -3.5340   24.8780 C   0  0  0  0  0  0  0  0  0  0  0  0
   13.2636    3.0696   23.5581 C   0  0  0  0  0  0  0  0  0  0  0  0
    9.0420    0.3700   21.5280 C   0  0  0  0  0  0  0  0  0  0  0  0
    8.0148   -5.2164   26.1419 C   0  0  0  0  0  0  0  0  0  0  0  0
   10.4390   -5.5857   25.6570 C   0  0  0  0  0  0  0  0  0  0  0  0
    9.8870    1.3260   23.5730 C   0  0  0  0  0  0  0  0  0  0  0  0
    9.4560    0.1560   22.8130 C   0  0  1  0  0  0  0  0  0  0  0  0
    6.7580    0.3810   17.8350 N   0  0  0  0  0  0  0  0  0  0  0  0
    7.3170   -0.1610   19.8550 N   0  0  0  0  0  0  0  0  0  0  0  0
    8.1890   -0.7180   20.8700 N   0  0  0  0  0  0  0  0  0  0  0  0
    9.2556   -4.7554   25.5514 N   0  0  0  0  0  0  0  0  0  0  0  0
    9.2690    1.4140   20.9380 O   0  0  0  0  0  0  0  0  0  0  0  0
   13.8909    4.6682   23.6722 Cl  0  0  0  0  0  0  0  0  0  0  0  0
    3.0134    2.6521   19.3911 H   0  0  0  0  0  0  0  0  0  0  0  0
    3.6460    2.0127   21.6812 H   0  0  0  0  0  0  0  0  0  0  0  0
   14.3015   -0.1492   23.2047 H   0  0  0  0  0  0  0  0  0  0  0  0
   11.8608   -0.5349   23.2975 H   0  0  0  0  0  0  0  0  0  0  0  0
    8.9214   -0.1986   25.4206 H   0  0  0  0  0  0  0  0  0  0  0  0
   10.0622   -2.2326   21.8251 H   0  0  0  0  0  0  0  0  0  0  0  0
    4.4037    1.9731   17.4543 H   0  0  0  0  0  0  0  0  0  0  0  0
    5.7084    0.6923   22.1132 H   0  0  0  0  0  0  0  0  0  0  0  0
    8.6882   -2.3542   26.5803 H   0  0  0  0  0  0  0  0  0  0  0  0
    9.9258   -4.3896   22.9914 H   0  0  0  0  0  0  0  0  0  0  0  0
   15.2086    2.1410   23.3692 H   0  0  0  0  0  0  0  0  0  0  0  0
   11.2045    3.6944   23.7250 H   0  0  0  0  0  0  0  0  0  0  0  0
    8.4862   -0.8060   18.1787 H   0  0  0  0  0  0  0  0  0  0  0  0
    8.1775   -6.1919   26.6235 H   0  0  0  0  0  0  0  0  0  0  0  0
    7.6740   -4.4889   26.8933 H   0  0  0  0  0  0  0  0  0  0  0  0
    7.2508   -5.3180   25.3570 H   0  0  0  0  0  0  0  0  0  0  0  0
   10.1974   -6.4996   26.2195 H   0  0  0  0  0  0  0  0  0  0  0  0
   10.7877   -5.8568   24.6496 H   0  0  0  0  0  0  0  0  0  0  0  0
   11.2305   -5.0307   26.1819 H   0  0  0  0  0  0  0  0  0  0  0  0
    9.6026    1.2057   24.6276 H   0  0  0  0  0  0  0  0  0  0  0  0
    9.3596    2.2290   23.2378 H   0  0  0  0  0  0  0  0  0  0  0  0
    8.0683    0.4897   23.2524 H   0  0  0  0  0  0  0  0  0  0  0  0
    8.2749   -1.5586   21.1247 H   0  0  0  0  0  0  0  0  0  0  0  0
  1  2  1  0  0  0  0
  1  7  2  0  0  0  0
  2  8  2  0  0  0  0
  3  4  2  0  0  0  0
  3 11  1  0  0  0  0
  4 15  1  0  0  0  0
  5  9  2  0  0  0  0
  5 14  1  0  0  0  0
  6 10  1  0  0  0  0
  6 14  2  0  0  0  0
  7 16  1  0  0  0  0
  8 17  1  0  0  0  0
  9 18  1  0  0  0  0
 10 18  2  0  0  0  0
 11 19  2  0  0  0  0
 12 15  2  0  0  0  0
 12 19  1  0  0  0  0
 13 25  2  0  0  0  0
 13 26  1  0  0  0  0
 14 24  1  0  0  0  0
 15 23  1  0  0  0  0
 16 17  2  0  0  0  0
 16 25  1  0  0  0  0
 17 26  1  0  0  0  0
 18 28  1  0  0  0  0
 19 30  1  0  0  0  0
 20 24  1  0  0  0  0
 20 27  1  0  0  0  0
 20 29  2  0  0  0  0
 21 28  1  0  0  0  0
 22 28  1  0  0  0  0
 23 24  1  1  0  0  0
 26 27  1  0  0  0  0
  1 31  1  0  0  0  0
  2 32  1  0  0  0  0
  3 33  1  0  0  0  0
  4 34  1  0  0  0  0
  5 35  1  0  0  0  0
  6 36  1  0  0  0  0
  7 37  1  0  0  0  0
  8 38  1  0  0  0  0
  9 39  1  0  0  0  0
 10 40  1  0  0  0  0
 11 41  1  0  0  0  0
 12 42  1  0  0  0  0
 13 43  1  0  0  0  0
 21 44  1  0  0  0  0
 21 45  1  0  0  0  0
 21 46  1  0  0  0  0
 22 47  1  0  0  0  0
 22 48  1  0  0  0  0
 22 49  1  0  0  0  0
 23 50  1  0  0  0  0
 23 51  1  0  0  0  0
 24 52  1  0  0  0  0
 27 53  1  0  0  0  0
M  END
> <clash_score>
0

> <docking_score>
-9.466352462768555

> <overlap_score>
1.0000272989273071

$$$$
BENZO_199_1
  -OEChem-08222022173D

 53 56  0     1  0  0  0  0  0999 V2000
    3.9160    2.0630   19.5520 C   0  0  0  0  0  0  0  0  0  0  0  0
    4.2750    1.7050   20.8490 C   0  0  0  0  0  0  0  0  0  0  0  0
    9.0720   -1.1280   24.8640 C   0  0  0  0  0  0  0  0  0  0  0  0
    9.7200   -2.2600   22.8630 C   0  0  0  0  0  0  0  0  0  0  0  0
    4.6890    1.6810   18.4640 C   0  0  0  0  0  0  0  0  0  0  0  0
    5.4210    0.9600   21.0930 C   0  0  0  0  0  0  0  0  0  0  0  0
    8.9960   -2.3380   25.5320 C   0  0  0  0  0  0  0  0  0  0  0  0
    9.6730   -3.4710   23.5300 C   0  0  0  0  0  0  0  0  0  0  0  0
   12.0646    2.7858   23.5979 C   0  0  0  0  0  0  0  0  0  0  0  0
   12.3704    0.6193   23.3790 C   0  0  0  0  0  0  0  0  0  0  0  0
    7.6390   -0.2680   18.5410 C   0  0  0  0  0  0  0  0  0  0  0  0
    9.3350   -1.0880   23.5010 C   0  0  0  0  0  0  0  0  0  0  0  0
   11.3785    1.5592   23.5173 C   0  0  0  0  0  0  0  0  0  0  0  0
    5.8300    0.9190   18.6970 C   0  0  0  0  0  0  0  0  0  0  0  0
    6.1790    0.5730   19.9990 C   0  0  0  0  0  0  0  0  0  0  0  0
    9.3070   -3.5340   24.8780 C   0  0  0  0  0  0  0  0  0  0  0  0
    9.0420    0.3700   21.5280 C   0  0  0  0  0  0  0  0  0  0  0  0
   14.8700    0.7541   23.2663 C   0  0  0  0  0  0  0  0  0  0  0  0
    8.0148   -5.2164   26.1419 C   0  0  0  0  0  0  0  0  0  0  0  0
   10.4390   -5.5857   25.6570 C   0  0  0  0  0  0  0  0  0  0  0  0
    9.8870    1.3260   23.5730 C   0  0  0  0  0  0  0  0  0  0  0  0
    9.4560    0.1560   22.8130 C   0  0  1  0  0  0  0  0  0  0  0  0
   13.3900    2.6414   23.5177 N   0  0  0  0  0  0  0  0  0  0  0  0
    6.7580    0.3810   17.8350 N   0  0  0  0  0  0  0  0  0  0  0  0
   13.5447    1.3130   23.3854 N   0  0  0  0  0  0  0  0  0  0  0  0
    7.3170   -0.1610   19.8550 N   0  0  0  0  0  0  0  0  0  0  0  0
    8.1890   -0.7180   20.8700 N   0  0  0  0  0  0  0  0  0  0  0  0
    9.2556   -4.7554   25.5514 N   0  0  0  0  0  0  0  0  0  0  0  0
    9.2690    1.4140   20.9380 O   0  0  0  0  0  0  0  0  0  0  0  0
    3.0134    2.6521   19.3911 H   0  0  0  0  0  0  0  0  0  0  0  0
    3.6460    2.0127   21.6812 H   0  0  0  0  0  0  0  0  0  0  0  0
    8.9214   -0.1986   25.4206 H   0  0  0  0  0  0  0  0  0  0  0  0
   10.0622   -2.2326   21.8251 H   0  0  0  0  0  0  0  0  0  0  0  0
    4.4037    1.9731   17.4543 H   0  0  0  0  0  0  0  0  0  0  0  0
    5.7084    0.6923   22.1132 H   0  0  0  0  0  0  0  0  0  0  0  0
    8.6882   -2.3542   26.5803 H   0  0  0  0  0  0  0  0  0  0  0  0
    9.9258   -4.3896   22.9914 H   0  0  0  0  0  0  0  0  0  0  0  0
   11.6563    3.7799   23.7126 H   0  0  0  0  0  0  0  0  0  0  0  0
   12.3415   -0.4574   23.2805 H   0  0  0  0  0  0  0  0  0  0  0  0
    8.4862   -0.8060   18.1787 H   0  0  0  0  0  0  0  0  0  0  0  0
   15.1278    0.7207   22.2045 H   0  0  0  0  0  0  0  0  0  0  0  0
   15.5801    1.3811   23.8126 H   0  0  0  0  0  0  0  0  0  0  0  0
   14.8776   -0.2521   23.6945 H   0  0  0  0  0  0  0  0  0  0  0  0
    8.1775   -6.1919   26.6235 H   0  0  0  0  0  0  0  0  0  0  0  0
    7.6740   -4.4889   26.8933 H   0  0  0  0  0  0  0  0  0  0  0  0
    7.2508   -5.3180   25.3570 H   0  0  0  0  0  0  0  0  0  0  0  0
   10.1974   -6.4996   26.2195 H   0  0  0  0  0  0  0  0  0  0  0  0
   10.7877   -5.8568   24.6496 H   0  0  0  0  0  0  0  0  0  0  0  0
   11.2305   -5.0307   26.1819 H   0  0  0  0  0  0  0  0  0  0  0  0
    9.6026    1.2057   24.6276 H   0  0  0  0  0  0  0  0  0  0  0  0
    9.3596    2.2290   23.2378 H   0  0  0  0  0  0  0  0  0  0  0  0
    8.0683    0.4897   23.2524 H   0  0  0  0  0  0  0  0  0  0  0  0
    8.2749   -1.5586   21.1247 H   0  0  0  0  0  0  0  0  0  0  0  0
  1  2  1  0  0  0  0
  1  5  2  0  0  0  0
  2  6  2  0  0  0  0
  3  7  2  0  0  0  0
  3 12  1  0  0  0  0
  4  8  1  0  0  0  0
  4 12  2  0  0  0  0
  5 14  1  0  0  0  0
  6 15  1  0  0  0  0
  7 16  1  0  0  0  0
  8 16  2  0  0  0  0
  9 13  1  0  0  0  0
  9 23  2  0  0  0  0
 10 13  2  0  0  0  0
 10 25  1  0  0  0  0
 11 24  2  0  0  0  0
 11 26  1  0  0  0  0
 12 22  1  0  0  0  0
 13 21  1  0  0  0  0
 14 15  2  0  0  0  0
 14 24  1  0  0  0  0
 15 26  1  0  0  0  0
 16 28  1  0  0  0  0
 17 22  1  0  0  0  0
 17 27  1  0  0  0  0
 17 29  2  0  0  0  0
 18 25  1  0  0  0  0
 19 28  1  0  0  0  0
 20 28  1  0  0  0  0
 21 22  1  1  0  0  0
 23 25  1  0  0  0  0
 26 27  1  0  0  0  0
  1 30  1  0  0  0  0
  2 31  1  0  0  0  0
  3 32  1  0  0  0  0
  4 33  1  0  0  0  0
  5 34  1  0  0  0  0
  6 35  1  0  0  0  0
  7 36  1  0  0  0  0
  8 37  1  0  0  0  0
  9 38  1  0  0  0  0
 10 39  1  0  0  0  0
 11 40  1  0  0  0  0
 18 41  1  0  0  0  0
 18 42  1  0  0  0  0
 18 43  1  0  0  0  0
 19 44  1  0  0  0  0
 19 45  1  0  0  0  0
 19 46  1  0  0  0  0
 20 47  1  0  0  0  0
 20 48  1  0  0  0  0
 20 49  1  0  0  0  0
 21 50  1  0  0  0  0
 21 51  1  0  0  0  0
 22 52  1  0  0  0  0
 27 53  1  0  0  0  0
M  END
> <clash_score>
0

> <docking_score>
-9.837098121643066

> <overlap_score>
0.9991021752357483

$$$$
BENZO_198_2
  -OEChem-08222022173D

 53 56  0     1  0  0  0  0  0999 V2000
    3.9160    2.0630   19.5520 C   0  0  0  0  0  0  0  0  0  0  0  0
    4.2750    1.7050   20.8490 C   0  0  0  0  0  0  0  0  0  0  0  0
   13.2836    2.5921   22.4338 C   0  0  0  0  0  0  0  0  0  0  0  0
   12.2999    1.8455   23.0821 C   0  0  0  0  0  0  0  0  0  0  0  0
    9.0720   -1.1280   24.8640 C   0  0  0  0  0  0  0  0  0  0  0  0
    9.7200   -2.2600   22.8630 C   0  0  0  0  0  0  0  0  0  0  0  0
    4.6890    1.6810   18.4640 C   0  0  0  0  0  0  0  0  0  0  0  0
    5.4210    0.9600   21.0930 C   0  0  0  0  0  0  0  0  0  0  0  0
    8.9960   -2.3380   25.5320 C   0  0  0  0  0  0  0  0  0  0  0  0
    9.6730   -3.4710   23.5300 C   0  0  0  0  0  0  0  0  0  0  0  0
   12.9195    3.6292   21.5749 C   0  0  0  0  0  0  0  0  0  0  0  0
   10.5877    3.1728   22.0126 C   0  0  0  0  0  0  0  0  0  0  0  0
    7.6390   -0.2680   18.5410 C   0  0  0  0  0  0  0  0  0  0  0  0
    9.3350   -1.0880   23.5010 C   0  0  0  0  0  0  0  0  0  0  0  0
   10.9519    2.1358   22.8715 C   0  0  0  0  0  0  0  0  0  0  0  0
    5.8300    0.9190   18.6970 C   0  0  0  0  0  0  0  0  0  0  0  0
    6.1790    0.5730   19.9990 C   0  0  0  0  0  0  0  0  0  0  0  0
    9.3070   -3.5340   24.8780 C   0  0  0  0  0  0  0  0  0  0  0  0
   11.5715    3.9195   21.3643 C   0  0  0  0  0  0  0  0  0  0  0  0
    9.0420    0.3700   21.5280 C   0  0  0  0  0  0  0  0  0  0  0  0
    8.8766   -4.8075   26.9494 C   0  0  0  0  0  0  0  0  0  0  0  0
    9.5669   -5.9896   24.8578 C   0  0  0  0  0  0  0  0  0  0  0  0
    9.8870    1.3260   23.5730 C   0  0  0  0  0  0  0  0  0  0  0  0
    9.4560    0.1560   22.8130 C   0  0  2  0  0  0  0  0  0  0  0  0
    6.7580    0.3810   17.8350 N   0  0  0  0  0  0  0  0  0  0  0  0
    7.3170   -0.1610   19.8550 N   0  0  0  0  0  0  0  0  0  0  0  0
    8.1890   -0.7180   20.8700 N   0  0  0  0  0  0  0  0  0  0  0  0
    9.2556   -4.7554   25.5514 N   0  0  0  0  0  0  0  0  0  0  0  0
    9.2690    1.4140   20.9380 O   0  0  0  0  0  0  0  0  0  0  0  0
   11.1228    5.1983   20.3036 Cl  0  0  0  0  0  0  0  0  0  0  0  0
    3.0134    2.6521   19.3911 H   0  0  0  0  0  0  0  0  0  0  0  0
    3.6460    2.0127   21.6812 H   0  0  0  0  0  0  0  0  0  0  0  0
   14.3332    2.3656   22.5979 H   0  0  0  0  0  0  0  0  0  0  0  0
   12.5928    1.0392   23.7495 H   0  0  0  0  0  0  0  0  0  0  0  0
    8.9214   -0.1986   25.4206 H   0  0  0  0  0  0  0  0  0  0  0  0
   10.0622   -2.2326   21.8251 H   0  0  0  0  0  0  0  0  0  0  0  0
    4.4037    1.9731   17.4543 H   0  0  0  0  0  0  0  0  0  0  0  0
    5.7084    0.6923   22.1132 H   0  0  0  0  0  0  0  0  0  0  0  0
    8.6882   -2.3542   26.5803 H   0  0  0  0  0  0  0  0  0  0  0  0
    9.9258   -4.3896   22.9914 H   0  0  0  0  0  0  0  0  0  0  0  0
   13.6970    4.2025   21.0761 H   0  0  0  0  0  0  0  0  0  0  0  0
    9.5353    3.3956   21.8521 H   0  0  0  0  0  0  0  0  0  0  0  0
    8.4862   -0.8060   18.1787 H   0  0  0  0  0  0  0  0  0  0  0  0
    8.8955   -5.8512   27.2963 H   0  0  0  0  0  0  0  0  0  0  0  0
    9.5845   -4.2109   27.5435 H   0  0  0  0  0  0  0  0  0  0  0  0
    7.8621   -4.3996   27.0696 H   0  0  0  0  0  0  0  0  0  0  0  0
    9.4707   -6.8361   25.5536 H   0  0  0  0  0  0  0  0  0  0  0  0
    8.8693   -6.1242   24.0181 H   0  0  0  0  0  0  0  0  0  0  0  0
   10.5972   -5.9451   24.4750 H   0  0  0  0  0  0  0  0  0  0  0  0
   10.2899    1.0067   24.5442 H   0  0  0  0  0  0  0  0  0  0  0  0
    9.0336    1.9722   23.8180 H   0  0  0  0  0  0  0  0  0  0  0  0
   10.7792   -0.1072   22.4110 H   0  0  0  0  0  0  0  0  0  0  0  0
    8.2749   -1.5586   21.1247 H   0  0  0  0  0  0  0  0  0  0  0  0
  1  2  1  0  0  0  0
  1  7  2  0  0  0  0
  2  8  2  0  0  0  0
  3  4  2  0  0  0  0
  3 11  1  0  0  0  0
  4 15  1  0  0  0  0
  5  9  2  0  0  0  0
  5 14  1  0  0  0  0
  6 10  1  0  0  0  0
  6 14  2  0  0  0  0
  7 16  1  0  0  0  0
  8 17  1  0  0  0  0
  9 18  1  0  0  0  0
 10 18  2  0  0  0  0
 11 19  2  0  0  0  0
 12 15  2  0  0  0  0
 12 19  1  0  0  0  0
 13 25  2  0  0  0  0
 13 26  1  0  0  0  0
 14 24  1  0  0  0  0
 15 23  1  0  0  0  0
 16 17  2  0  0  0  0
 16 25  1  0  0  0  0
 17 26  1  0  0  0  0
 18 28  1  0  0  0  0
 19 30  1  0  0  0  0
 20 24  1  0  0  0  0
 20 27  1  0  0  0  0
 20 29  2  0  0  0  0
 21 28  1  0  0  0  0
 22 28  1  0  0  0  0
 23 24  1  6  0  0  0
 26 27  1  0  0  0  0
  1 31  1  0  0  0  0
  2 32  1  0  0  0  0
  3 33  1  0  0  0  0
  4 34  1  0  0  0  0
  5 35  1  0  0  0  0
  6 36  1  0  0  0  0
  7 37  1  0  0  0  0
  8 38  1  0  0  0  0
  9 39  1  0  0  0  0
 10 40  1  0  0  0  0
 11 41  1  0  0  0  0
 12 42  1  0  0  0  0
 13 43  1  0  0  0  0
 21 44  1  0  0  0  0
 21 45  1  0  0  0  0
 21 46  1  0  0  0  0
 22 47  1  0  0  0  0
 22 48  1  0  0  0  0
 22 49  1  0  0  0  0
 23 50  1  0  0  0  0
 23 51  1  0  0  0  0
 24 52  1  0  0  0  0
 27 53  1  0  0  0  0
M  END
> <clash_score>
2.2169709590082354

> <docking_score>
-8.806852340698242

> <overlap_score>
0.9597316384315491

$$$$
BENZO_199_2
  -OEChem-08222022173D

 53 56  0     1  0  0  0  0  0999 V2000
    3.9160    2.0630   19.5520 C   0  0  0  0  0  0  0  0  0  0  0  0
    4.2750    1.7050   20.8490 C   0  0  0  0  0  0  0  0  0  0  0  0
    9.0720   -1.1280   24.8640 C   0  0  0  0  0  0  0  0  0  0  0  0
    9.7200   -2.2600   22.8630 C   0  0  0  0  0  0  0  0  0  0  0  0
    4.6890    1.6810   18.4640 C   0  0  0  0  0  0  0  0  0  0  0  0
    5.4210    0.9600   21.0930 C   0  0  0  0  0  0  0  0  0  0  0  0
    8.9960   -2.3380   25.5320 C   0  0  0  0  0  0  0  0  0  0  0  0
    9.6730   -3.4710   23.5300 C   0  0  0  0  0  0  0  0  0  0  0  0
   12.3489    1.9871   22.9604 C   0  0  0  0  0  0  0  0  0  0  0  0
   10.7728    3.1825   22.0003 C   0  0  0  0  0  0  0  0  0  0  0  0
    7.6390   -0.2680   18.5410 C   0  0  0  0  0  0  0  0  0  0  0  0
    9.3350   -1.0880   23.5010 C   0  0  0  0  0  0  0  0  0  0  0  0
   10.9519    2.1358   22.8715 C   0  0  0  0  0  0  0  0  0  0  0  0
    5.8300    0.9190   18.6970 C   0  0  0  0  0  0  0  0  0  0  0  0
    6.1790    0.5730   19.9990 C   0  0  0  0  0  0  0  0  0  0  0  0
    9.3070   -3.5340   24.8780 C   0  0  0  0  0  0  0  0  0  0  0  0
    9.0420    0.3700   21.5280 C   0  0  0  0  0  0  0  0  0  0  0  0
   12.3501    4.6554   20.7270 C   0  0  0  0  0  0  0  0  0  0  0  0
    8.8766   -4.8075   26.9494 C   0  0  0  0  0  0  0  0  0  0  0  0
    9.5669   -5.9896   24.8578 C   0  0  0  0  0  0  0  0  0  0  0  0
    9.8870    1.3260   23.5730 C   0  0  0  0  0  0  0  0  0  0  0  0
    9.4560    0.1560   22.8130 C   0  0  2  0  0  0  0  0  0  0  0  0
   13.0104    2.8686   22.2058 N   0  0  0  0  0  0  0  0  0  0  0  0
    6.7580    0.3810   17.8350 N   0  0  0  0  0  0  0  0  0  0  0  0
   12.0247    3.5812   21.6343 N   0  0  0  0  0  0  0  0  0  0  0  0
    7.3170   -0.1610   19.8550 N   0  0  0  0  0  0  0  0  0  0  0  0
    8.1890   -0.7180   20.8700 N   0  0  0  0  0  0  0  0  0  0  0  0
    9.2556   -4.7554   25.5514 N   0  0  0  0  0  0  0  0  0  0  0  0
    9.2690    1.4140   20.9380 O   0  0  0  0  0  0  0  0  0  0  0  0
    3.0134    2.6521   19.3911 H   0  0  0  0  0  0  0  0  0  0  0  0
    3.6460    2.0127   21.6812 H   0  0  0  0  0  0  0  0  0  0  0  0
    8.9214   -0.1986   25.4206 H   0  0  0  0  0  0  0  0  0  0  0  0
   10.0622   -2.2326   21.8251 H   0  0  0  0  0  0  0  0  0  0  0  0
    4.4037    1.9731   17.4543 H   0  0  0  0  0  0  0  0  0  0  0  0
    5.7084    0.6923   22.1132 H   0  0  0  0  0  0  0  0  0  0  0  0
    8.6882   -2.3542   26.5803 H   0  0  0  0  0  0  0  0  0  0  0  0
    9.9258   -4.3896   22.9914 H   0  0  0  0  0  0  0  0  0  0  0  0
   12.9149    1.2733   23.5422 H   0  0  0  0  0  0  0  0  0  0  0  0
    9.8832    3.6646   21.6181 H   0  0  0  0  0  0  0  0  0  0  0  0
    8.4862   -0.8060   18.1787 H   0  0  0  0  0  0  0  0  0  0  0  0
   12.4467    5.5737   21.3122 H   0  0  0  0  0  0  0  0  0  0  0  0
   13.2892    4.4277   20.2151 H   0  0  0  0  0  0  0  0  0  0  0  0
   11.5530    4.7557   19.9850 H   0  0  0  0  0  0  0  0  0  0  0  0
    8.8955   -5.8512   27.2963 H   0  0  0  0  0  0  0  0  0  0  0  0
    9.5845   -4.2109   27.5435 H   0  0  0  0  0  0  0  0  0  0  0  0
    7.8621   -4.3996   27.0696 H   0  0  0  0  0  0  0  0  0  0  0  0
    9.4707   -6.8361   25.5536 H   0  0  0  0  0  0  0  0  0  0  0  0
    8.8693   -6.1242   24.0181 H   0  0  0  0  0  0  0  0  0  0  0  0
   10.5972   -5.9451   24.4750 H   0  0  0  0  0  0  0  0  0  0  0  0
   10.2899    1.0067   24.5442 H   0  0  0  0  0  0  0  0  0  0  0  0
    9.0336    1.9722   23.8180 H   0  0  0  0  0  0  0  0  0  0  0  0
   10.7792   -0.1072   22.4110 H   0  0  0  0  0  0  0  0  0  0  0  0
    8.2749   -1.5586   21.1247 H   0  0  0  0  0  0  0  0  0  0  0  0
  1  2  1  0  0  0  0
  1  5  2  0  0  0  0
  2  6  2  0  0  0  0
  3  7  2  0  0  0  0
  3 12  1  0  0  0  0
  4  8  1  0  0  0  0
  4 12  2  0  0  0  0
  5 14  1  0  0  0  0
  6 15  1  0  0  0  0
  7 16  1  0  0  0  0
  8 16  2  0  0  0  0
  9 13  1  0  0  0  0
  9 23  2  0  0  0  0
 10 13  2  0  0  0  0
 10 25  1  0  0  0  0
 11 24  2  0  0  0  0
 11 26  1  0  0  0  0
 12 22  1  0  0  0  0
 13 21  1  0  0  0  0
 14 15  2  0  0  0  0
 14 24  1  0  0  0  0
 15 26  1  0  0  0  0
 16 28  1  0  0  0  0
 17 22  1  0  0  0  0
 17 27  1  0  0  0  0
 17 29  2  0  0  0  0
 18 25  1  0  0  0  0
 19 28  1  0  0  0  0
 20 28  1  0  0  0  0
 21 22  1  6  0  0  0
 23 25  1  0  0  0  0
 26 27  1  0  0  0  0
  1 30  1  0  0  0  0
  2 31  1  0  0  0  0
  3 32  1  0  0  0  0
  4 33  1  0  0  0  0
  5 34  1  0  0  0  0
  6 35  1  0  0  0  0
  7 36  1  0  0  0  0
  8 37  1  0  0  0  0
  9 38  1  0  0  0  0
 10 39  1  0  0  0  0
 11 40  1  0  0  0  0
 18 41  1  0  0  0  0
 18 42  1  0  0  0  0
 18 43  1  0  0  0  0
 19 44  1  0  0  0  0
 19 45  1  0  0  0  0
 19 46  1  0  0  0  0
 20 47  1  0  0  0  0
 20 48  1  0  0  0  0
 20 49  1  0  0  0  0
 21 50  1  0  0  0  0
 21 51  1  0  0  0  0
 22 52  1  0  0  0  0
 27 53  1  0  0  0  0
M  END
> <clash_score>
0

> <docking_score>
-8.257304191589355

> <overlap_score>
0.9541586637496948

$$$$
BENZO_201_2
  -OEChem-08222022173D

 55 58  0     1  0  0  0  0  0999 V2000
   12.9176    3.6318   21.5749 C   0  0  0  0  0  0  0  0  0  0  0  0
   13.2831    2.5951   22.4336 C   0  0  0  0  0  0  0  0  0  0  0  0
   11.5692    3.9205   21.3646 C   0  0  0  0  0  0  0  0  0  0  0  0
    3.9160    2.0630   19.5520 C   0  0  0  0  0  0  0  0  0  0  0  0
    4.2750    1.7050   20.8490 C   0  0  0  0  0  0  0  0  0  0  0  0
   12.3003    1.8471   23.0818 C   0  0  0  0  0  0  0  0  0  0  0  0
   10.5864    3.1725   22.0128 C   0  0  0  0  0  0  0  0  0  0  0  0
    9.0720   -1.1280   24.8640 C   0  0  0  0  0  0  0  0  0  0  0  0
    9.7200   -2.2600   22.8630 C   0  0  0  0  0  0  0  0  0  0  0  0
    4.6890    1.6810   18.4640 C   0  0  0  0  0  0  0  0  0  0  0  0
    5.4210    0.9600   21.0930 C   0  0  0  0  0  0  0  0  0  0  0  0
    8.9960   -2.3380   25.5320 C   0  0  0  0  0  0  0  0  0  0  0  0
    9.6730   -3.4710   23.5300 C   0  0  0  0  0  0  0  0  0  0  0  0
    7.6390   -0.2680   18.5410 C   0  0  0  0  0  0  0  0  0  0  0  0
   10.9519    2.1358   22.8715 C   0  0  0  0  0  0  0  0  0  0  0  0
    9.3350   -1.0880   23.5010 C   0  0  0  0  0  0  0  0  0  0  0  0
    5.8300    0.9190   18.6970 C   0  0  0  0  0  0  0  0  0  0  0  0
    6.1790    0.5730   19.9990 C   0  0  0  0  0  0  0  0  0  0  0  0
    9.3070   -3.5340   24.8780 C   0  0  0  0  0  0  0  0  0  0  0  0
    8.4228   -5.1089   26.6141 C   0  0  0  0  0  0  0  0  0  0  0  0
    9.0420    0.3700   21.5280 C   0  0  0  0  0  0  0  0  0  0  0  0
    8.4173   -7.5520   25.9532 C   0  0  0  0  0  0  0  0  0  0  0  0
    9.8870    1.3260   23.5730 C   0  0  0  0  0  0  0  0  0  0  0  0
    8.6900   -6.5411   27.0525 C   0  0  0  0  0  0  0  0  0  0  0  0
    9.4560    0.1560   22.8130 C   0  0  2  0  0  0  0  0  0  0  0  0
    6.7580    0.3810   17.8350 N   0  0  0  0  0  0  0  0  0  0  0  0
    7.3170   -0.1610   19.8550 N   0  0  0  0  0  0  0  0  0  0  0  0
    9.2546   -4.7423   25.5437 N   0  0  0  0  0  0  0  0  0  0  0  0
    8.1890   -0.7180   20.8700 N   0  0  0  0  0  0  0  0  0  0  0  0
    7.5768   -4.4085   27.1603 O   0  0  0  0  0  0  0  0  0  0  0  0
    9.2690    1.4140   20.9380 O   0  0  0  0  0  0  0  0  0  0  0  0
   13.6830    4.2150   21.0713 H   0  0  0  0  0  0  0  0  0  0  0  0
   14.3329    2.3708   22.5984 H   0  0  0  0  0  0  0  0  0  0  0  0
   11.2843    4.7283   20.6970 H   0  0  0  0  0  0  0  0  0  0  0  0
    3.0134    2.6521   19.3911 H   0  0  0  0  0  0  0  0  0  0  0  0
    3.6460    2.0127   21.6812 H   0  0  0  0  0  0  0  0  0  0  0  0
   12.5944    1.0411   23.7490 H   0  0  0  0  0  0  0  0  0  0  0  0
    9.5383    3.4046   21.8428 H   0  0  0  0  0  0  0  0  0  0  0  0
    8.9202   -0.1986   25.4206 H   0  0  0  0  0  0  0  0  0  0  0  0
   10.0631   -2.2319   21.8252 H   0  0  0  0  0  0  0  0  0  0  0  0
    4.4037    1.9731   17.4543 H   0  0  0  0  0  0  0  0  0  0  0  0
    5.7084    0.6923   22.1132 H   0  0  0  0  0  0  0  0  0  0  0  0
    8.6898   -2.3534   26.5810 H   0  0  0  0  0  0  0  0  0  0  0  0
    9.9254   -4.3899   22.9914 H   0  0  0  0  0  0  0  0  0  0  0  0
    8.4862   -0.8060   18.1787 H   0  0  0  0  0  0  0  0  0  0  0  0
    7.3765   -7.4970   25.6177 H   0  0  0  0  0  0  0  0  0  0  0  0
    8.6071   -8.5677   26.3138 H   0  0  0  0  0  0  0  0  0  0  0  0
    9.0598   -7.3717   25.0851 H   0  0  0  0  0  0  0  0  0  0  0  0
   10.2899    1.0067   24.5442 H   0  0  0  0  0  0  0  0  0  0  0  0
    9.0336    1.9722   23.8180 H   0  0  0  0  0  0  0  0  0  0  0  0
    9.7367   -6.6182   27.3684 H   0  0  0  0  0  0  0  0  0  0  0  0
    8.0565   -6.7633   27.9189 H   0  0  0  0  0  0  0  0  0  0  0  0
   10.7792   -0.1072   22.4110 H   0  0  0  0  0  0  0  0  0  0  0  0
    9.9034   -5.4689   25.2194 H   0  0  0  0  0  0  0  0  0  0  0  0
    8.2749   -1.5586   21.1247 H   0  0  0  0  0  0  0  0  0  0  0  0
  1  2  1  0  0  0  0
  1  3  2  0  0  0  0
  2  6  2  0  0  0  0
  3  7  1  0  0  0  0
  4  5  1  0  0  0  0
  4 10  2  0  0  0  0
  5 11  2  0  0  0  0
  6 15  1  0  0  0  0
  7 15  2  0  0  0  0
  8 12  2  0  0  0  0
  8 16  1  0  0  0  0
  9 13  1  0  0  0  0
  9 16  2  0  0  0  0
 10 17  1  0  0  0  0
 11 18  1  0  0  0  0
 12 19  1  0  0  0  0
 13 19  2  0  0  0  0
 14 26  2  0  0  0  0
 14 27  1  0  0  0  0
 15 23  1  0  0  0  0
 16 25  1  0  0  0  0
 17 18  2  0  0  0  0
 17 26  1  0  0  0  0
 18 27  1  0  0  0  0
 19 28  1  0  0  0  0
 20 24  1  0  0  0  0
 20 28  1  0  0  0  0
 20 30  2  0  0  0  0
 21 25  1  0  0  0  0
 21 29  1  0  0  0  0
 21 31  2  0  0  0  0
 22 24  1  0  0  0  0
 23 25  1  6  0  0  0
 27 29  1  0  0  0  0
  1 32  1  0  0  0  0
  2 33  1  0  0  0  0
  3 34  1  0  0  0  0
  4 35  1  0  0  0  0
  5 36  1  0  0  0  0
  6 37  1  0  0  0  0
  7 38  1  0  0  0  0
  8 39  1  0  0  0  0
  9 40  1  0  0  0  0
 10 41  1  0  0  0  0
 11 42  1  0  0  0  0
 12 43  1  0  0  0  0
 13 44  1  0  0  0  0
 14 45  1  0  0  0  0
 22 46  1  0  0  0  0
 22 47  1  0  0  0  0
 22 48  1  0  0  0  0
 23 49  1  0  0  0  0
 23 50  1  0  0  0  0
 24 51  1  0  0  0  0
 24 52  1  0  0  0  0
 25 53  1  0  0  0  0
 28 54  1  0  0  0  0
 29 55  1  0  0  0  0
M  END
> <clash_score>
1.2657946926113406

> <docking_score>
-8.16131591796875

> <overlap_score>
0.9580298066139221

$$$$
BENZO_201_1
  -OEChem-08222022173D

 55 58  0     1  0  0  0  0  0999 V2000
   14.1327    1.9902   23.4130 C   0  0  0  0  0  0  0  0  0  0  0  0
   13.5894    1.1922   24.4197 C   0  0  0  0  0  0  0  0  0  0  0  0
   13.2990    2.5728   22.4585 C   0  0  0  0  0  0  0  0  0  0  0  0
    3.9160    2.0630   19.5520 C   0  0  0  0  0  0  0  0  0  0  0  0
    4.2750    1.7050   20.8490 C   0  0  0  0  0  0  0  0  0  0  0  0
   12.2122    0.9766   24.4719 C   0  0  0  0  0  0  0  0  0  0  0  0
   11.9219    2.3573   22.5106 C   0  0  0  0  0  0  0  0  0  0  0  0
    9.0720   -1.1280   24.8640 C   0  0  0  0  0  0  0  0  0  0  0  0
    9.7200   -2.2600   22.8630 C   0  0  0  0  0  0  0  0  0  0  0  0
    4.6890    1.6810   18.4640 C   0  0  0  0  0  0  0  0  0  0  0  0
    5.4210    0.9600   21.0930 C   0  0  0  0  0  0  0  0  0  0  0  0
    8.9960   -2.3380   25.5320 C   0  0  0  0  0  0  0  0  0  0  0  0
    9.6730   -3.4710   23.5300 C   0  0  0  0  0  0  0  0  0  0  0  0
    7.6390   -0.2680   18.5410 C   0  0  0  0  0  0  0  0  0  0  0  0
   11.3785    1.5592   23.5173 C   0  0  0  0  0  0  0  0  0  0  0  0
    9.3350   -1.0880   23.5010 C   0  0  0  0  0  0  0  0  0  0  0  0
    5.8300    0.9190   18.6970 C   0  0  0  0  0  0  0  0  0  0  0  0
    6.1790    0.5730   19.9990 C   0  0  0  0  0  0  0  0  0  0  0  0
    9.3070   -3.5340   24.8780 C   0  0  0  0  0  0  0  0  0  0  0  0
    8.4228   -5.1089   26.6141 C   0  0  0  0  0  0  0  0  0  0  0  0
    9.0420    0.3700   21.5280 C   0  0  0  0  0  0  0  0  0  0  0  0
    8.4173   -7.5520   25.9532 C   0  0  0  0  0  0  0  0  0  0  0  0
    9.8870    1.3260   23.5730 C   0  0  0  0  0  0  0  0  0  0  0  0
    8.6900   -6.5411   27.0525 C   0  0  0  0  0  0  0  0  0  0  0  0
    9.4560    0.1560   22.8130 C   0  0  1  0  0  0  0  0  0  0  0  0
    6.7580    0.3810   17.8350 N   0  0  0  0  0  0  0  0  0  0  0  0
    7.3170   -0.1610   19.8550 N   0  0  0  0  0  0  0  0  0  0  0  0
    9.2546   -4.7423   25.5437 N   0  0  0  0  0  0  0  0  0  0  0  0
    8.1890   -0.7180   20.8700 N   0  0  0  0  0  0  0  0  0  0  0  0
    7.5768   -4.4085   27.1603 O   0  0  0  0  0  0  0  0  0  0  0  0
    9.2690    1.4140   20.9380 O   0  0  0  0  0  0  0  0  0  0  0  0
   15.2049    2.1590   23.3734 H   0  0  0  0  0  0  0  0  0  0  0  0
   14.2383    0.7393   25.1637 H   0  0  0  0  0  0  0  0  0  0  0  0
   13.7216    3.1950   21.6752 H   0  0  0  0  0  0  0  0  0  0  0  0
    3.0134    2.6521   19.3911 H   0  0  0  0  0  0  0  0  0  0  0  0
    3.6460    2.0127   21.6812 H   0  0  0  0  0  0  0  0  0  0  0  0
   11.7977    0.3532   25.2597 H   0  0  0  0  0  0  0  0  0  0  0  0
   11.2800    2.8151   21.7626 H   0  0  0  0  0  0  0  0  0  0  0  0
    8.9202   -0.1986   25.4206 H   0  0  0  0  0  0  0  0  0  0  0  0
   10.0631   -2.2319   21.8252 H   0  0  0  0  0  0  0  0  0  0  0  0
    4.4037    1.9731   17.4543 H   0  0  0  0  0  0  0  0  0  0  0  0
    5.7084    0.6923   22.1132 H   0  0  0  0  0  0  0  0  0  0  0  0
    8.6898   -2.3534   26.5810 H   0  0  0  0  0  0  0  0  0  0  0  0
    9.9254   -4.3899   22.9914 H   0  0  0  0  0  0  0  0  0  0  0  0
    8.4862   -0.8060   18.1787 H   0  0  0  0  0  0  0  0  0  0  0  0
    7.3765   -7.4970   25.6177 H   0  0  0  0  0  0  0  0  0  0  0  0
    8.6071   -8.5677   26.3138 H   0  0  0  0  0  0  0  0  0  0  0  0
    9.0598   -7.3717   25.0851 H   0  0  0  0  0  0  0  0  0  0  0  0
    9.6026    1.2057   24.6276 H   0  0  0  0  0  0  0  0  0  0  0  0
    9.3596    2.2290   23.2378 H   0  0  0  0  0  0  0  0  0  0  0  0
    9.7367   -6.6182   27.3684 H   0  0  0  0  0  0  0  0  0  0  0  0
    8.0565   -6.7633   27.9189 H   0  0  0  0  0  0  0  0  0  0  0  0
    8.0683    0.4897   23.2524 H   0  0  0  0  0  0  0  0  0  0  0  0
    9.9034   -5.4689   25.2194 H   0  0  0  0  0  0  0  0  0  0  0  0
    8.2749   -1.5586   21.1247 H   0  0  0  0  0  0  0  0  0  0  0  0
  1  2  1  0  0  0  0
  1  3  2  0  0  0  0
  2  6  2  0  0  0  0
  3  7  1  0  0  0  0
  4  5  1  0  0  0  0
  4 10  2  0  0  0  0
  5 11  2  0  0  0  0
  6 15  1  0  0  0  0
  7 15  2  0  0  0  0
  8 12  2  0  0  0  0
  8 16  1  0  0  0  0
  9 13  1  0  0  0  0
  9 16  2  0  0  0  0
 10 17  1  0  0  0  0
 11 18  1  0  0  0  0
 12 19  1  0  0  0  0
 13 19  2  0  0  0  0
 14 26  2  0  0  0  0
 14 27  1  0  0  0  0
 15 23  1  0  0  0  0
 16 25  1  0  0  0  0
 17 18  2  0  0  0  0
 17 26  1  0  0  0  0
 18 27  1  0  0  0  0
 19 28  1  0  0  0  0
 20 24  1  0  0  0  0
 20 28  1  0  0  0  0
 20 30  2  0  0  0  0
 21 25  1  0  0  0  0
 21 29  1  0  0  0  0
 21 31  2  0  0  0  0
 22 24  1  0  0  0  0
 23 25  1  1  0  0  0
 27 29  1  0  0  0  0
  1 32  1  0  0  0  0
  2 33  1  0  0  0  0
  3 34  1  0  0  0  0
  4 35  1  0  0  0  0
  5 36  1  0  0  0  0
  6 37  1  0  0  0  0
  7 38  1  0  0  0  0
  8 39  1  0  0  0  0
  9 40  1  0  0  0  0
 10 41  1  0  0  0  0
 11 42  1  0  0  0  0
 12 43  1  0  0  0  0
 13 44  1  0  0  0  0
 14 45  1  0  0  0  0
 22 46  1  0  0  0  0
 22 47  1  0  0  0  0
 22 48  1  0  0  0  0
 23 49  1  0  0  0  0
 23 50  1  0  0  0  0
 24 51  1  0  0  0  0
 24 52  1  0  0  0  0
 25 53  1  0  0  0  0
 28 54  1  0  0  0  0
 29 55  1  0  0  0  0
M  END
> <clash_score>
0.6426251740901496

> <docking_score>
-8.266658782958984

> <overlap_score>
0.9950611591339111

$$$$
BENZO_200_2
  -OEChem-08222022173D

 52 55  0     1  0  0  0  0  0999 V2000
    3.9160    2.0630   19.5520 C   0  0  0  0  0  0  0  0  0  0  0  0
    4.2750    1.7050   20.8490 C   0  0  0  0  0  0  0  0  0  0  0  0
    9.0720   -1.1280   24.8640 C   0  0  0  0  0  0  0  0  0  0  0  0
    9.7200   -2.2600   22.8630 C   0  0  0  0  0  0  0  0  0  0  0  0
    4.6890    1.6810   18.4640 C   0  0  0  0  0  0  0  0  0  0  0  0
    5.4210    0.9600   21.0930 C   0  0  0  0  0  0  0  0  0  0  0  0
    8.9960   -2.3380   25.5320 C   0  0  0  0  0  0  0  0  0  0  0  0
    9.6730   -3.4710   23.5300 C   0  0  0  0  0  0  0  0  0  0  0  0
   12.4120    0.7557   23.6805 C   0  0  0  0  0  0  0  0  0  0  0  0
   13.4422    0.6233   24.5853 C   0  0  0  0  0  0  0  0  0  0  0  0
   11.3265    1.2397   25.6779 C   0  0  0  0  0  0  0  0  0  0  0  0
    7.6390   -0.2680   18.5410 C   0  0  0  0  0  0  0  0  0  0  0  0
    9.3350   -1.0880   23.5010 C   0  0  0  0  0  0  0  0  0  0  0  0
   11.1864    1.1129   24.3133 C   0  0  0  0  0  0  0  0  0  0  0  0
    5.8300    0.9190   18.6970 C   0  0  0  0  0  0  0  0  0  0  0  0
    6.1790    0.5730   19.9990 C   0  0  0  0  0  0  0  0  0  0  0  0
    9.3070   -3.5340   24.8780 C   0  0  0  0  0  0  0  0  0  0  0  0
    8.4228   -5.1089   26.6141 C   0  0  0  0  0  0  0  0  0  0  0  0
    9.0420    0.3700   21.5280 C   0  0  0  0  0  0  0  0  0  0  0  0
    8.4173   -7.5520   25.9532 C   0  0  0  0  0  0  0  0  0  0  0  0
    9.8870    1.3260   23.5730 C   0  0  0  0  0  0  0  0  0  0  0  0
    8.6900   -6.5411   27.0525 C   0  0  0  0  0  0  0  0  0  0  0  0
    9.4560    0.1560   22.8130 C   0  0  2  0  0  0  0  0  0  0  0  0
    6.7580    0.3810   17.8350 N   0  0  0  0  0  0  0  0  0  0  0  0
    7.3170   -0.1610   19.8550 N   0  0  0  0  0  0  0  0  0  0  0  0
    9.2546   -4.7423   25.5437 N   0  0  0  0  0  0  0  0  0  0  0  0
    8.1890   -0.7180   20.8700 N   0  0  0  0  0  0  0  0  0  0  0  0
    7.5768   -4.4085   27.1603 O   0  0  0  0  0  0  0  0  0  0  0  0
    9.2690    1.4140   20.9380 O   0  0  0  0  0  0  0  0  0  0  0  0
   12.9305    0.9290   26.1907 S   0  0  0  0  0  0  0  0  0  0  0  0
    3.0134    2.6521   19.3911 H   0  0  0  0  0  0  0  0  0  0  0  0
    3.6460    2.0127   21.6812 H   0  0  0  0  0  0  0  0  0  0  0  0
    8.9202   -0.1986   25.4206 H   0  0  0  0  0  0  0  0  0  0  0  0
   10.0631   -2.2319   21.8252 H   0  0  0  0  0  0  0  0  0  0  0  0
    4.4037    1.9731   17.4543 H   0  0  0  0  0  0  0  0  0  0  0  0
    5.7084    0.6923   22.1132 H   0  0  0  0  0  0  0  0  0  0  0  0
    8.6898   -2.3534   26.5810 H   0  0  0  0  0  0  0  0  0  0  0  0
    9.9254   -4.3899   22.9914 H   0  0  0  0  0  0  0  0  0  0  0  0
   12.5361    0.6022   22.6159 H   0  0  0  0  0  0  0  0  0  0  0  0
   14.4706    0.3610   24.3807 H   0  0  0  0  0  0  0  0  0  0  0  0
   10.5663    1.4985   26.4019 H   0  0  0  0  0  0  0  0  0  0  0  0
    8.4862   -0.8060   18.1787 H   0  0  0  0  0  0  0  0  0  0  0  0
    7.3765   -7.4970   25.6177 H   0  0  0  0  0  0  0  0  0  0  0  0
    8.6071   -8.5677   26.3138 H   0  0  0  0  0  0  0  0  0  0  0  0
    9.0598   -7.3717   25.0851 H   0  0  0  0  0  0  0  0  0  0  0  0
    9.1168    1.5904   24.3109 H   0  0  0  0  0  0  0  0  0  0  0  0
    9.9726    2.2073   22.9235 H   0  0  0  0  0  0  0  0  0  0  0  0
    9.7367   -6.6182   27.3684 H   0  0  0  0  0  0  0  0  0  0  0  0
    8.0565   -6.7633   27.9189 H   0  0  0  0  0  0  0  0  0  0  0  0
   10.7792   -0.1072   22.4110 H   0  0  0  0  0  0  0  0  0  0  0  0
    9.9034   -5.4689   25.2194 H   0  0  0  0  0  0  0  0  0  0  0  0
    8.2749   -1.5586   21.1247 H   0  0  0  0  0  0  0  0  0  0  0  0
  1  2  1  0  0  0  0
  1  5  2  0  0  0  0
  2  6  2  0  0  0  0
  3  7  2  0  0  0  0
  3 13  1  0  0  0  0
  4  8  1  0  0  0  0
  4 13  2  0  0  0  0
  5 15  1  0  0  0  0
  6 16  1  0  0  0  0
  7 17  1  0  0  0  0
  8 17  2  0  0  0  0
  9 10  2  0  0  0  0
  9 14  1  0  0  0  0
 10 30  1  0  0  0  0
 11 14  2  0  0  0  0
 11 30  1  0  0  0  0
 12 24  2  0  0  0  0
 12 25  1  0  0  0  0
 13 23  1  0  0  0  0
 14 21  1  0  0  0  0
 15 16  2  0  0  0  0
 15 24  1  0  0  0  0
 16 25  1  0  0  0  0
 17 26  1  0  0  0  0
 18 22  1  0  0  0  0
 18 26  1  0  0  0  0
 18 28  2  0  0  0  0
 19 23  1  0  0  0  0
 19 27  1  0  0  0  0
 19 29  2  0  0  0  0
 20 22  1  0  0  0  0
 21 23  1  6  0  0  0
 25 27  1  0  0  0  0
  1 31  1  0  0  0  0
  2 32  1  0  0  0  0
  3 33  1  0  0  0  0
  4 34  1  0  0  0  0
  5 35  1  0  0  0  0
  6 36  1  0  0  0  0
  7 37  1  0  0  0  0
  8 38  1  0  0  0  0
  9 39  1  0  0  0  0
 10 40  1  0  0  0  0
 11 41  1  0  0  0  0
 12 42  1  0  0  0  0
 20 43  1  0  0  0  0
 20 44  1  0  0  0  0
 20 45  1  0  0  0  0
 21 46  1  0  0  0  0
 21 47  1  0  0  0  0
 22 48  1  0  0  0  0
 22 49  1  0  0  0  0
 23 50  1  0  0  0  0
 26 51  1  0  0  0  0
 27 52  1  0  0  0  0
M  END
> <clash_score>
1.268247006209072

> <docking_score>
-6.689474105834961

> <overlap_score>
0.9125454425811768

$$$$
BENZO_200_1
  -OEChem-08222022173D

 52 55  0     1  0  0  0  0  0999 V2000
    3.9160    2.0630   19.5520 C   0  0  0  0  0  0  0  0  0  0  0  0
    4.2750    1.7050   20.8490 C   0  0  0  0  0  0  0  0  0  0  0  0
    9.0720   -1.1280   24.8640 C   0  0  0  0  0  0  0  0  0  0  0  0
    9.7200   -2.2600   22.8630 C   0  0  0  0  0  0  0  0  0  0  0  0
    4.6890    1.6810   18.4640 C   0  0  0  0  0  0  0  0  0  0  0  0
    5.4210    0.9600   21.0930 C   0  0  0  0  0  0  0  0  0  0  0  0
    8.9960   -2.3380   25.5320 C   0  0  0  0  0  0  0  0  0  0  0  0
    9.6730   -3.4710   23.5300 C   0  0  0  0  0  0  0  0  0  0  0  0
   12.3421    0.5158   23.4032 C   0  0  0  0  0  0  0  0  0  0  0  0
   13.6305    1.0023   23.3744 C   0  0  0  0  0  0  0  0  0  0  0  0
   11.9672    2.8035   23.5716 C   0  0  0  0  0  0  0  0  0  0  0  0
    7.6390   -0.2680   18.5410 C   0  0  0  0  0  0  0  0  0  0  0  0
    9.3350   -1.0880   23.5010 C   0  0  0  0  0  0  0  0  0  0  0  0
   11.3785    1.5592   23.5173 C   0  0  0  0  0  0  0  0  0  0  0  0
    5.8300    0.9190   18.6970 C   0  0  0  0  0  0  0  0  0  0  0  0
    6.1790    0.5730   19.9990 C   0  0  0  0  0  0  0  0  0  0  0  0
    9.3070   -3.5340   24.8780 C   0  0  0  0  0  0  0  0  0  0  0  0
    8.4228   -5.1089   26.6141 C   0  0  0  0  0  0  0  0  0  0  0  0
    9.0420    0.3700   21.5280 C   0  0  0  0  0  0  0  0  0  0  0  0
    8.4173   -7.5520   25.9532 C   0  0  0  0  0  0  0  0  0  0  0  0
    9.8870    1.3260   23.5730 C   0  0  0  0  0  0  0  0  0  0  0  0
    8.6900   -6.5411   27.0525 C   0  0  0  0  0  0  0  0  0  0  0  0
    9.4560    0.1560   22.8130 C   0  0  1  0  0  0  0  0  0  0  0  0
    6.7580    0.3810   17.8350 N   0  0  0  0  0  0  0  0  0  0  0  0
    7.3170   -0.1610   19.8550 N   0  0  0  0  0  0  0  0  0  0  0  0
    9.2546   -4.7423   25.5437 N   0  0  0  0  0  0  0  0  0  0  0  0
    8.1890   -0.7180   20.8700 N   0  0  0  0  0  0  0  0  0  0  0  0
    7.5768   -4.4085   27.1603 O   0  0  0  0  0  0  0  0  0  0  0  0
    9.2690    1.4140   20.9380 O   0  0  0  0  0  0  0  0  0  0  0  0
   13.6749    2.7106   23.4848 S   0  0  0  0  0  0  0  0  0  0  0  0
    3.0134    2.6521   19.3911 H   0  0  0  0  0  0  0  0  0  0  0  0
    3.6460    2.0127   21.6812 H   0  0  0  0  0  0  0  0  0  0  0  0
    8.9202   -0.1986   25.4206 H   0  0  0  0  0  0  0  0  0  0  0  0
   10.0631   -2.2319   21.8252 H   0  0  0  0  0  0  0  0  0  0  0  0
    4.4037    1.9731   17.4543 H   0  0  0  0  0  0  0  0  0  0  0  0
    5.7084    0.6923   22.1132 H   0  0  0  0  0  0  0  0  0  0  0  0
    8.6898   -2.3534   26.5810 H   0  0  0  0  0  0  0  0  0  0  0  0
    9.9254   -4.3899   22.9914 H   0  0  0  0  0  0  0  0  0  0  0  0
   12.1065   -0.5394   23.3454 H   0  0  0  0  0  0  0  0  0  0  0  0
   14.5479    0.4364   23.2946 H   0  0  0  0  0  0  0  0  0  0  0  0
   11.4802    3.7648   23.6592 H   0  0  0  0  0  0  0  0  0  0  0  0
    8.4862   -0.8060   18.1787 H   0  0  0  0  0  0  0  0  0  0  0  0
    7.3765   -7.4970   25.6177 H   0  0  0  0  0  0  0  0  0  0  0  0
    8.6071   -8.5677   26.3138 H   0  0  0  0  0  0  0  0  0  0  0  0
    9.0598   -7.3717   25.0851 H   0  0  0  0  0  0  0  0  0  0  0  0
    9.6026    1.2057   24.6276 H   0  0  0  0  0  0  0  0  0  0  0  0
    9.3596    2.2290   23.2378 H   0  0  0  0  0  0  0  0  0  0  0  0
    9.7367   -6.6182   27.3684 H   0  0  0  0  0  0  0  0  0  0  0  0
    8.0565   -6.7633   27.9189 H   0  0  0  0  0  0  0  0  0  0  0  0
    8.0683    0.4897   23.2524 H   0  0  0  0  0  0  0  0  0  0  0  0
    9.9034   -5.4689   25.2194 H   0  0  0  0  0  0  0  0  0  0  0  0
    8.2749   -1.5586   21.1247 H   0  0  0  0  0  0  0  0  0  0  0  0
  1  2  1  0  0  0  0
  1  5  2  0  0  0  0
  2  6  2  0  0  0  0
  3  7  2  0  0  0  0
  3 13  1  0  0  0  0
  4  8  1  0  0  0  0
  4 13  2  0  0  0  0
  5 15  1  0  0  0  0
  6 16  1  0  0  0  0
  7 17  1  0  0  0  0
  8 17  2  0  0  0  0
  9 10  2  0  0  0  0
  9 14  1  0  0  0  0
 10 30  1  0  0  0  0
 11 14  2  0  0  0  0
 11 30  1  0  0  0  0
 12 24  2  0  0  0  0
 12 25  1  0  0  0  0
 13 23  1  0  0  0  0
 14 21  1  0  0  0  0
 15 16  2  0  0  0  0
 15 24  1  0  0  0  0
 16 25  1  0  0  0  0
 17 26  1  0  0  0  0
 18 22  1  0  0  0  0
 18 26  1  0  0  0  0
 18 28  2  0  0  0  0
 19 23  1  0  0  0  0
 19 27  1  0  0  0  0
 19 29  2  0  0  0  0
 20 22  1  0  0  0  0
 21 23  1  1  0  0  0
 25 27  1  0  0  0  0
  1 31  1  0  0  0  0
  2 32  1  0  0  0  0
  3 33  1  0  0  0  0
  4 34  1  0  0  0  0
  5 35  1  0  0  0  0
  6 36  1  0  0  0  0
  7 37  1  0  0  0  0
  8 38  1  0  0  0  0
  9 39  1  0  0  0  0
 10 40  1  0  0  0  0
 11 41  1  0  0  0  0
 12 42  1  0  0  0  0
 20 43  1  0  0  0  0
 20 44  1  0  0  0  0
 20 45  1  0  0  0  0
 21 46  1  0  0  0  0
 21 47  1  0  0  0  0
 22 48  1  0  0  0  0
 22 49  1  0  0  0  0
 23 50  1  0  0  0  0
 26 51  1  0  0  0  0
 27 52  1  0  0  0  0
M  END
> <clash_score>
0.6426251740901496

> <docking_score>
-8.595817565917969

> <overlap_score>
0.9857841730117798

$$$$
BENZO_202_2
  -OEChem-08222022173D

 55 58  0     1  0  0  0  0  0999 V2000
    3.9160    2.0630   19.5520 C   0  0  0  0  0  0  0  0  0  0  0  0
    4.2750    1.7050   20.8490 C   0  0  0  0  0  0  0  0  0  0  0  0
   13.2836    2.5921   22.4338 C   0  0  0  0  0  0  0  0  0  0  0  0
   12.2999    1.8455   23.0821 C   0  0  0  0  0  0  0  0  0  0  0  0
    9.0720   -1.1280   24.8640 C   0  0  0  0  0  0  0  0  0  0  0  0
    9.7200   -2.2600   22.8630 C   0  0  0  0  0  0  0  0  0  0  0  0
    4.6890    1.6810   18.4640 C   0  0  0  0  0  0  0  0  0  0  0  0
    5.4210    0.9600   21.0930 C   0  0  0  0  0  0  0  0  0  0  0  0
    8.9960   -2.3380   25.5320 C   0  0  0  0  0  0  0  0  0  0  0  0
    9.6730   -3.4710   23.5300 C   0  0  0  0  0  0  0  0  0  0  0  0
   12.9195    3.6292   21.5749 C   0  0  0  0  0  0  0  0  0  0  0  0
   10.5877    3.1728   22.0126 C   0  0  0  0  0  0  0  0  0  0  0  0
    7.6390   -0.2680   18.5410 C   0  0  0  0  0  0  0  0  0  0  0  0
    9.3350   -1.0880   23.5010 C   0  0  0  0  0  0  0  0  0  0  0  0
   10.9519    2.1358   22.8715 C   0  0  0  0  0  0  0  0  0  0  0  0
    5.8300    0.9190   18.6970 C   0  0  0  0  0  0  0  0  0  0  0  0
    6.1790    0.5730   19.9990 C   0  0  0  0  0  0  0  0  0  0  0  0
    9.3070   -3.5340   24.8780 C   0  0  0  0  0  0  0  0  0  0  0  0
   11.5715    3.9195   21.3643 C   0  0  0  0  0  0  0  0  0  0  0  0
    8.9098   -4.9814   26.8838 C   0  0  0  0  0  0  0  0  0  0  0  0
    9.0420    0.3700   21.5280 C   0  0  0  0  0  0  0  0  0  0  0  0
   10.3590   -6.8979   27.6793 C   0  0  0  0  0  0  0  0  0  0  0  0
    9.8870    1.3260   23.5730 C   0  0  0  0  0  0  0  0  0  0  0  0
    8.9804   -6.4651   27.2134 C   0  0  0  0  0  0  0  0  0  0  0  0
    9.4560    0.1560   22.8130 C   0  0  2  0  0  0  0  0  0  0  0  0
    6.7580    0.3810   17.8350 N   0  0  0  0  0  0  0  0  0  0  0  0
    7.3170   -0.1610   19.8550 N   0  0  0  0  0  0  0  0  0  0  0  0
    9.2546   -4.7423   25.5437 N   0  0  0  0  0  0  0  0  0  0  0  0
    8.1890   -0.7180   20.8700 N   0  0  0  0  0  0  0  0  0  0  0  0
    8.5868   -4.1440   27.7198 O   0  0  0  0  0  0  0  0  0  0  0  0
    9.2690    1.4140   20.9380 O   0  0  0  0  0  0  0  0  0  0  0  0
   11.1228    5.1983   20.3036 Cl  0  0  0  0  0  0  0  0  0  0  0  0
    3.0134    2.6521   19.3911 H   0  0  0  0  0  0  0  0  0  0  0  0
    3.6460    2.0127   21.6812 H   0  0  0  0  0  0  0  0  0  0  0  0
   14.3332    2.3656   22.5979 H   0  0  0  0  0  0  0  0  0  0  0  0
   12.5928    1.0392   23.7495 H   0  0  0  0  0  0  0  0  0  0  0  0
    8.9202   -0.1986   25.4206 H   0  0  0  0  0  0  0  0  0  0  0  0
   10.0631   -2.2319   21.8252 H   0  0  0  0  0  0  0  0  0  0  0  0
    4.4037    1.9731   17.4543 H   0  0  0  0  0  0  0  0  0  0  0  0
    5.7084    0.6923   22.1132 H   0  0  0  0  0  0  0  0  0  0  0  0
    8.6898   -2.3534   26.5810 H   0  0  0  0  0  0  0  0  0  0  0  0
    9.9254   -4.3899   22.9914 H   0  0  0  0  0  0  0  0  0  0  0  0
   13.6970    4.2025   21.0761 H   0  0  0  0  0  0  0  0  0  0  0  0
    9.5353    3.3956   21.8521 H   0  0  0  0  0  0  0  0  0  0  0  0
    8.4862   -0.8060   18.1787 H   0  0  0  0  0  0  0  0  0  0  0  0
   11.1151   -6.6920   26.9145 H   0  0  0  0  0  0  0  0  0  0  0  0
   10.3701   -7.9715   27.8908 H   0  0  0  0  0  0  0  0  0  0  0  0
   10.6506   -6.3665   28.5912 H   0  0  0  0  0  0  0  0  0  0  0  0
   10.2899    1.0067   24.5442 H   0  0  0  0  0  0  0  0  0  0  0  0
    9.0336    1.9722   23.8180 H   0  0  0  0  0  0  0  0  0  0  0  0
    8.2451   -6.6824   27.9966 H   0  0  0  0  0  0  0  0  0  0  0  0
    8.7017   -7.0336   26.3187 H   0  0  0  0  0  0  0  0  0  0  0  0
   10.7792   -0.1072   22.4110 H   0  0  0  0  0  0  0  0  0  0  0  0
    9.4970   -5.5752   24.9945 H   0  0  0  0  0  0  0  0  0  0  0  0
    8.2749   -1.5586   21.1247 H   0  0  0  0  0  0  0  0  0  0  0  0
  1  2  1  0  0  0  0
  1  7  2  0  0  0  0
  2  8  2  0  0  0  0
  3  4  2  0  0  0  0
  3 11  1  0  0  0  0
  4 15  1  0  0  0  0
  5  9  2  0  0  0  0
  5 14  1  0  0  0  0
  6 10  1  0  0  0  0
  6 14  2  0  0  0  0
  7 16  1  0  0  0  0
  8 17  1  0  0  0  0
  9 18  1  0  0  0  0
 10 18  2  0  0  0  0
 11 19  2  0  0  0  0
 12 15  2  0  0  0  0
 12 19  1  0  0  0  0
 13 26  2  0  0  0  0
 13 27  1  0  0  0  0
 14 25  1  0  0  0  0
 15 23  1  0  0  0  0
 16 17  2  0  0  0  0
 16 26  1  0  0  0  0
 17 27  1  0  0  0  0
 18 28  1  0  0  0  0
 19 32  1  0  0  0  0
 20 24  1  0  0  0  0
 20 28  1  0  0  0  0
 20 30  2  0  0  0  0
 21 25  1  0  0  0  0
 21 29  1  0  0  0  0
 21 31  2  0  0  0  0
 22 24  1  0  0  0  0
 23 25  1  6  0  0  0
 27 29  1  0  0  0  0
  1 33  1  0  0  0  0
  2 34  1  0  0  0  0
  3 35  1  0  0  0  0
  4 36  1  0  0  0  0
  5 37  1  0  0  0  0
  6 38  1  0  0  0  0
  7 39  1  0  0  0  0
  8 40  1  0  0  0  0
  9 41  1  0  0  0  0
 10 42  1  0  0  0  0
 11 43  1  0  0  0  0
 12 44  1  0  0  0  0
 13 45  1  0  0  0  0
 22 46  1  0  0  0  0
 22 47  1  0  0  0  0
 22 48  1  0  0  0  0
 23 49  1  0  0  0  0
 23 50  1  0  0  0  0
 24 51  1  0  0  0  0
 24 52  1  0  0  0  0
 25 53  1  0  0  0  0
 28 54  1  0  0  0  0
 29 55  1  0  0  0  0
M  END
> <clash_score>
3.7861197131066797

> <docking_score>
-6.567294120788574

> <overlap_score>
0.9504812359809875

$$$$
BENZO_202_1
  -OEChem-08222022173D

 55 58  0     1  0  0  0  0  0999 V2000
    3.9160    2.0630   19.5520 C   0  0  0  0  0  0  0  0  0  0  0  0
    4.2750    1.7050   20.8490 C   0  0  0  0  0  0  0  0  0  0  0  0
   13.6250    0.6928   23.3186 C   0  0  0  0  0  0  0  0  0  0  0  0
   12.2478    0.4781   23.3713 C   0  0  0  0  0  0  0  0  0  0  0  0
    9.0720   -1.1280   24.8640 C   0  0  0  0  0  0  0  0  0  0  0  0
    9.7200   -2.2600   22.8630 C   0  0  0  0  0  0  0  0  0  0  0  0
    4.6890    1.6810   18.4640 C   0  0  0  0  0  0  0  0  0  0  0  0
    5.4210    0.9600   21.0930 C   0  0  0  0  0  0  0  0  0  0  0  0
    8.9960   -2.3380   25.5320 C   0  0  0  0  0  0  0  0  0  0  0  0
    9.6730   -3.4710   23.5300 C   0  0  0  0  0  0  0  0  0  0  0  0
   14.1329    1.9886   23.4121 C   0  0  0  0  0  0  0  0  0  0  0  0
   11.8864    2.8550   23.6107 C   0  0  0  0  0  0  0  0  0  0  0  0
    7.6390   -0.2680   18.5410 C   0  0  0  0  0  0  0  0  0  0  0  0
    9.3350   -1.0880   23.5010 C   0  0  0  0  0  0  0  0  0  0  0  0
   11.3785    1.5592   23.5173 C   0  0  0  0  0  0  0  0  0  0  0  0
    5.8300    0.9190   18.6970 C   0  0  0  0  0  0  0  0  0  0  0  0
    6.1790    0.5730   19.9990 C   0  0  0  0  0  0  0  0  0  0  0  0
    9.3070   -3.5340   24.8780 C   0  0  0  0  0  0  0  0  0  0  0  0
   13.2636    3.0696   23.5581 C   0  0  0  0  0  0  0  0  0  0  0  0
    8.4228   -5.1089   26.6141 C   0  0  0  0  0  0  0  0  0  0  0  0
    9.0420    0.3700   21.5280 C   0  0  0  0  0  0  0  0  0  0  0  0
    8.4173   -7.5520   25.9532 C   0  0  0  0  0  0  0  0  0  0  0  0
    9.8870    1.3260   23.5730 C   0  0  0  0  0  0  0  0  0  0  0  0
    8.6900   -6.5411   27.0525 C   0  0  0  0  0  0  0  0  0  0  0  0
    9.4560    0.1560   22.8130 C   0  0  1  0  0  0  0  0  0  0  0  0
    6.7580    0.3810   17.8350 N   0  0  0  0  0  0  0  0  0  0  0  0
    7.3170   -0.1610   19.8550 N   0  0  0  0  0  0  0  0  0  0  0  0
    9.2546   -4.7423   25.5437 N   0  0  0  0  0  0  0  0  0  0  0  0
    8.1890   -0.7180   20.8700 N   0  0  0  0  0  0  0  0  0  0  0  0
    7.5768   -4.4085   27.1603 O   0  0  0  0  0  0  0  0  0  0  0  0
    9.2690    1.4140   20.9380 O   0  0  0  0  0  0  0  0  0  0  0  0
   13.8909    4.6682   23.6722 Cl  0  0  0  0  0  0  0  0  0  0  0  0
    3.0134    2.6521   19.3911 H   0  0  0  0  0  0  0  0  0  0  0  0
    3.6460    2.0127   21.6812 H   0  0  0  0  0  0  0  0  0  0  0  0
   14.3015   -0.1492   23.2047 H   0  0  0  0  0  0  0  0  0  0  0  0
   11.8608   -0.5349   23.2975 H   0  0  0  0  0  0  0  0  0  0  0  0
    8.9202   -0.1986   25.4206 H   0  0  0  0  0  0  0  0  0  0  0  0
   10.0631   -2.2319   21.8252 H   0  0  0  0  0  0  0  0  0  0  0  0
    4.4037    1.9731   17.4543 H   0  0  0  0  0  0  0  0  0  0  0  0
    5.7084    0.6923   22.1132 H   0  0  0  0  0  0  0  0  0  0  0  0
    8.6898   -2.3534   26.5810 H   0  0  0  0  0  0  0  0  0  0  0  0
    9.9254   -4.3899   22.9914 H   0  0  0  0  0  0  0  0  0  0  0  0
   15.2086    2.1410   23.3692 H   0  0  0  0  0  0  0  0  0  0  0  0
   11.2045    3.6944   23.7250 H   0  0  0  0  0  0  0  0  0  0  0  0
    8.4862   -0.8060   18.1787 H   0  0  0  0  0  0  0  0  0  0  0  0
    7.3765   -7.4970   25.6177 H   0  0  0  0  0  0  0  0  0  0  0  0
    8.6071   -8.5677   26.3138 H   0  0  0  0  0  0  0  0  0  0  0  0
    9.0598   -7.3717   25.0851 H   0  0  0  0  0  0  0  0  0  0  0  0
    9.6026    1.2057   24.6276 H   0  0  0  0  0  0  0  0  0  0  0  0
    9.3596    2.2290   23.2378 H   0  0  0  0  0  0  0  0  0  0  0  0
    9.7367   -6.6182   27.3684 H   0  0  0  0  0  0  0  0  0  0  0  0
    8.0565   -6.7633   27.9189 H   0  0  0  0  0  0  0  0  0  0  0  0
    8.0683    0.4897   23.2524 H   0  0  0  0  0  0  0  0  0  0  0  0
    9.9034   -5.4689   25.2194 H   0  0  0  0  0  0  0  0  0  0  0  0
    8.2749   -1.5586   21.1247 H   0  0  0  0  0  0  0  0  0  0  0  0
  1  2  1  0  0  0  0
  1  7  2  0  0  0  0
  2  8  2  0  0  0  0
  3  4  2  0  0  0  0
  3 11  1  0  0  0  0
  4 15  1  0  0  0  0
  5  9  2  0  0  0  0
  5 14  1  0  0  0  0
  6 10  1  0  0  0  0
  6 14  2  0  0  0  0
  7 16  1  0  0  0  0
  8 17  1  0  0  0  0
  9 18  1  0  0  0  0
 10 18  2  0  0  0  0
 11 19  2  0  0  0  0
 12 15  2  0  0  0  0
 12 19  1  0  0  0  0
 13 26  2  0  0  0  0
 13 27  1  0  0  0  0
 14 25  1  0  0  0  0
 15 23  1  0  0  0  0
 16 17  2  0  0  0  0
 16 26  1  0  0  0  0
 17 27  1  0  0  0  0
 18 28  1  0  0  0  0
 19 32  1  0  0  0  0
 20 24  1  0  0  0  0
 20 28  1  0  0  0  0
 20 30  2  0  0  0  0
 21 25  1  0  0  0  0
 21 29  1  0  0  0  0
 21 31  2  0  0  0  0
 22 24  1  0  0  0  0
 23 25  1  1  0  0  0
 27 29  1  0  0  0  0
  1 33  1  0  0  0  0
  2 34  1  0  0  0  0
  3 35  1  0  0  0  0
  4 36  1  0  0  0  0
  5 37  1  0  0  0  0
  6 38  1  0  0  0  0
  7 39  1  0  0  0  0
  8 40  1  0  0  0  0
  9 41  1  0  0  0  0
 10 42  1  0  0  0  0
 11 43  1  0  0  0  0
 12 44  1  0  0  0  0
 13 45  1  0  0  0  0
 22 46  1  0  0  0  0
 22 47  1  0  0  0  0
 22 48  1  0  0  0  0
 23 49  1  0  0  0  0
 23 50  1  0  0  0  0
 24 51  1  0  0  0  0
 24 52  1  0  0  0  0
 25 53  1  0  0  0  0
 28 54  1  0  0  0  0
 29 55  1  0  0  0  0
M  END
> <clash_score>
0.6426251740901496

> <docking_score>
-7.790144920349121

> <overlap_score>
1.0033293962478638

$$$$
BENZO_205_1
  -OEChem-08222022173D

 60 64  0     1  0  0  0  0  0999 V2000
   12.9098    3.6168   21.5462 C   0  0  0  0  0  0  0  0  0  0  0  0
   13.2786    2.5833   22.4073 C   0  0  0  0  0  0  0  0  0  0  0  0
   11.5608    3.9073   21.3428 C   0  0  0  0  0  0  0  0  0  0  0  0
    3.9160    2.0630   19.5520 C   0  0  0  0  0  0  0  0  0  0  0  0
    4.2750    1.7050   20.8490 C   0  0  0  0  0  0  0  0  0  0  0  0
   12.2983    1.8401   23.0649 C   0  0  0  0  0  0  0  0  0  0  0  0
   10.5805    3.1641   22.0003 C   0  0  0  0  0  0  0  0  0  0  0  0
    9.0720   -1.1280   24.8640 C   0  0  0  0  0  0  0  0  0  0  0  0
    9.7200   -2.2600   22.8630 C   0  0  0  0  0  0  0  0  0  0  0  0
    4.6890    1.6810   18.4640 C   0  0  0  0  0  0  0  0  0  0  0  0
    5.4210    0.9600   21.0930 C   0  0  0  0  0  0  0  0  0  0  0  0
    8.9960   -2.3380   25.5320 C   0  0  0  0  0  0  0  0  0  0  0  0
    9.6730   -3.4710   23.5300 C   0  0  0  0  0  0  0  0  0  0  0  0
    7.6390   -0.2680   18.5410 C   0  0  0  0  0  0  0  0  0  0  0  0
   10.9492    2.1306   22.8614 C   0  0  0  0  0  0  0  0  0  0  0  0
    9.3350   -1.0880   23.5010 C   0  0  0  0  0  0  0  0  0  0  0  0
    5.8300    0.9190   18.6970 C   0  0  0  0  0  0  0  0  0  0  0  0
    6.1790    0.5730   19.9990 C   0  0  0  0  0  0  0  0  0  0  0  0
    9.3070   -3.5340   24.8780 C   0  0  0  0  0  0  0  0  0  0  0  0
    9.0420    0.3700   21.5280 C   0  0  0  0  0  0  0  0  0  0  0  0
    7.3637   -6.1365   27.1885 C   0  0  0  0  0  0  0  0  0  0  0  0
    8.1962   -4.9739   27.7340 C   0  0  0  0  0  0  0  0  0  0  0  0
    7.1943   -6.0395   25.6706 C   0  0  0  0  0  0  0  0  0  0  0  0
    9.5197   -4.8493   26.9795 C   0  0  0  0  0  0  0  0  0  0  0  0
    8.5443   -5.8838   24.9636 C   0  0  0  0  0  0  0  0  0  0  0  0
    9.8870    1.3260   23.5730 C   0  0  0  0  0  0  0  0  0  0  0  0
    9.4560    0.1560   22.8130 C   0  0  1  0  0  0  0  0  0  0  0  0
    6.7580    0.3810   17.8350 N   0  0  0  0  0  0  0  0  0  0  0  0
    7.3170   -0.1610   19.8550 N   0  0  0  0  0  0  0  0  0  0  0  0
    9.2563   -4.7385   25.5420 N   0  0  0  0  0  0  0  0  0  0  0  0
    8.1890   -0.7180   20.8700 N   0  0  0  0  0  0  0  0  0  0  0  0
    9.2690    1.4140   20.9380 O   0  0  0  0  0  0  0  0  0  0  0  0
   13.6733    4.1962   21.0354 H   0  0  0  0  0  0  0  0  0  0  0  0
   14.3290    2.3577   22.5667 H   0  0  0  0  0  0  0  0  0  0  0  0
   11.2734    4.7126   20.6733 H   0  0  0  0  0  0  0  0  0  0  0  0
    3.0134    2.6521   19.3911 H   0  0  0  0  0  0  0  0  0  0  0  0
    3.6460    2.0128   21.6812 H   0  0  0  0  0  0  0  0  0  0  0  0
   12.5949    1.0365   23.7338 H   0  0  0  0  0  0  0  0  0  0  0  0
    9.5319    3.3975   21.8356 H   0  0  0  0  0  0  0  0  0  0  0  0
    8.9214   -0.1986   25.4206 H   0  0  0  0  0  0  0  0  0  0  0  0
   10.0622   -2.2326   21.8251 H   0  0  0  0  0  0  0  0  0  0  0  0
    4.4037    1.9731   17.4543 H   0  0  0  0  0  0  0  0  0  0  0  0
    5.7084    0.6923   22.1132 H   0  0  0  0  0  0  0  0  0  0  0  0
    8.6882   -2.3542   26.5803 H   0  0  0  0  0  0  0  0  0  0  0  0
    9.9258   -4.3896   22.9914 H   0  0  0  0  0  0  0  0  0  0  0  0
    8.4862   -0.8060   18.1787 H   0  0  0  0  0  0  0  0  0  0  0  0
    7.8484   -7.0905   27.4464 H   0  0  0  0  0  0  0  0  0  0  0  0
    6.3761   -6.1442   27.6721 H   0  0  0  0  0  0  0  0  0  0  0  0
    7.6308   -4.0428   27.6404 H   0  0  0  0  0  0  0  0  0  0  0  0
    8.3917   -5.1316   28.7967 H   0  0  0  0  0  0  0  0  0  0  0  0
    6.6889   -6.9376   25.3006 H   0  0  0  0  0  0  0  0  0  0  0  0
    6.5516   -5.1860   25.4256 H   0  0  0  0  0  0  0  0  0  0  0  0
   10.0494   -3.9643   27.3413 H   0  0  0  0  0  0  0  0  0  0  0  0
   10.1432   -5.7258   27.1775 H   0  0  0  0  0  0  0  0  0  0  0  0
    9.1338   -6.7931   25.0863 H   0  0  0  0  0  0  0  0  0  0  0  0
    8.3657   -5.7262   23.8995 H   0  0  0  0  0  0  0  0  0  0  0  0
   10.2886    1.0256   24.5508 H   0  0  0  0  0  0  0  0  0  0  0  0
    9.0288    1.9709   23.8044 H   0  0  0  0  0  0  0  0  0  0  0  0
   10.7829   -0.1040   22.4083 H   0  0  0  0  0  0  0  0  0  0  0  0
    8.2487   -1.5564   21.0972 H   0  0  0  0  0  0  0  0  0  0  0  0
  1  2  1  0  0  0  0
  1  3  2  0  0  0  0
  2  6  2  0  0  0  0
  3  7  1  0  0  0  0
  4  5  1  0  0  0  0
  4 10  2  0  0  0  0
  5 11  2  0  0  0  0
  6 15  1  0  0  0  0
  7 15  2  0  0  0  0
  8 12  2  0  0  0  0
  8 16  1  0  0  0  0
  9 13  1  0  0  0  0
  9 16  2  0  0  0  0
 10 17  1  0  0  0  0
 11 18  1  0  0  0  0
 12 19  1  0  0  0  0
 13 19  2  0  0  0  0
 14 28  2  0  0  0  0
 14 29  1  0  0  0  0
 15 26  1  0  0  0  0
 16 27  1  0  0  0  0
 17 18  2  0  0  0  0
 17 28  1  0  0  0  0
 18 29  1  0  0  0  0
 19 30  1  0  0  0  0
 20 27  1  1  0  0  0
 20 31  1  0  0  0  0
 20 32  2  0  0  0  0
 21 22  1  0  0  0  0
 21 23  1  0  0  0  0
 22 24  1  0  0  0  0
 23 25  1  0  0  0  0
 24 30  1  0  0  0  0
 25 30  1  0  0  0  0
 26 27  1  0  0  0  0
 29 31  1  0  0  0  0
  1 33  1  0  0  0  0
  2 34  1  0  0  0  0
  3 35  1  0  0  0  0
  4 36  1  0  0  0  0
  5 37  1  0  0  0  0
  6 38  1  0  0  0  0
  7 39  1  0  0  0  0
  8 40  1  0  0  0  0
  9 41  1  0  0  0  0
 10 42  1  0  0  0  0
 11 43  1  0  0  0  0
 12 44  1  0  0  0  0
 13 45  1  0  0  0  0
 14 46  1  0  0  0  0
 21 47  1  0  0  0  0
 21 48  1  0  0  0  0
 22 49  1  0  0  0  0
 22 50  1  0  0  0  0
 23 51  1  0  0  0  0
 23 52  1  0  0  0  0
 24 53  1  0  0  0  0
 24 54  1  0  0  0  0
 25 55  1  0  0  0  0
 25 56  1  0  0  0  0
 26 57  1  0  0  0  0
 26 58  1  0  0  0  0
 27 59  1  0  0  0  0
 31 60  1  0  0  0  0
M  END
> <clash_score>
0.6270130811898733

> <docking_score>
-8.889884948730469

> <overlap_score>
0.9691499471664429

$$$$
BENZO_203_2
  -OEChem-08222022173D

 55 58  0     1  0  0  0  0  0999 V2000
    3.9160    2.0630   19.5520 C   0  0  0  0  0  0  0  0  0  0  0  0
    4.2750    1.7050   20.8490 C   0  0  0  0  0  0  0  0  0  0  0  0
    9.0720   -1.1280   24.8640 C   0  0  0  0  0  0  0  0  0  0  0  0
    9.7200   -2.2600   22.8630 C   0  0  0  0  0  0  0  0  0  0  0  0
    4.6890    1.6810   18.4640 C   0  0  0  0  0  0  0  0  0  0  0  0
    5.4210    0.9600   21.0930 C   0  0  0  0  0  0  0  0  0  0  0  0
    8.9960   -2.3380   25.5320 C   0  0  0  0  0  0  0  0  0  0  0  0
    9.6730   -3.4710   23.5300 C   0  0  0  0  0  0  0  0  0  0  0  0
   10.7727    3.2107   21.9803 C   0  0  0  0  0  0  0  0  0  0  0  0
   12.3145    1.9892   22.9630 C   0  0  0  0  0  0  0  0  0  0  0  0
    7.6390   -0.2680   18.5410 C   0  0  0  0  0  0  0  0  0  0  0  0
    9.3350   -1.0880   23.5010 C   0  0  0  0  0  0  0  0  0  0  0  0
   10.9519    2.1358   22.8715 C   0  0  0  0  0  0  0  0  0  0  0  0
    5.8300    0.9190   18.6970 C   0  0  0  0  0  0  0  0  0  0  0  0
    6.1790    0.5730   19.9990 C   0  0  0  0  0  0  0  0  0  0  0  0
    9.3070   -3.5340   24.8780 C   0  0  0  0  0  0  0  0  0  0  0  0
    8.4228   -5.1089   26.6141 C   0  0  0  0  0  0  0  0  0  0  0  0
    9.0420    0.3700   21.5280 C   0  0  0  0  0  0  0  0  0  0  0  0
    8.4173   -7.5520   25.9532 C   0  0  0  0  0  0  0  0  0  0  0  0
   14.2518    3.1890   21.9210 C   0  0  0  0  0  0  0  0  0  0  0  0
    9.8870    1.3260   23.5730 C   0  0  0  0  0  0  0  0  0  0  0  0
    8.6900   -6.5411   27.0525 C   0  0  0  0  0  0  0  0  0  0  0  0
    9.4560    0.1560   22.8130 C   0  0  2  0  0  0  0  0  0  0  0  0
   11.9290    3.7116   21.5374 N   0  0  0  0  0  0  0  0  0  0  0  0
    6.7580    0.3810   17.8350 N   0  0  0  0  0  0  0  0  0  0  0  0
   12.8478    2.9481   22.1529 N   0  0  0  0  0  0  0  0  0  0  0  0
    7.3170   -0.1610   19.8550 N   0  0  0  0  0  0  0  0  0  0  0  0
    9.2546   -4.7423   25.5437 N   0  0  0  0  0  0  0  0  0  0  0  0
    8.1890   -0.7180   20.8700 N   0  0  0  0  0  0  0  0  0  0  0  0
    7.5768   -4.4085   27.1603 O   0  0  0  0  0  0  0  0  0  0  0  0
    9.2690    1.4140   20.9380 O   0  0  0  0  0  0  0  0  0  0  0  0
    3.0134    2.6521   19.3911 H   0  0  0  0  0  0  0  0  0  0  0  0
    3.6460    2.0127   21.6812 H   0  0  0  0  0  0  0  0  0  0  0  0
    8.9202   -0.1986   25.4206 H   0  0  0  0  0  0  0  0  0  0  0  0
   10.0631   -2.2319   21.8252 H   0  0  0  0  0  0  0  0  0  0  0  0
    4.4037    1.9731   17.4543 H   0  0  0  0  0  0  0  0  0  0  0  0
    5.7084    0.6923   22.1132 H   0  0  0  0  0  0  0  0  0  0  0  0
    8.6898   -2.3534   26.5810 H   0  0  0  0  0  0  0  0  0  0  0  0
    9.9254   -4.3899   22.9914 H   0  0  0  0  0  0  0  0  0  0  0  0
    9.8488    3.6523   21.6343 H   0  0  0  0  0  0  0  0  0  0  0  0
   12.9346    1.3021   23.5227 H   0  0  0  0  0  0  0  0  0  0  0  0
    8.4862   -0.8060   18.1787 H   0  0  0  0  0  0  0  0  0  0  0  0
    7.3765   -7.4970   25.6177 H   0  0  0  0  0  0  0  0  0  0  0  0
    8.6071   -8.5677   26.3138 H   0  0  0  0  0  0  0  0  0  0  0  0
    9.0598   -7.3717   25.0851 H   0  0  0  0  0  0  0  0  0  0  0  0
   14.5621    2.5802   21.0677 H   0  0  0  0  0  0  0  0  0  0  0  0
   14.4091    4.2506   21.7105 H   0  0  0  0  0  0  0  0  0  0  0  0
   14.8183    2.9134   22.8149 H   0  0  0  0  0  0  0  0  0  0  0  0
   10.2899    1.0067   24.5442 H   0  0  0  0  0  0  0  0  0  0  0  0
    9.0336    1.9722   23.8180 H   0  0  0  0  0  0  0  0  0  0  0  0
    9.7367   -6.6182   27.3684 H   0  0  0  0  0  0  0  0  0  0  0  0
    8.0565   -6.7633   27.9189 H   0  0  0  0  0  0  0  0  0  0  0  0
   10.7792   -0.1072   22.4110 H   0  0  0  0  0  0  0  0  0  0  0  0
    9.9034   -5.4689   25.2194 H   0  0  0  0  0  0  0  0  0  0  0  0
    8.2749   -1.5586   21.1247 H   0  0  0  0  0  0  0  0  0  0  0  0
  1  2  1  0  0  0  0
  1  5  2  0  0  0  0
  2  6  2  0  0  0  0
  3  7  2  0  0  0  0
  3 12  1  0  0  0  0
  4  8  1  0  0  0  0
  4 12  2  0  0  0  0
  5 14  1  0  0  0  0
  6 15  1  0  0  0  0
  7 16  1  0  0  0  0
  8 16  2  0  0  0  0
  9 13  1  0  0  0  0
  9 24  2  0  0  0  0
 10 13  2  0  0  0  0
 10 26  1  0  0  0  0
 11 25  2  0  0  0  0
 11 27  1  0  0  0  0
 12 23  1  0  0  0  0
 13 21  1  0  0  0  0
 14 15  2  0  0  0  0
 14 25  1  0  0  0  0
 15 27  1  0  0  0  0
 16 28  1  0  0  0  0
 17 22  1  0  0  0  0
 17 28  1  0  0  0  0
 17 30  2  0  0  0  0
 18 23  1  0  0  0  0
 18 29  1  0  0  0  0
 18 31  2  0  0  0  0
 19 22  1  0  0  0  0
 20 26  1  0  0  0  0
 21 23  1  6  0  0  0
 24 26  1  0  0  0  0
 27 29  1  0  0  0  0
  1 32  1  0  0  0  0
  2 33  1  0  0  0  0
  3 34  1  0  0  0  0
  4 35  1  0  0  0  0
  5 36  1  0  0  0  0
  6 37  1  0  0  0  0
  7 38  1  0  0  0  0
  8 39  1  0  0  0  0
  9 40  1  0  0  0  0
 10 41  1  0  0  0  0
 11 42  1  0  0  0  0
 19 43  1  0  0  0  0
 19 44  1  0  0  0  0
 19 45  1  0  0  0  0
 20 46  1  0  0  0  0
 20 47  1  0  0  0  0
 20 48  1  0  0  0  0
 21 49  1  0  0  0  0
 21 50  1  0  0  0  0
 22 51  1  0  0  0  0
 22 52  1  0  0  0  0
 23 53  1  0  0  0  0
 28 54  1  0  0  0  0
 29 55  1  0  0  0  0
M  END
> <clash_score>
0.6426251740901496

> <docking_score>
-6.482772350311279

> <overlap_score>
0.956760048866272

$$$$
BENZO_204_1
  -OEChem-08222022173D

 57 61  0     1  0  0  0  0  0999 V2000
    3.9160    2.0630   19.5520 C   0  0  0  0  0  0  0  0  0  0  0  0
    4.2750    1.7050   20.8490 C   0  0  0  0  0  0  0  0  0  0  0  0
    9.0720   -1.1280   24.8640 C   0  0  0  0  0  0  0  0  0  0  0  0
    9.7200   -2.2600   22.8630 C   0  0  0  0  0  0  0  0  0  0  0  0
    4.6890    1.6810   18.4640 C   0  0  0  0  0  0  0  0  0  0  0  0
    5.4210    0.9600   21.0930 C   0  0  0  0  0  0  0  0  0  0  0  0
    8.9960   -2.3380   25.5320 C   0  0  0  0  0  0  0  0  0  0  0  0
    9.6730   -3.4710   23.5300 C   0  0  0  0  0  0  0  0  0  0  0  0
   12.4051    0.7237   23.6691 C   0  0  0  0  0  0  0  0  0  0  0  0
   13.4398    0.5873   24.5682 C   0  0  0  0  0  0  0  0  0  0  0  0
   11.3401    1.2429   25.6687 C   0  0  0  0  0  0  0  0  0  0  0  0
    7.6390   -0.2680   18.5410 C   0  0  0  0  0  0  0  0  0  0  0  0
    9.3350   -1.0880   23.5010 C   0  0  0  0  0  0  0  0  0  0  0  0
   11.1887    1.1036   24.3065 C   0  0  0  0  0  0  0  0  0  0  0  0
    5.8300    0.9190   18.6970 C   0  0  0  0  0  0  0  0  0  0  0  0
    6.1790    0.5730   19.9990 C   0  0  0  0  0  0  0  0  0  0  0  0
    9.3070   -3.5340   24.8780 C   0  0  0  0  0  0  0  0  0  0  0  0
    9.0420    0.3700   21.5280 C   0  0  0  0  0  0  0  0  0  0  0  0
    7.3637   -6.1365   27.1885 C   0  0  0  0  0  0  0  0  0  0  0  0
    8.1962   -4.9739   27.7340 C   0  0  0  0  0  0  0  0  0  0  0  0
    7.1943   -6.0395   25.6706 C   0  0  0  0  0  0  0  0  0  0  0  0
    9.5197   -4.8493   26.9795 C   0  0  0  0  0  0  0  0  0  0  0  0
    8.5443   -5.8838   24.9636 C   0  0  0  0  0  0  0  0  0  0  0  0
    9.8870    1.3260   23.5730 C   0  0  0  0  0  0  0  0  0  0  0  0
    9.4560    0.1560   22.8130 C   0  0  1  0  0  0  0  0  0  0  0  0
    6.7580    0.3810   17.8350 N   0  0  0  0  0  0  0  0  0  0  0  0
    7.3170   -0.1610   19.8550 N   0  0  0  0  0  0  0  0  0  0  0  0
    9.2563   -4.7385   25.5420 N   0  0  0  0  0  0  0  0  0  0  0  0
    8.1890   -0.7180   20.8700 N   0  0  0  0  0  0  0  0  0  0  0  0
    9.2690    1.4140   20.9380 O   0  0  0  0  0  0  0  0  0  0  0  0
   12.9435    0.9166   26.1737 S   0  0  0  0  0  0  0  0  0  0  0  0
    3.0134    2.6521   19.3911 H   0  0  0  0  0  0  0  0  0  0  0  0
    3.6460    2.0128   21.6812 H   0  0  0  0  0  0  0  0  0  0  0  0
    8.9214   -0.1986   25.4206 H   0  0  0  0  0  0  0  0  0  0  0  0
   10.0622   -2.2326   21.8251 H   0  0  0  0  0  0  0  0  0  0  0  0
    4.4037    1.9731   17.4543 H   0  0  0  0  0  0  0  0  0  0  0  0
    5.7084    0.6923   22.1132 H   0  0  0  0  0  0  0  0  0  0  0  0
    8.6882   -2.3542   26.5803 H   0  0  0  0  0  0  0  0  0  0  0  0
    9.9258   -4.3896   22.9914 H   0  0  0  0  0  0  0  0  0  0  0  0
   12.5196    0.5574   22.6054 H   0  0  0  0  0  0  0  0  0  0  0  0
   14.4632    0.3094   24.3592 H   0  0  0  0  0  0  0  0  0  0  0  0
   10.5884    1.5193   26.3951 H   0  0  0  0  0  0  0  0  0  0  0  0
    8.4862   -0.8060   18.1787 H   0  0  0  0  0  0  0  0  0  0  0  0
    7.8484   -7.0905   27.4464 H   0  0  0  0  0  0  0  0  0  0  0  0
    6.3761   -6.1442   27.6721 H   0  0  0  0  0  0  0  0  0  0  0  0
    7.6308   -4.0428   27.6404 H   0  0  0  0  0  0  0  0  0  0  0  0
    8.3917   -5.1316   28.7967 H   0  0  0  0  0  0  0  0  0  0  0  0
    6.6889   -6.9376   25.3006 H   0  0  0  0  0  0  0  0  0  0  0  0
    6.5516   -5.1860   25.4256 H   0  0  0  0  0  0  0  0  0  0  0  0
   10.0494   -3.9643   27.3413 H   0  0  0  0  0  0  0  0  0  0  0  0
   10.1432   -5.7258   27.1775 H   0  0  0  0  0  0  0  0  0  0  0  0
    9.1338   -6.7931   25.0863 H   0  0  0  0  0  0  0  0  0  0  0  0
    8.3657   -5.7262   23.8995 H   0  0  0  0  0  0  0  0  0  0  0  0
    9.1255    1.6083   24.3133 H   0  0  0  0  0  0  0  0  0  0  0  0
    9.9796    2.1992   22.9136 H   0  0  0  0  0  0  0  0  0  0  0  0
   10.7829   -0.1040   22.4083 H   0  0  0  0  0  0  0  0  0  0  0  0
    8.2487   -1.5564   21.0972 H   0  0  0  0  0  0  0  0  0  0  0  0
  1  2  1  0  0  0  0
  1  5  2  0  0  0  0
  2  6  2  0  0  0  0
  3  7  2  0  0  0  0
  3 13  1  0  0  0  0
  4  8  1  0  0  0  0
  4 13  2  0  0  0  0
  5 15  1  0  0  0  0
  6 16  1  0  0  0  0
  7 17  1  0  0  0  0
  8 17  2  0  0  0  0
  9 10  2  0  0  0  0
  9 14  1  0  0  0  0
 10 31  1  0  0  0  0
 11 14  2  0  0  0  0
 11 31  1  0  0  0  0
 12 26  2  0  0  0  0
 12 27  1  0  0  0  0
 13 25  1  0  0  0  0
 14 24  1  0  0  0  0
 15 16  2  0  0  0  0
 15 26  1  0  0  0  0
 16 27  1  0  0  0  0
 17 28  1  0  0  0  0
 18 25  1  1  0  0  0
 18 29  1  0  0  0  0
 18 30  2  0  0  0  0
 19 20  1  0  0  0  0
 19 21  1  0  0  0  0
 20 22  1  0  0  0  0
 21 23  1  0  0  0  0
 22 28  1  0  0  0  0
 23 28  1  0  0  0  0
 24 25  1  0  0  0  0
 27 29  1  0  0  0  0
  1 32  1  0  0  0  0
  2 33  1  0  0  0  0
  3 34  1  0  0  0  0
  4 35  1  0  0  0  0
  5 36  1  0  0  0  0
  6 37  1  0  0  0  0
  7 38  1  0  0  0  0
  8 39  1  0  0  0  0
  9 40  1  0  0  0  0
 10 41  1  0  0  0  0
 11 42  1  0  0  0  0
 12 43  1  0  0  0  0
 19 44  1  0  0  0  0
 19 45  1  0  0  0  0
 20 46  1  0  0  0  0
 20 47  1  0  0  0  0
 21 48  1  0  0  0  0
 21 49  1  0  0  0  0
 22 50  1  0  0  0  0
 22 51  1  0  0  0  0
 23 52  1  0  0  0  0
 23 53  1  0  0  0  0
 24 54  1  0  0  0  0
 24 55  1  0  0  0  0
 25 56  1  0  0  0  0
 29 57  1  0  0  0  0
M  END
> <clash_score>
0.6210418892547654

> <docking_score>
-7.451465606689453

> <overlap_score>
0.9244956374168396

$$$$
BENZO_205_2
  -OEChem-08222022173D

 60 64  0     1  0  0  0  0  0999 V2000
   14.1377    1.9562   23.4064 C   0  0  0  0  0  0  0  0  0  0  0  0
   13.5892    1.1645   24.4154 C   0  0  0  0  0  0  0  0  0  0  0  0
   13.3074    2.5435   22.4518 C   0  0  0  0  0  0  0  0  0  0  0  0
    3.9160    2.0630   19.5520 C   0  0  0  0  0  0  0  0  0  0  0  0
    4.2750    1.7050   20.8490 C   0  0  0  0  0  0  0  0  0  0  0  0
   12.2105    0.9600   24.4697 C   0  0  0  0  0  0  0  0  0  0  0  0
   11.9286    2.3390   22.5060 C   0  0  0  0  0  0  0  0  0  0  0  0
    9.0720   -1.1280   24.8640 C   0  0  0  0  0  0  0  0  0  0  0  0
    9.7200   -2.2600   22.8630 C   0  0  0  0  0  0  0  0  0  0  0  0
    4.6890    1.6810   18.4640 C   0  0  0  0  0  0  0  0  0  0  0  0
    5.4210    0.9600   21.0930 C   0  0  0  0  0  0  0  0  0  0  0  0
    8.9960   -2.3380   25.5320 C   0  0  0  0  0  0  0  0  0  0  0  0
    9.6730   -3.4710   23.5300 C   0  0  0  0  0  0  0  0  0  0  0  0
    7.6390   -0.2680   18.5410 C   0  0  0  0  0  0  0  0  0  0  0  0
   11.3802    1.5472   23.5150 C   0  0  0  0  0  0  0  0  0  0  0  0
    9.3350   -1.0880   23.5010 C   0  0  0  0  0  0  0  0  0  0  0  0
    5.8300    0.9190   18.6970 C   0  0  0  0  0  0  0  0  0  0  0  0
    6.1790    0.5730   19.9990 C   0  0  0  0  0  0  0  0  0  0  0  0
    9.3070   -3.5340   24.8780 C   0  0  0  0  0  0  0  0  0  0  0  0
    9.0420    0.3700   21.5280 C   0  0  0  0  0  0  0  0  0  0  0  0
    7.2237   -6.6201   26.3005 C   0  0  0  0  0  0  0  0  0  0  0  0
    7.4295   -5.3104   27.0650 C   0  0  0  0  0  0  0  0  0  0  0  0
    7.7218   -6.5099   24.8576 C   0  0  0  0  0  0  0  0  0  0  0  0
    8.8783   -4.8360   26.9547 C   0  0  0  0  0  0  0  0  0  0  0  0
    9.1653   -6.0007   24.7991 C   0  0  0  0  0  0  0  0  0  0  0  0
    9.8870    1.3260   23.5730 C   0  0  0  0  0  0  0  0  0  0  0  0
    9.4560    0.1560   22.8130 C   0  0  2  0  0  0  0  0  0  0  0  0
    6.7580    0.3810   17.8350 N   0  0  0  0  0  0  0  0  0  0  0  0
    7.3170   -0.1610   19.8550 N   0  0  0  0  0  0  0  0  0  0  0  0
    9.2563   -4.7385   25.5420 N   0  0  0  0  0  0  0  0  0  0  0  0
    8.1890   -0.7180   20.8700 N   0  0  0  0  0  0  0  0  0  0  0  0
    9.2690    1.4140   20.9380 O   0  0  0  0  0  0  0  0  0  0  0  0
   15.2111    2.1164   23.3651 H   0  0  0  0  0  0  0  0  0  0  0  0
   14.2355    0.7080   25.1594 H   0  0  0  0  0  0  0  0  0  0  0  0
   13.7339    3.1609   21.6667 H   0  0  0  0  0  0  0  0  0  0  0  0
    3.0134    2.6521   19.3911 H   0  0  0  0  0  0  0  0  0  0  0  0
    3.6460    2.0127   21.6812 H   0  0  0  0  0  0  0  0  0  0  0  0
   11.7920    0.3414   25.2593 H   0  0  0  0  0  0  0  0  0  0  0  0
   11.2895    2.8005   21.7579 H   0  0  0  0  0  0  0  0  0  0  0  0
    8.9214   -0.1986   25.4206 H   0  0  0  0  0  0  0  0  0  0  0  0
   10.0622   -2.2326   21.8251 H   0  0  0  0  0  0  0  0  0  0  0  0
    4.4037    1.9731   17.4543 H   0  0  0  0  0  0  0  0  0  0  0  0
    5.7084    0.6923   22.1132 H   0  0  0  0  0  0  0  0  0  0  0  0
    8.6882   -2.3542   26.5803 H   0  0  0  0  0  0  0  0  0  0  0  0
    9.9258   -4.3896   22.9914 H   0  0  0  0  0  0  0  0  0  0  0  0
    8.4862   -0.8060   18.1787 H   0  0  0  0  0  0  0  0  0  0  0  0
    7.7561   -7.4351   26.8143 H   0  0  0  0  0  0  0  0  0  0  0  0
    6.1574   -6.8886   26.3051 H   0  0  0  0  0  0  0  0  0  0  0  0
    6.7603   -4.5438   26.6651 H   0  0  0  0  0  0  0  0  0  0  0  0
    7.1686   -5.4557   28.1153 H   0  0  0  0  0  0  0  0  0  0  0  0
    7.6596   -7.4899   24.3731 H   0  0  0  0  0  0  0  0  0  0  0  0
    7.0707   -5.8316   24.2940 H   0  0  0  0  0  0  0  0  0  0  0  0
    8.9682   -3.8625   27.4435 H   0  0  0  0  0  0  0  0  0  0  0  0
    9.5389   -5.5394   27.4694 H   0  0  0  0  0  0  0  0  0  0  0  0
    9.8375   -6.7414   25.2339 H   0  0  0  0  0  0  0  0  0  0  0  0
    9.4414   -5.8513   23.7549 H   0  0  0  0  0  0  0  0  0  0  0  0
    9.6004    1.2281   24.6293 H   0  0  0  0  0  0  0  0  0  0  0  0
    9.3666    2.2262   23.2198 H   0  0  0  0  0  0  0  0  0  0  0  0
    8.0666    0.4961   23.2504 H   0  0  0  0  0  0  0  0  0  0  0  0
    8.2487   -1.5564   21.0972 H   0  0  0  0  0  0  0  0  0  0  0  0
  1  2  1  0  0  0  0
  1  3  2  0  0  0  0
  2  6  2  0  0  0  0
  3  7  1  0  0  0  0
  4  5  1  0  0  0  0
  4 10  2  0  0  0  0
  5 11  2  0  0  0  0
  6 15  1  0  0  0  0
  7 15  2  0  0  0  0
  8 12  2  0  0  0  0
  8 16  1  0  0  0  0
  9 13  1  0  0  0  0
  9 16  2  0  0  0  0
 10 17  1  0  0  0  0
 11 18  1  0  0  0  0
 12 19  1  0  0  0  0
 13 19  2  0  0  0  0
 14 28  2  0  0  0  0
 14 29  1  0  0  0  0
 15 26  1  0  0  0  0
 16 27  1  0  0  0  0
 17 18  2  0  0  0  0
 17 28  1  0  0  0  0
 18 29  1  0  0  0  0
 19 30  1  0  0  0  0
 20 27  1  6  0  0  0
 20 31  1  0  0  0  0
 20 32  2  0  0  0  0
 21 22  1  0  0  0  0
 21 23  1  0  0  0  0
 22 24  1  0  0  0  0
 23 25  1  0  0  0  0
 24 30  1  0  0  0  0
 25 30  1  0  0  0  0
 26 27  1  0  0  0  0
 29 31  1  0  0  0  0
  1 33  1  0  0  0  0
  2 34  1  0  0  0  0
  3 35  1  0  0  0  0
  4 36  1  0  0  0  0
  5 37  1  0  0  0  0
  6 38  1  0  0  0  0
  7 39  1  0  0  0  0
  8 40  1  0  0  0  0
  9 41  1  0  0  0  0
 10 42  1  0  0  0  0
 11 43  1  0  0  0  0
 12 44  1  0  0  0  0
 13 45  1  0  0  0  0
 14 46  1  0  0  0  0
 21 47  1  0  0  0  0
 21 48  1  0  0  0  0
 22 49  1  0  0  0  0
 22 50  1  0  0  0  0
 23 51  1  0  0  0  0
 23 52  1  0  0  0  0
 24 53  1  0  0  0  0
 24 54  1  0  0  0  0
 25 55  1  0  0  0  0
 25 56  1  0  0  0  0
 26 57  1  0  0  0  0
 26 58  1  0  0  0  0
 27 59  1  0  0  0  0
 31 60  1  0  0  0  0
M  END
> <clash_score>
0

> <docking_score>
-8.890655517578125

> <overlap_score>
1.0122568607330322

$$$$
BENZO_204_2
  -OEChem-08222022173D

 57 61  0     1  0  0  0  0  0999 V2000
    3.9160    2.0630   19.5520 C   0  0  0  0  0  0  0  0  0  0  0  0
    4.2750    1.7050   20.8490 C   0  0  0  0  0  0  0  0  0  0  0  0
    9.0720   -1.1280   24.8640 C   0  0  0  0  0  0  0  0  0  0  0  0
    9.7200   -2.2600   22.8630 C   0  0  0  0  0  0  0  0  0  0  0  0
    4.6890    1.6810   18.4640 C   0  0  0  0  0  0  0  0  0  0  0  0
    5.4210    0.9600   21.0930 C   0  0  0  0  0  0  0  0  0  0  0  0
    8.9960   -2.3380   25.5320 C   0  0  0  0  0  0  0  0  0  0  0  0
    9.6730   -3.4710   23.5300 C   0  0  0  0  0  0  0  0  0  0  0  0
   12.3363    0.4949   23.4224 C   0  0  0  0  0  0  0  0  0  0  0  0
   13.6283    0.9714   23.3861 C   0  0  0  0  0  0  0  0  0  0  0  0
   11.9779    2.7881   23.5461 C   0  0  0  0  0  0  0  0  0  0  0  0
    7.6390   -0.2680   18.5410 C   0  0  0  0  0  0  0  0  0  0  0  0
    9.3350   -1.0880   23.5010 C   0  0  0  0  0  0  0  0  0  0  0  0
   11.3802    1.5472   23.5150 C   0  0  0  0  0  0  0  0  0  0  0  0
    5.8300    0.9190   18.6970 C   0  0  0  0  0  0  0  0  0  0  0  0
    6.1790    0.5730   19.9990 C   0  0  0  0  0  0  0  0  0  0  0  0
    9.3070   -3.5340   24.8780 C   0  0  0  0  0  0  0  0  0  0  0  0
    9.0420    0.3700   21.5280 C   0  0  0  0  0  0  0  0  0  0  0  0
    7.3637   -6.1365   27.1885 C   0  0  0  0  0  0  0  0  0  0  0  0
    8.1962   -4.9739   27.7340 C   0  0  0  0  0  0  0  0  0  0  0  0
    7.1943   -6.0395   25.6706 C   0  0  0  0  0  0  0  0  0  0  0  0
    9.5197   -4.8493   26.9795 C   0  0  0  0  0  0  0  0  0  0  0  0
    8.5443   -5.8838   24.9636 C   0  0  0  0  0  0  0  0  0  0  0  0
    9.8870    1.3260   23.5730 C   0  0  0  0  0  0  0  0  0  0  0  0
    9.4560    0.1560   22.8130 C   0  0  2  0  0  0  0  0  0  0  0  0
    6.7580    0.3810   17.8350 N   0  0  0  0  0  0  0  0  0  0  0  0
    7.3170   -0.1610   19.8550 N   0  0  0  0  0  0  0  0  0  0  0  0
    9.2563   -4.7385   25.5420 N   0  0  0  0  0  0  0  0  0  0  0  0
    8.1890   -0.7180   20.8700 N   0  0  0  0  0  0  0  0  0  0  0  0
    9.2690    1.4140   20.9380 O   0  0  0  0  0  0  0  0  0  0  0  0
   13.6850    2.6811   23.4636 S   0  0  0  0  0  0  0  0  0  0  0  0
    3.0134    2.6521   19.3911 H   0  0  0  0  0  0  0  0  0  0  0  0
    3.6460    2.0127   21.6812 H   0  0  0  0  0  0  0  0  0  0  0  0
    8.9214   -0.1986   25.4206 H   0  0  0  0  0  0  0  0  0  0  0  0
   10.0622   -2.2326   21.8251 H   0  0  0  0  0  0  0  0  0  0  0  0
    4.4037    1.9731   17.4543 H   0  0  0  0  0  0  0  0  0  0  0  0
    5.7084    0.6923   22.1132 H   0  0  0  0  0  0  0  0  0  0  0  0
    8.6882   -2.3542   26.5803 H   0  0  0  0  0  0  0  0  0  0  0  0
    9.9258   -4.3896   22.9914 H   0  0  0  0  0  0  0  0  0  0  0  0
   12.0932   -0.5595   23.3845 H   0  0  0  0  0  0  0  0  0  0  0  0
   14.5416    0.3974   23.3185 H   0  0  0  0  0  0  0  0  0  0  0  0
   11.4978    3.7544   23.6145 H   0  0  0  0  0  0  0  0  0  0  0  0
    8.4862   -0.8060   18.1787 H   0  0  0  0  0  0  0  0  0  0  0  0
    7.8484   -7.0905   27.4464 H   0  0  0  0  0  0  0  0  0  0  0  0
    6.3761   -6.1442   27.6721 H   0  0  0  0  0  0  0  0  0  0  0  0
    7.6308   -4.0428   27.6404 H   0  0  0  0  0  0  0  0  0  0  0  0
    8.3917   -5.1316   28.7967 H   0  0  0  0  0  0  0  0  0  0  0  0
    6.6889   -6.9376   25.3006 H   0  0  0  0  0  0  0  0  0  0  0  0
    6.5516   -5.1860   25.4256 H   0  0  0  0  0  0  0  0  0  0  0  0
   10.0494   -3.9643   27.3413 H   0  0  0  0  0  0  0  0  0  0  0  0
   10.1432   -5.7258   27.1775 H   0  0  0  0  0  0  0  0  0  0  0  0
    9.1338   -6.7931   25.0863 H   0  0  0  0  0  0  0  0  0  0  0  0
    8.3657   -5.7262   23.8995 H   0  0  0  0  0  0  0  0  0  0  0  0
    9.6004    1.2281   24.6293 H   0  0  0  0  0  0  0  0  0  0  0  0
    9.3666    2.2262   23.2198 H   0  0  0  0  0  0  0  0  0  0  0  0
    8.0666    0.4961   23.2504 H   0  0  0  0  0  0  0  0  0  0  0  0
    8.2487   -1.5564   21.0972 H   0  0  0  0  0  0  0  0  0  0  0  0
  1  2  1  0  0  0  0
  1  5  2  0  0  0  0
  2  6  2  0  0  0  0
  3  7  2  0  0  0  0
  3 13  1  0  0  0  0
  4  8  1  0  0  0  0
  4 13  2  0  0  0  0
  5 15  1  0  0  0  0
  6 16  1  0  0  0  0
  7 17  1  0  0  0  0
  8 17  2  0  0  0  0
  9 10  2  0  0  0  0
  9 14  1  0  0  0  0
 10 31  1  0  0  0  0
 11 14  2  0  0  0  0
 11 31  1  0  0  0  0
 12 26  2  0  0  0  0
 12 27  1  0  0  0  0
 13 25  1  0  0  0  0
 14 24  1  0  0  0  0
 15 16  2  0  0  0  0
 15 26  1  0  0  0  0
 16 27  1  0  0  0  0
 17 28  1  0  0  0  0
 18 25  1  6  0  0  0
 18 29  1  0  0  0  0
 18 30  2  0  0  0  0
 19 20  1  0  0  0  0
 19 21  1  0  0  0  0
 20 22  1  0  0  0  0
 21 23  1  0  0  0  0
 22 28  1  0  0  0  0
 23 28  1  0  0  0  0
 24 25  1  0  0  0  0
 27 29  1  0  0  0  0
  1 32  1  0  0  0  0
  2 33  1  0  0  0  0
  3 34  1  0  0  0  0
  4 35  1  0  0  0  0
  5 36  1  0  0  0  0
  6 37  1  0  0  0  0
  7 38  1  0  0  0  0
  8 39  1  0  0  0  0
  9 40  1  0  0  0  0
 10 41  1  0  0  0  0
 11 42  1  0  0  0  0
 12 43  1  0  0  0  0
 19 44  1  0  0  0  0
 19 45  1  0  0  0  0
 20 46  1  0  0  0  0
 20 47  1  0  0  0  0
 21 48  1  0  0  0  0
 21 49  1  0  0  0  0
 22 50  1  0  0  0  0
 22 51  1  0  0  0  0
 23 52  1  0  0  0  0
 23 53  1  0  0  0  0
 24 54  1  0  0  0  0
 24 55  1  0  0  0  0
 25 56  1  0  0  0  0
 29 57  1  0  0  0  0
M  END
> <clash_score>
0

> <docking_score>
-9.360811233520508

> <overlap_score>
0.997901976108551

$$$$
BENZO_203_1
  -OEChem-08222022173D

 55 58  0     1  0  0  0  0  0999 V2000
    3.9160    2.0630   19.5520 C   0  0  0  0  0  0  0  0  0  0  0  0
    4.2750    1.7050   20.8490 C   0  0  0  0  0  0  0  0  0  0  0  0
    9.0720   -1.1280   24.8640 C   0  0  0  0  0  0  0  0  0  0  0  0
    9.7200   -2.2600   22.8630 C   0  0  0  0  0  0  0  0  0  0  0  0
    4.6890    1.6810   18.4640 C   0  0  0  0  0  0  0  0  0  0  0  0
    5.4210    0.9600   21.0930 C   0  0  0  0  0  0  0  0  0  0  0  0
    8.9960   -2.3380   25.5320 C   0  0  0  0  0  0  0  0  0  0  0  0
    9.6730   -3.4710   23.5300 C   0  0  0  0  0  0  0  0  0  0  0  0
   12.0646    2.7858   23.5979 C   0  0  0  0  0  0  0  0  0  0  0  0
   12.3704    0.6193   23.3790 C   0  0  0  0  0  0  0  0  0  0  0  0
    7.6390   -0.2680   18.5410 C   0  0  0  0  0  0  0  0  0  0  0  0
    9.3350   -1.0880   23.5010 C   0  0  0  0  0  0  0  0  0  0  0  0
   11.3785    1.5592   23.5173 C   0  0  0  0  0  0  0  0  0  0  0  0
    5.8300    0.9190   18.6970 C   0  0  0  0  0  0  0  0  0  0  0  0
    6.1790    0.5730   19.9990 C   0  0  0  0  0  0  0  0  0  0  0  0
    9.3070   -3.5340   24.8780 C   0  0  0  0  0  0  0  0  0  0  0  0
    8.4228   -5.1089   26.6141 C   0  0  0  0  0  0  0  0  0  0  0  0
    9.0420    0.3700   21.5280 C   0  0  0  0  0  0  0  0  0  0  0  0
    8.4173   -7.5520   25.9532 C   0  0  0  0  0  0  0  0  0  0  0  0
   14.8700    0.7541   23.2663 C   0  0  0  0  0  0  0  0  0  0  0  0
    9.8870    1.3260   23.5730 C   0  0  0  0  0  0  0  0  0  0  0  0
    8.6900   -6.5411   27.0525 C   0  0  0  0  0  0  0  0  0  0  0  0
    9.4560    0.1560   22.8130 C   0  0  1  0  0  0  0  0  0  0  0  0
   13.3900    2.6414   23.5177 N   0  0  0  0  0  0  0  0  0  0  0  0
    6.7580    0.3810   17.8350 N   0  0  0  0  0  0  0  0  0  0  0  0
   13.5447    1.3130   23.3854 N   0  0  0  0  0  0  0  0  0  0  0  0
    7.3170   -0.1610   19.8550 N   0  0  0  0  0  0  0  0  0  0  0  0
    9.2546   -4.7423   25.5437 N   0  0  0  0  0  0  0  0  0  0  0  0
    8.1890   -0.7180   20.8700 N   0  0  0  0  0  0  0  0  0  0  0  0
    7.5768   -4.4085   27.1603 O   0  0  0  0  0  0  0  0  0  0  0  0
    9.2690    1.4140   20.9380 O   0  0  0  0  0  0  0  0  0  0  0  0
    3.0134    2.6521   19.3911 H   0  0  0  0  0  0  0  0  0  0  0  0
    3.6460    2.0127   21.6812 H   0  0  0  0  0  0  0  0  0  0  0  0
    8.9202   -0.1986   25.4206 H   0  0  0  0  0  0  0  0  0  0  0  0
   10.0631   -2.2319   21.8252 H   0  0  0  0  0  0  0  0  0  0  0  0
    4.4037    1.9731   17.4543 H   0  0  0  0  0  0  0  0  0  0  0  0
    5.7084    0.6923   22.1132 H   0  0  0  0  0  0  0  0  0  0  0  0
    8.6898   -2.3534   26.5810 H   0  0  0  0  0  0  0  0  0  0  0  0
    9.9254   -4.3899   22.9914 H   0  0  0  0  0  0  0  0  0  0  0  0
   11.6563    3.7799   23.7126 H   0  0  0  0  0  0  0  0  0  0  0  0
   12.3415   -0.4574   23.2805 H   0  0  0  0  0  0  0  0  0  0  0  0
    8.4862   -0.8060   18.1787 H   0  0  0  0  0  0  0  0  0  0  0  0
    7.3765   -7.4970   25.6177 H   0  0  0  0  0  0  0  0  0  0  0  0
    8.6071   -8.5677   26.3138 H   0  0  0  0  0  0  0  0  0  0  0  0
    9.0598   -7.3717   25.0851 H   0  0  0  0  0  0  0  0  0  0  0  0
   15.1278    0.7207   22.2045 H   0  0  0  0  0  0  0  0  0  0  0  0
   15.5801    1.3811   23.8126 H   0  0  0  0  0  0  0  0  0  0  0  0
   14.8776   -0.2521   23.6945 H   0  0  0  0  0  0  0  0  0  0  0  0
    9.6026    1.2057   24.6276 H   0  0  0  0  0  0  0  0  0  0  0  0
    9.3596    2.2290   23.2378 H   0  0  0  0  0  0  0  0  0  0  0  0
    9.7367   -6.6182   27.3684 H   0  0  0  0  0  0  0  0  0  0  0  0
    8.0565   -6.7633   27.9189 H   0  0  0  0  0  0  0  0  0  0  0  0
    8.0683    0.4897   23.2524 H   0  0  0  0  0  0  0  0  0  0  0  0
    9.9034   -5.4689   25.2194 H   0  0  0  0  0  0  0  0  0  0  0  0
    8.2749   -1.5586   21.1247 H   0  0  0  0  0  0  0  0  0  0  0  0
  1  2  1  0  0  0  0
  1  5  2  0  0  0  0
  2  6  2  0  0  0  0
  3  7  2  0  0  0  0
  3 12  1  0  0  0  0
  4  8  1  0  0  0  0
  4 12  2  0  0  0  0
  5 14  1  0  0  0  0
  6 15  1  0  0  0  0
  7 16  1  0  0  0  0
  8 16  2  0  0  0  0
  9 13  1  0  0  0  0
  9 24  2  0  0  0  0
 10 13  2  0  0  0  0
 10 26  1  0  0  0  0
 11 25  2  0  0  0  0
 11 27  1  0  0  0  0
 12 23  1  0  0  0  0
 13 21  1  0  0  0  0
 14 15  2  0  0  0  0
 14 25  1  0  0  0  0
 15 27  1  0  0  0  0
 16 28  1  0  0  0  0
 17 22  1  0  0  0  0
 17 28  1  0  0  0  0
 17 30  2  0  0  0  0
 18 23  1  0  0  0  0
 18 29  1  0  0  0  0
 18 31  2  0  0  0  0
 19 22  1  0  0  0  0
 20 26  1  0  0  0  0
 21 23  1  1  0  0  0
 24 26  1  0  0  0  0
 27 29  1  0  0  0  0
  1 32  1  0  0  0  0
  2 33  1  0  0  0  0
  3 34  1  0  0  0  0
  4 35  1  0  0  0  0
  5 36  1  0  0  0  0
  6 37  1  0  0  0  0
  7 38  1  0  0  0  0
  8 39  1  0  0  0  0
  9 40  1  0  0  0  0
 10 41  1  0  0  0  0
 11 42  1  0  0  0  0
 19 43  1  0  0  0  0
 19 44  1  0  0  0  0
 19 45  1  0  0  0  0
 20 46  1  0  0  0  0
 20 47  1  0  0  0  0
 20 48  1  0  0  0  0
 21 49  1  0  0  0  0
 21 50  1  0  0  0  0
 22 51  1  0  0  0  0
 22 52  1  0  0  0  0
 23 53  1  0  0  0  0
 28 54  1  0  0  0  0
 29 55  1  0  0  0  0
M  END
> <clash_score>
0.6426251740901496

> <docking_score>
-8.160889625549316

> <overlap_score>
1.002410888671875

$$$$
BENZO_209_1
  -OEChem-08222022183D

 48 51  0     1  0  0  0  0  0999 V2000
   14.1331    1.9885   23.4148 C   0  0  0  0  0  0  0  0  0  0  0  0
   13.2637    3.0696   23.5597 C   0  0  0  0  0  0  0  0  0  0  0  0
   13.6252    0.6927   23.3211 C   0  0  0  0  0  0  0  0  0  0  0  0
    3.9160    2.0630   19.5520 C   0  0  0  0  0  0  0  0  0  0  0  0
    4.2750    1.7050   20.8490 C   0  0  0  0  0  0  0  0  0  0  0  0
   11.8864    2.8549   23.6110 C   0  0  0  0  0  0  0  0  0  0  0  0
   12.2479    0.4781   23.3723 C   0  0  0  0  0  0  0  0  0  0  0  0
    8.9960   -2.3380   25.5320 C   0  0  0  0  0  0  0  0  0  0  0  0
    9.6730   -3.4710   23.5300 C   0  0  0  0  0  0  0  0  0  0  0  0
    9.0720   -1.1280   24.8640 C   0  0  0  0  0  0  0  0  0  0  0  0
    9.7200   -2.2600   22.8630 C   0  0  0  0  0  0  0  0  0  0  0  0
    4.6890    1.6810   18.4640 C   0  0  0  0  0  0  0  0  0  0  0  0
    5.4210    0.9600   21.0930 C   0  0  0  0  0  0  0  0  0  0  0  0
    7.6390   -0.2680   18.5410 C   0  0  0  0  0  0  0  0  0  0  0  0
    9.3070   -3.5340   24.8780 C   0  0  0  0  0  0  0  0  0  0  0  0
   11.3785    1.5592   23.5173 C   0  0  0  0  0  0  0  0  0  0  0  0
    9.3350   -1.0880   23.5010 C   0  0  0  0  0  0  0  0  0  0  0  0
    5.8300    0.9190   18.6970 C   0  0  0  0  0  0  0  0  0  0  0  0
    6.1790    0.5730   19.9990 C   0  0  0  0  0  0  0  0  0  0  0  0
    9.0420    0.3700   21.5280 C   0  0  0  0  0  0  0  0  0  0  0  0
    9.2507   -4.8268   25.5895 C   0  0  0  0  0  0  0  0  0  0  0  0
    9.8870    1.3260   23.5730 C   0  0  0  0  0  0  0  0  0  0  0  0
    9.4560    0.1560   22.8130 C   0  0  1  0  0  0  0  0  0  0  0  0
    6.7580    0.3810   17.8350 N   0  0  0  0  0  0  0  0  0  0  0  0
    7.3170   -0.1610   19.8550 N   0  0  0  0  0  0  0  0  0  0  0  0
    8.1890   -0.7180   20.8700 N   0  0  0  0  0  0  0  0  0  0  0  0
    9.2690    1.4140   20.9380 O   0  0  0  0  0  0  0  0  0  0  0  0
   15.2054    2.1559   23.3735 H   0  0  0  0  0  0  0  0  0  0  0  0
   13.6589    4.0787   23.6316 H   0  0  0  0  0  0  0  0  0  0  0  0
   14.3017   -0.1491   23.2071 H   0  0  0  0  0  0  0  0  0  0  0  0
    3.0134    2.6521   19.3911 H   0  0  0  0  0  0  0  0  0  0  0  0
    3.6460    2.0127   21.6812 H   0  0  0  0  0  0  0  0  0  0  0  0
   11.2166    3.7033   23.7242 H   0  0  0  0  0  0  0  0  0  0  0  0
   11.8612   -0.5349   23.2987 H   0  0  0  0  0  0  0  0  0  0  0  0
    8.6904   -2.3557   26.5808 H   0  0  0  0  0  0  0  0  0  0  0  0
    9.9249   -4.3911   22.9935 H   0  0  0  0  0  0  0  0  0  0  0  0
    8.9209   -0.1987   25.4207 H   0  0  0  0  0  0  0  0  0  0  0  0
   10.0640   -2.2315   21.8255 H   0  0  0  0  0  0  0  0  0  0  0  0
    4.4037    1.9731   17.4543 H   0  0  0  0  0  0  0  0  0  0  0  0
    5.7084    0.6923   22.1132 H   0  0  0  0  0  0  0  0  0  0  0  0
    8.4862   -0.8060   18.1787 H   0  0  0  0  0  0  0  0  0  0  0  0
    8.2506   -5.2684   25.5009 H   0  0  0  0  0  0  0  0  0  0  0  0
    9.9820   -5.5375   25.1832 H   0  0  0  0  0  0  0  0  0  0  0  0
    9.4843   -4.7055   26.6554 H   0  0  0  0  0  0  0  0  0  0  0  0
    9.6026    1.2057   24.6276 H   0  0  0  0  0  0  0  0  0  0  0  0
    9.3596    2.2290   23.2378 H   0  0  0  0  0  0  0  0  0  0  0  0
    8.0683    0.4897   23.2524 H   0  0  0  0  0  0  0  0  0  0  0  0
    8.2749   -1.5586   21.1247 H   0  0  0  0  0  0  0  0  0  0  0  0
  1  2  1  0  0  0  0
  1  3  2  0  0  0  0
  2  6  2  0  0  0  0
  3  7  1  0  0  0  0
  4  5  1  0  0  0  0
  4 12  2  0  0  0  0
  5 13  2  0  0  0  0
  6 16  1  0  0  0  0
  7 16  2  0  0  0  0
  8 10  2  0  0  0  0
  8 15  1  0  0  0  0
  9 11  1  0  0  0  0
  9 15  2  0  0  0  0
 10 17  1  0  0  0  0
 11 17  2  0  0  0  0
 12 18  1  0  0  0  0
 13 19  1  0  0  0  0
 14 24  2  0  0  0  0
 14 25  1  0  0  0  0
 15 21  1  0  0  0  0
 16 22  1  0  0  0  0
 17 23  1  0  0  0  0
 18 19  2  0  0  0  0
 18 24  1  0  0  0  0
 19 25  1  0  0  0  0
 20 23  1  0  0  0  0
 20 26  1  0  0  0  0
 20 27  2  0  0  0  0
 22 23  1  1  0  0  0
 25 26  1  0  0  0  0
  1 28  1  0  0  0  0
  2 29  1  0  0  0  0
  3 30  1  0  0  0  0
  4 31  1  0  0  0  0
  5 32  1  0  0  0  0
  6 33  1  0  0  0  0
  7 34  1  0  0  0  0
  8 35  1  0  0  0  0
  9 36  1  0  0  0  0
 10 37  1  0  0  0  0
 11 38  1  0  0  0  0
 12 39  1  0  0  0  0
 13 40  1  0  0  0  0
 14 41  1  0  0  0  0
 21 42  1  0  0  0  0
 21 43  1  0  0  0  0
 21 44  1  0  0  0  0
 22 45  1  0  0  0  0
 22 46  1  0  0  0  0
 23 47  1  0  0  0  0
 26 48  1  0  0  0  0
M  END
> <clash_score>
0

> <docking_score>
-9.134259223937988

> <overlap_score>
0.9596472382545471

$$$$
BENZO_209_2
  -OEChem-08222022183D

 48 51  0     1  0  0  0  0  0999 V2000
   12.9176    3.6318   21.5749 C   0  0  0  0  0  0  0  0  0  0  0  0
   13.2831    2.5951   22.4336 C   0  0  0  0  0  0  0  0  0  0  0  0
   11.5692    3.9205   21.3646 C   0  0  0  0  0  0  0  0  0  0  0  0
    3.9160    2.0630   19.5520 C   0  0  0  0  0  0  0  0  0  0  0  0
    4.2750    1.7050   20.8490 C   0  0  0  0  0  0  0  0  0  0  0  0
   12.3003    1.8471   23.0818 C   0  0  0  0  0  0  0  0  0  0  0  0
   10.5864    3.1725   22.0128 C   0  0  0  0  0  0  0  0  0  0  0  0
    8.9960   -2.3380   25.5320 C   0  0  0  0  0  0  0  0  0  0  0  0
    9.6730   -3.4710   23.5300 C   0  0  0  0  0  0  0  0  0  0  0  0
    9.0720   -1.1280   24.8640 C   0  0  0  0  0  0  0  0  0  0  0  0
    9.7200   -2.2600   22.8630 C   0  0  0  0  0  0  0  0  0  0  0  0
    4.6890    1.6810   18.4640 C   0  0  0  0  0  0  0  0  0  0  0  0
    5.4210    0.9600   21.0930 C   0  0  0  0  0  0  0  0  0  0  0  0
    7.6390   -0.2680   18.5410 C   0  0  0  0  0  0  0  0  0  0  0  0
    9.3070   -3.5340   24.8780 C   0  0  0  0  0  0  0  0  0  0  0  0
   10.9519    2.1358   22.8715 C   0  0  0  0  0  0  0  0  0  0  0  0
    9.3350   -1.0880   23.5010 C   0  0  0  0  0  0  0  0  0  0  0  0
    5.8300    0.9190   18.6970 C   0  0  0  0  0  0  0  0  0  0  0  0
    6.1790    0.5730   19.9990 C   0  0  0  0  0  0  0  0  0  0  0  0
    9.0420    0.3700   21.5280 C   0  0  0  0  0  0  0  0  0  0  0  0
    9.2507   -4.8268   25.5895 C   0  0  0  0  0  0  0  0  0  0  0  0
    9.8870    1.3260   23.5730 C   0  0  0  0  0  0  0  0  0  0  0  0
    9.4560    0.1560   22.8130 C   0  0  2  0  0  0  0  0  0  0  0  0
    6.7580    0.3810   17.8350 N   0  0  0  0  0  0  0  0  0  0  0  0
    7.3170   -0.1610   19.8550 N   0  0  0  0  0  0  0  0  0  0  0  0
    8.1890   -0.7180   20.8700 N   0  0  0  0  0  0  0  0  0  0  0  0
    9.2690    1.4140   20.9380 O   0  0  0  0  0  0  0  0  0  0  0  0
   13.6830    4.2150   21.0713 H   0  0  0  0  0  0  0  0  0  0  0  0
   14.3329    2.3708   22.5984 H   0  0  0  0  0  0  0  0  0  0  0  0
   11.2843    4.7283   20.6970 H   0  0  0  0  0  0  0  0  0  0  0  0
    3.0134    2.6521   19.3911 H   0  0  0  0  0  0  0  0  0  0  0  0
    3.6460    2.0127   21.6812 H   0  0  0  0  0  0  0  0  0  0  0  0
   12.5944    1.0411   23.7490 H   0  0  0  0  0  0  0  0  0  0  0  0
    9.5383    3.4046   21.8428 H   0  0  0  0  0  0  0  0  0  0  0  0
    8.6904   -2.3557   26.5808 H   0  0  0  0  0  0  0  0  0  0  0  0
    9.9249   -4.3911   22.9935 H   0  0  0  0  0  0  0  0  0  0  0  0
    8.9209   -0.1987   25.4207 H   0  0  0  0  0  0  0  0  0  0  0  0
   10.0640   -2.2315   21.8255 H   0  0  0  0  0  0  0  0  0  0  0  0
    4.4037    1.9731   17.4543 H   0  0  0  0  0  0  0  0  0  0  0  0
    5.7084    0.6923   22.1132 H   0  0  0  0  0  0  0  0  0  0  0  0
    8.4862   -0.8060   18.1787 H   0  0  0  0  0  0  0  0  0  0  0  0
    8.2506   -5.2684   25.5009 H   0  0  0  0  0  0  0  0  0  0  0  0
    9.9820   -5.5375   25.1832 H   0  0  0  0  0  0  0  0  0  0  0  0
    9.4843   -4.7055   26.6554 H   0  0  0  0  0  0  0  0  0  0  0  0
   10.2899    1.0067   24.5442 H   0  0  0  0  0  0  0  0  0  0  0  0
    9.0336    1.9722   23.8180 H   0  0  0  0  0  0  0  0  0  0  0  0
   10.7792   -0.1072   22.4110 H   0  0  0  0  0  0  0  0  0  0  0  0
    8.2749   -1.5586   21.1247 H   0  0  0  0  0  0  0  0  0  0  0  0
  1  2  1  0  0  0  0
  1  3  2  0  0  0  0
  2  6  2  0  0  0  0
  3  7  1  0  0  0  0
  4  5  1  0  0  0  0
  4 12  2  0  0  0  0
  5 13  2  0  0  0  0
  6 16  1  0  0  0  0
  7 16  2  0  0  0  0
  8 10  2  0  0  0  0
  8 15  1  0  0  0  0
  9 11  1  0  0  0  0
  9 15  2  0  0  0  0
 10 17  1  0  0  0  0
 11 17  2  0  0  0  0
 12 18  1  0  0  0  0
 13 19  1  0  0  0  0
 14 24  2  0  0  0  0
 14 25  1  0  0  0  0
 15 21  1  0  0  0  0
 16 22  1  0  0  0  0
 17 23  1  0  0  0  0
 18 19  2  0  0  0  0
 18 24  1  0  0  0  0
 19 25  1  0  0  0  0
 20 23  1  0  0  0  0
 20 26  1  0  0  0  0
 20 27  2  0  0  0  0
 22 23  1  6  0  0  0
 25 26  1  0  0  0  0
  1 28  1  0  0  0  0
  2 29  1  0  0  0  0
  3 30  1  0  0  0  0
  4 31  1  0  0  0  0
  5 32  1  0  0  0  0
  6 33  1  0  0  0  0
  7 34  1  0  0  0  0
  8 35  1  0  0  0  0
  9 36  1  0  0  0  0
 10 37  1  0  0  0  0
 11 38  1  0  0  0  0
 12 39  1  0  0  0  0
 13 40  1  0  0  0  0
 14 41  1  0  0  0  0
 21 42  1  0  0  0  0
 21 43  1  0  0  0  0
 21 44  1  0  0  0  0
 22 45  1  0  0  0  0
 22 46  1  0  0  0  0
 23 47  1  0  0  0  0
 26 48  1  0  0  0  0
M  END
> <clash_score>
0.623169518521191

> <docking_score>
-9.17923355102539

> <overlap_score>
0.9159379601478577

$$$$
BENZO_206_1
  -OEChem-08222022183D

 60 64  0     1  0  0  0  0  0999 V2000
    3.9160    2.0630   19.5520 C   0  0  0  0  0  0  0  0  0  0  0  0
    4.2750    1.7050   20.8490 C   0  0  0  0  0  0  0  0  0  0  0  0
   13.2791    2.5803   22.4075 C   0  0  0  0  0  0  0  0  0  0  0  0
   12.2978    1.8385   23.0651 C   0  0  0  0  0  0  0  0  0  0  0  0
    9.0720   -1.1280   24.8640 C   0  0  0  0  0  0  0  0  0  0  0  0
    9.7200   -2.2600   22.8630 C   0  0  0  0  0  0  0  0  0  0  0  0
    4.6890    1.6810   18.4640 C   0  0  0  0  0  0  0  0  0  0  0  0
    5.4210    0.9600   21.0930 C   0  0  0  0  0  0  0  0  0  0  0  0
    8.9960   -2.3380   25.5320 C   0  0  0  0  0  0  0  0  0  0  0  0
    9.6730   -3.4710   23.5300 C   0  0  0  0  0  0  0  0  0  0  0  0
   12.9117    3.6142   21.5462 C   0  0  0  0  0  0  0  0  0  0  0  0
   10.5818    3.1644   22.0000 C   0  0  0  0  0  0  0  0  0  0  0  0
    7.6390   -0.2680   18.5410 C   0  0  0  0  0  0  0  0  0  0  0  0
    9.3350   -1.0880   23.5010 C   0  0  0  0  0  0  0  0  0  0  0  0
   10.9492    2.1306   22.8614 C   0  0  0  0  0  0  0  0  0  0  0  0
    5.8300    0.9190   18.6970 C   0  0  0  0  0  0  0  0  0  0  0  0
    6.1790    0.5730   19.9990 C   0  0  0  0  0  0  0  0  0  0  0  0
    9.3070   -3.5340   24.8780 C   0  0  0  0  0  0  0  0  0  0  0  0
   11.5631    3.9062   21.3424 C   0  0  0  0  0  0  0  0  0  0  0  0
    9.0420    0.3700   21.5280 C   0  0  0  0  0  0  0  0  0  0  0  0
    7.3637   -6.1365   27.1885 C   0  0  0  0  0  0  0  0  0  0  0  0
    8.1962   -4.9739   27.7340 C   0  0  0  0  0  0  0  0  0  0  0  0
    7.1943   -6.0395   25.6706 C   0  0  0  0  0  0  0  0  0  0  0  0
    9.5197   -4.8493   26.9795 C   0  0  0  0  0  0  0  0  0  0  0  0
    8.5443   -5.8838   24.9636 C   0  0  0  0  0  0  0  0  0  0  0  0
    9.8870    1.3260   23.5730 C   0  0  0  0  0  0  0  0  0  0  0  0
    9.4560    0.1560   22.8130 C   0  0  1  0  0  0  0  0  0  0  0  0
    6.7580    0.3810   17.8350 N   0  0  0  0  0  0  0  0  0  0  0  0
    7.3170   -0.1610   19.8550 N   0  0  0  0  0  0  0  0  0  0  0  0
    9.2563   -4.7385   25.5420 N   0  0  0  0  0  0  0  0  0  0  0  0
    8.1890   -0.7180   20.8700 N   0  0  0  0  0  0  0  0  0  0  0  0
    9.2690    1.4140   20.9380 O   0  0  0  0  0  0  0  0  0  0  0  0
   11.1104    5.1811   20.2787 Cl  0  0  0  0  0  0  0  0  0  0  0  0
    3.0134    2.6521   19.3911 H   0  0  0  0  0  0  0  0  0  0  0  0
    3.6460    2.0128   21.6812 H   0  0  0  0  0  0  0  0  0  0  0  0
   14.3292    2.3525   22.5663 H   0  0  0  0  0  0  0  0  0  0  0  0
   12.5932    1.0347   23.7344 H   0  0  0  0  0  0  0  0  0  0  0  0
    8.9214   -0.1986   25.4206 H   0  0  0  0  0  0  0  0  0  0  0  0
   10.0622   -2.2326   21.8251 H   0  0  0  0  0  0  0  0  0  0  0  0
    4.4037    1.9731   17.4543 H   0  0  0  0  0  0  0  0  0  0  0  0
    5.7084    0.6923   22.1132 H   0  0  0  0  0  0  0  0  0  0  0  0
    8.6882   -2.3542   26.5803 H   0  0  0  0  0  0  0  0  0  0  0  0
    9.9258   -4.3896   22.9914 H   0  0  0  0  0  0  0  0  0  0  0  0
   13.6873    4.1838   21.0401 H   0  0  0  0  0  0  0  0  0  0  0  0
    9.5289    3.3885   21.8449 H   0  0  0  0  0  0  0  0  0  0  0  0
    8.4862   -0.8060   18.1787 H   0  0  0  0  0  0  0  0  0  0  0  0
    7.8484   -7.0905   27.4464 H   0  0  0  0  0  0  0  0  0  0  0  0
    6.3761   -6.1442   27.6721 H   0  0  0  0  0  0  0  0  0  0  0  0
    7.6308   -4.0428   27.6404 H   0  0  0  0  0  0  0  0  0  0  0  0
    8.3917   -5.1316   28.7967 H   0  0  0  0  0  0  0  0  0  0  0  0
    6.6889   -6.9376   25.3006 H   0  0  0  0  0  0  0  0  0  0  0  0
    6.5516   -5.1860   25.4256 H   0  0  0  0  0  0  0  0  0  0  0  0
   10.0494   -3.9643   27.3413 H   0  0  0  0  0  0  0  0  0  0  0  0
   10.1432   -5.7258   27.1775 H   0  0  0  0  0  0  0  0  0  0  0  0
    9.1338   -6.7931   25.0863 H   0  0  0  0  0  0  0  0  0  0  0  0
    8.3657   -5.7262   23.8995 H   0  0  0  0  0  0  0  0  0  0  0  0
   10.2886    1.0256   24.5508 H   0  0  0  0  0  0  0  0  0  0  0  0
    9.0288    1.9709   23.8044 H   0  0  0  0  0  0  0  0  0  0  0  0
   10.7829   -0.1040   22.4083 H   0  0  0  0  0  0  0  0  0  0  0  0
    8.2487   -1.5564   21.0972 H   0  0  0  0  0  0  0  0  0  0  0  0
  1  2  1  0  0  0  0
  1  7  2  0  0  0  0
  2  8  2  0  0  0  0
  3  4  2  0  0  0  0
  3 11  1  0  0  0  0
  4 15  1  0  0  0  0
  5  9  2  0  0  0  0
  5 14  1  0  0  0  0
  6 10  1  0  0  0  0
  6 14  2  0  0  0  0
  7 16  1  0  0  0  0
  8 17  1  0  0  0  0
  9 18  1  0  0  0  0
 10 18  2  0  0  0  0
 11 19  2  0  0  0  0
 12 15  2  0  0  0  0
 12 19  1  0  0  0  0
 13 28  2  0  0  0  0
 13 29  1  0  0  0  0
 14 27  1  0  0  0  0
 15 26  1  0  0  0  0
 16 17  2  0  0  0  0
 16 28  1  0  0  0  0
 17 29  1  0  0  0  0
 18 30  1  0  0  0  0
 19 33  1  0  0  0  0
 20 27  1  1  0  0  0
 20 31  1  0  0  0  0
 20 32  2  0  0  0  0
 21 22  1  0  0  0  0
 21 23  1  0  0  0  0
 22 24  1  0  0  0  0
 23 25  1  0  0  0  0
 24 30  1  0  0  0  0
 25 30  1  0  0  0  0
 26 27  1  0  0  0  0
 29 31  1  0  0  0  0
  1 34  1  0  0  0  0
  2 35  1  0  0  0  0
  3 36  1  0  0  0  0
  4 37  1  0  0  0  0
  5 38  1  0  0  0  0
  6 39  1  0  0  0  0
  7 40  1  0  0  0  0
  8 41  1  0  0  0  0
  9 42  1  0  0  0  0
 10 43  1  0  0  0  0
 11 44  1  0  0  0  0
 12 45  1  0  0  0  0
 13 46  1  0  0  0  0
 21 47  1  0  0  0  0
 21 48  1  0  0  0  0
 22 49  1  0  0  0  0
 22 50  1  0  0  0  0
 23 51  1  0  0  0  0
 23 52  1  0  0  0  0
 24 53  1  0  0  0  0
 24 54  1  0  0  0  0
 25 55  1  0  0  0  0
 25 56  1  0  0  0  0
 26 57  1  0  0  0  0
 26 58  1  0  0  0  0
 27 59  1  0  0  0  0
 31 60  1  0  0  0  0
M  END
> <clash_score>
2.233875932539995

> <docking_score>
-8.180869102478027

> <overlap_score>
0.9679557085037231

$$$$
BENZO_208_1
  -OEChem-08222022183D

 45 48  0     1  0  0  0  0  0999 V2000
    3.9160    2.0630   19.5520 C   0  0  0  0  0  0  0  0  0  0  0  0
    4.2750    1.7050   20.8490 C   0  0  0  0  0  0  0  0  0  0  0  0
    8.9960   -2.3380   25.5320 C   0  0  0  0  0  0  0  0  0  0  0  0
    9.6730   -3.4710   23.5300 C   0  0  0  0  0  0  0  0  0  0  0  0
    9.0720   -1.1280   24.8640 C   0  0  0  0  0  0  0  0  0  0  0  0
    9.7200   -2.2600   22.8630 C   0  0  0  0  0  0  0  0  0  0  0  0
    4.6890    1.6810   18.4640 C   0  0  0  0  0  0  0  0  0  0  0  0
    5.4210    0.9600   21.0930 C   0  0  0  0  0  0  0  0  0  0  0  0
   12.3421    0.5158   23.4032 C   0  0  0  0  0  0  0  0  0  0  0  0
   13.6305    1.0023   23.3744 C   0  0  0  0  0  0  0  0  0  0  0  0
   11.9672    2.8035   23.5716 C   0  0  0  0  0  0  0  0  0  0  0  0
    7.6390   -0.2680   18.5410 C   0  0  0  0  0  0  0  0  0  0  0  0
    9.3070   -3.5340   24.8780 C   0  0  0  0  0  0  0  0  0  0  0  0
    9.3350   -1.0880   23.5010 C   0  0  0  0  0  0  0  0  0  0  0  0
   11.3785    1.5592   23.5173 C   0  0  0  0  0  0  0  0  0  0  0  0
    5.8300    0.9190   18.6970 C   0  0  0  0  0  0  0  0  0  0  0  0
    6.1790    0.5730   19.9990 C   0  0  0  0  0  0  0  0  0  0  0  0
    9.0420    0.3700   21.5280 C   0  0  0  0  0  0  0  0  0  0  0  0
    9.2507   -4.8268   25.5895 C   0  0  0  0  0  0  0  0  0  0  0  0
    9.8870    1.3260   23.5730 C   0  0  0  0  0  0  0  0  0  0  0  0
    9.4560    0.1560   22.8130 C   0  0  1  0  0  0  0  0  0  0  0  0
    6.7580    0.3810   17.8350 N   0  0  0  0  0  0  0  0  0  0  0  0
    7.3170   -0.1610   19.8550 N   0  0  0  0  0  0  0  0  0  0  0  0
    8.1890   -0.7180   20.8700 N   0  0  0  0  0  0  0  0  0  0  0  0
    9.2690    1.4140   20.9380 O   0  0  0  0  0  0  0  0  0  0  0  0
   13.6749    2.7106   23.4848 S   0  0  0  0  0  0  0  0  0  0  0  0
    3.0134    2.6521   19.3911 H   0  0  0  0  0  0  0  0  0  0  0  0
    3.6460    2.0127   21.6812 H   0  0  0  0  0  0  0  0  0  0  0  0
    8.6904   -2.3557   26.5808 H   0  0  0  0  0  0  0  0  0  0  0  0
    9.9249   -4.3911   22.9935 H   0  0  0  0  0  0  0  0  0  0  0  0
    8.9209   -0.1987   25.4207 H   0  0  0  0  0  0  0  0  0  0  0  0
   10.0640   -2.2315   21.8255 H   0  0  0  0  0  0  0  0  0  0  0  0
    4.4037    1.9731   17.4543 H   0  0  0  0  0  0  0  0  0  0  0  0
    5.7084    0.6923   22.1132 H   0  0  0  0  0  0  0  0  0  0  0  0
   12.1065   -0.5394   23.3454 H   0  0  0  0  0  0  0  0  0  0  0  0
   14.5479    0.4364   23.2946 H   0  0  0  0  0  0  0  0  0  0  0  0
   11.4802    3.7648   23.6592 H   0  0  0  0  0  0  0  0  0  0  0  0
    8.4862   -0.8060   18.1787 H   0  0  0  0  0  0  0  0  0  0  0  0
    8.2506   -5.2684   25.5009 H   0  0  0  0  0  0  0  0  0  0  0  0
    9.9820   -5.5375   25.1832 H   0  0  0  0  0  0  0  0  0  0  0  0
    9.4843   -4.7055   26.6554 H   0  0  0  0  0  0  0  0  0  0  0  0
    9.6026    1.2057   24.6276 H   0  0  0  0  0  0  0  0  0  0  0  0
    9.3596    2.2290   23.2378 H   0  0  0  0  0  0  0  0  0  0  0  0
    8.0683    0.4897   23.2524 H   0  0  0  0  0  0  0  0  0  0  0  0
    8.2749   -1.5586   21.1247 H   0  0  0  0  0  0  0  0  0  0  0  0
  1  2  1  0  0  0  0
  1  7  2  0  0  0  0
  2  8  2  0  0  0  0
  3  5  2  0  0  0  0
  3 13  1  0  0  0  0
  4  6  1  0  0  0  0
  4 13  2  0  0  0  0
  5 14  1  0  0  0  0
  6 14  2  0  0  0  0
  7 16  1  0  0  0  0
  8 17  1  0  0  0  0
  9 10  2  0  0  0  0
  9 15  1  0  0  0  0
 10 26  1  0  0  0  0
 11 15  2  0  0  0  0
 11 26  1  0  0  0  0
 12 22  2  0  0  0  0
 12 23  1  0  0  0  0
 13 19  1  0  0  0  0
 14 21  1  0  0  0  0
 15 20  1  0  0  0  0
 16 17  2  0  0  0  0
 16 22  1  0  0  0  0
 17 23  1  0  0  0  0
 18 21  1  0  0  0  0
 18 24  1  0  0  0  0
 18 25  2  0  0  0  0
 20 21  1  1  0  0  0
 23 24  1  0  0  0  0
  1 27  1  0  0  0  0
  2 28  1  0  0  0  0
  3 29  1  0  0  0  0
  4 30  1  0  0  0  0
  5 31  1  0  0  0  0
  6 32  1  0  0  0  0
  7 33  1  0  0  0  0
  8 34  1  0  0  0  0
  9 35  1  0  0  0  0
 10 36  1  0  0  0  0
 11 37  1  0  0  0  0
 12 38  1  0  0  0  0
 19 39  1  0  0  0  0
 19 40  1  0  0  0  0
 19 41  1  0  0  0  0
 20 42  1  0  0  0  0
 20 43  1  0  0  0  0
 21 44  1  0  0  0  0
 24 45  1  0  0  0  0
M  END
> <clash_score>
0

> <docking_score>
-9.61373519897461

> <overlap_score>
0.943773627281189

$$$$
BENZO_208_2
  -OEChem-08222022183D

 45 48  0     1  0  0  0  0  0999 V2000
    3.9160    2.0630   19.5520 C   0  0  0  0  0  0  0  0  0  0  0  0
    4.2750    1.7050   20.8490 C   0  0  0  0  0  0  0  0  0  0  0  0
    8.9960   -2.3380   25.5320 C   0  0  0  0  0  0  0  0  0  0  0  0
    9.6730   -3.4710   23.5300 C   0  0  0  0  0  0  0  0  0  0  0  0
    9.0720   -1.1280   24.8640 C   0  0  0  0  0  0  0  0  0  0  0  0
    9.7200   -2.2600   22.8630 C   0  0  0  0  0  0  0  0  0  0  0  0
    4.6890    1.6810   18.4640 C   0  0  0  0  0  0  0  0  0  0  0  0
    5.4210    0.9600   21.0930 C   0  0  0  0  0  0  0  0  0  0  0  0
   12.4120    0.7557   23.6805 C   0  0  0  0  0  0  0  0  0  0  0  0
   13.4422    0.6233   24.5853 C   0  0  0  0  0  0  0  0  0  0  0  0
   11.3265    1.2397   25.6779 C   0  0  0  0  0  0  0  0  0  0  0  0
    7.6390   -0.2680   18.5410 C   0  0  0  0  0  0  0  0  0  0  0  0
    9.3070   -3.5340   24.8780 C   0  0  0  0  0  0  0  0  0  0  0  0
    9.3350   -1.0880   23.5010 C   0  0  0  0  0  0  0  0  0  0  0  0
   11.1864    1.1129   24.3133 C   0  0  0  0  0  0  0  0  0  0  0  0
    5.8300    0.9190   18.6970 C   0  0  0  0  0  0  0  0  0  0  0  0
    6.1790    0.5730   19.9990 C   0  0  0  0  0  0  0  0  0  0  0  0
    9.0420    0.3700   21.5280 C   0  0  0  0  0  0  0  0  0  0  0  0
    9.2507   -4.8268   25.5895 C   0  0  0  0  0  0  0  0  0  0  0  0
    9.8870    1.3260   23.5730 C   0  0  0  0  0  0  0  0  0  0  0  0
    9.4560    0.1560   22.8130 C   0  0  2  0  0  0  0  0  0  0  0  0
    6.7580    0.3810   17.8350 N   0  0  0  0  0  0  0  0  0  0  0  0
    7.3170   -0.1610   19.8550 N   0  0  0  0  0  0  0  0  0  0  0  0
    8.1890   -0.7180   20.8700 N   0  0  0  0  0  0  0  0  0  0  0  0
    9.2690    1.4140   20.9380 O   0  0  0  0  0  0  0  0  0  0  0  0
   12.9305    0.9290   26.1907 S   0  0  0  0  0  0  0  0  0  0  0  0
    3.0134    2.6521   19.3911 H   0  0  0  0  0  0  0  0  0  0  0  0
    3.6460    2.0127   21.6812 H   0  0  0  0  0  0  0  0  0  0  0  0
    8.6904   -2.3557   26.5808 H   0  0  0  0  0  0  0  0  0  0  0  0
    9.9249   -4.3911   22.9935 H   0  0  0  0  0  0  0  0  0  0  0  0
    8.9209   -0.1987   25.4207 H   0  0  0  0  0  0  0  0  0  0  0  0
   10.0640   -2.2315   21.8255 H   0  0  0  0  0  0  0  0  0  0  0  0
    4.4037    1.9731   17.4543 H   0  0  0  0  0  0  0  0  0  0  0  0
    5.7084    0.6923   22.1132 H   0  0  0  0  0  0  0  0  0  0  0  0
   12.5361    0.6022   22.6159 H   0  0  0  0  0  0  0  0  0  0  0  0
   14.4706    0.3610   24.3807 H   0  0  0  0  0  0  0  0  0  0  0  0
   10.5663    1.4985   26.4019 H   0  0  0  0  0  0  0  0  0  0  0  0
    8.4862   -0.8060   18.1787 H   0  0  0  0  0  0  0  0  0  0  0  0
    8.2506   -5.2684   25.5009 H   0  0  0  0  0  0  0  0  0  0  0  0
    9.9820   -5.5375   25.1832 H   0  0  0  0  0  0  0  0  0  0  0  0
    9.4843   -4.7055   26.6554 H   0  0  0  0  0  0  0  0  0  0  0  0
    9.1168    1.5904   24.3109 H   0  0  0  0  0  0  0  0  0  0  0  0
    9.9726    2.2073   22.9235 H   0  0  0  0  0  0  0  0  0  0  0  0
   10.7792   -0.1072   22.4110 H   0  0  0  0  0  0  0  0  0  0  0  0
    8.2749   -1.5586   21.1247 H   0  0  0  0  0  0  0  0  0  0  0  0
  1  2  1  0  0  0  0
  1  7  2  0  0  0  0
  2  8  2  0  0  0  0
  3  5  2  0  0  0  0
  3 13  1  0  0  0  0
  4  6  1  0  0  0  0
  4 13  2  0  0  0  0
  5 14  1  0  0  0  0
  6 14  2  0  0  0  0
  7 16  1  0  0  0  0
  8 17  1  0  0  0  0
  9 10  2  0  0  0  0
  9 15  1  0  0  0  0
 10 26  1  0  0  0  0
 11 15  2  0  0  0  0
 11 26  1  0  0  0  0
 12 22  2  0  0  0  0
 12 23  1  0  0  0  0
 13 19  1  0  0  0  0
 14 21  1  0  0  0  0
 15 20  1  0  0  0  0
 16 17  2  0  0  0  0
 16 22  1  0  0  0  0
 17 23  1  0  0  0  0
 18 21  1  0  0  0  0
 18 24  1  0  0  0  0
 18 25  2  0  0  0  0
 20 21  1  6  0  0  0
 23 24  1  0  0  0  0
  1 27  1  0  0  0  0
  2 28  1  0  0  0  0
  3 29  1  0  0  0  0
  4 30  1  0  0  0  0
  5 31  1  0  0  0  0
  6 32  1  0  0  0  0
  7 33  1  0  0  0  0
  8 34  1  0  0  0  0
  9 35  1  0  0  0  0
 10 36  1  0  0  0  0
 11 37  1  0  0  0  0
 12 38  1  0  0  0  0
 19 39  1  0  0  0  0
 19 40  1  0  0  0  0
 19 41  1  0  0  0  0
 20 42  1  0  0  0  0
 20 43  1  0  0  0  0
 21 44  1  0  0  0  0
 24 45  1  0  0  0  0
M  END
> <clash_score>
0.6256218321189225

> <docking_score>
-7.707392692565918

> <overlap_score>
0.8700386881828308

$$$$
BENZO_207_2
  -OEChem-08222022183D

 60 64  0     1  0  0  0  0  0999 V2000
    3.9160    2.0630   19.5520 C   0  0  0  0  0  0  0  0  0  0  0  0
    4.2750    1.7050   20.8490 C   0  0  0  0  0  0  0  0  0  0  0  0
    9.0720   -1.1280   24.8640 C   0  0  0  0  0  0  0  0  0  0  0  0
    9.7200   -2.2600   22.8630 C   0  0  0  0  0  0  0  0  0  0  0  0
    4.6890    1.6810   18.4640 C   0  0  0  0  0  0  0  0  0  0  0  0
    5.4210    0.9600   21.0930 C   0  0  0  0  0  0  0  0  0  0  0  0
    8.9960   -2.3380   25.5320 C   0  0  0  0  0  0  0  0  0  0  0  0
    9.6730   -3.4710   23.5300 C   0  0  0  0  0  0  0  0  0  0  0  0
   12.3465    1.9794   22.9425 C   0  0  0  0  0  0  0  0  0  0  0  0
   10.7668    3.1736   21.9866 C   0  0  0  0  0  0  0  0  0  0  0  0
    7.6390   -0.2680   18.5410 C   0  0  0  0  0  0  0  0  0  0  0  0
    9.3350   -1.0880   23.5010 C   0  0  0  0  0  0  0  0  0  0  0  0
   10.9492    2.1306   22.8614 C   0  0  0  0  0  0  0  0  0  0  0  0
    5.8300    0.9190   18.6970 C   0  0  0  0  0  0  0  0  0  0  0  0
    6.1790    0.5730   19.9990 C   0  0  0  0  0  0  0  0  0  0  0  0
    9.3070   -3.5340   24.8780 C   0  0  0  0  0  0  0  0  0  0  0  0
    9.0420    0.3700   21.5280 C   0  0  0  0  0  0  0  0  0  0  0  0
    7.3637   -6.1365   27.1885 C   0  0  0  0  0  0  0  0  0  0  0  0
    8.1962   -4.9739   27.7340 C   0  0  0  0  0  0  0  0  0  0  0  0
    7.1943   -6.0395   25.6706 C   0  0  0  0  0  0  0  0  0  0  0  0
    9.5197   -4.8493   26.9795 C   0  0  0  0  0  0  0  0  0  0  0  0
    8.5443   -5.8838   24.9636 C   0  0  0  0  0  0  0  0  0  0  0  0
   12.3392    4.6377   20.6971 C   0  0  0  0  0  0  0  0  0  0  0  0
    9.8870    1.3260   23.5730 C   0  0  0  0  0  0  0  0  0  0  0  0
    9.4560    0.1560   22.8130 C   0  0  2  0  0  0  0  0  0  0  0  0
   13.0051    2.8562   22.1799 N   0  0  0  0  0  0  0  0  0  0  0  0
    6.7580    0.3810   17.8350 N   0  0  0  0  0  0  0  0  0  0  0  0
   12.0173    3.5683   21.6113 N   0  0  0  0  0  0  0  0  0  0  0  0
    7.3170   -0.1610   19.8550 N   0  0  0  0  0  0  0  0  0  0  0  0
    9.2563   -4.7385   25.5420 N   0  0  0  0  0  0  0  0  0  0  0  0
    8.1890   -0.7180   20.8700 N   0  0  0  0  0  0  0  0  0  0  0  0
    9.2690    1.4140   20.9380 O   0  0  0  0  0  0  0  0  0  0  0  0
    3.0134    2.6521   19.3911 H   0  0  0  0  0  0  0  0  0  0  0  0
    3.6460    2.0128   21.6812 H   0  0  0  0  0  0  0  0  0  0  0  0
    8.9214   -0.1986   25.4206 H   0  0  0  0  0  0  0  0  0  0  0  0
   10.0622   -2.2326   21.8251 H   0  0  0  0  0  0  0  0  0  0  0  0
    4.4037    1.9731   17.4543 H   0  0  0  0  0  0  0  0  0  0  0  0
    5.7084    0.6923   22.1132 H   0  0  0  0  0  0  0  0  0  0  0  0
    8.6882   -2.3542   26.5803 H   0  0  0  0  0  0  0  0  0  0  0  0
    9.9258   -4.3896   22.9914 H   0  0  0  0  0  0  0  0  0  0  0  0
   12.9145    1.2672   23.5241 H   0  0  0  0  0  0  0  0  0  0  0  0
    9.8759    3.6558   21.6076 H   0  0  0  0  0  0  0  0  0  0  0  0
    8.4862   -0.8060   18.1787 H   0  0  0  0  0  0  0  0  0  0  0  0
    7.8484   -7.0905   27.4464 H   0  0  0  0  0  0  0  0  0  0  0  0
    6.3761   -6.1442   27.6721 H   0  0  0  0  0  0  0  0  0  0  0  0
    7.6308   -4.0428   27.6404 H   0  0  0  0  0  0  0  0  0  0  0  0
    8.3917   -5.1316   28.7967 H   0  0  0  0  0  0  0  0  0  0  0  0
    6.6889   -6.9376   25.3006 H   0  0  0  0  0  0  0  0  0  0  0  0
    6.5516   -5.1860   25.4256 H   0  0  0  0  0  0  0  0  0  0  0  0
   10.0494   -3.9643   27.3413 H   0  0  0  0  0  0  0  0  0  0  0  0
   10.1432   -5.7258   27.1775 H   0  0  0  0  0  0  0  0  0  0  0  0
    9.1338   -6.7931   25.0863 H   0  0  0  0  0  0  0  0  0  0  0  0
    8.3657   -5.7262   23.8995 H   0  0  0  0  0  0  0  0  0  0  0  0
   12.4412    5.5584   21.2776 H   0  0  0  0  0  0  0  0  0  0  0  0
   13.2748    4.4059   20.1806 H   0  0  0  0  0  0  0  0  0  0  0  0
   11.5379    4.7362   19.9596 H   0  0  0  0  0  0  0  0  0  0  0  0
   10.2886    1.0256   24.5508 H   0  0  0  0  0  0  0  0  0  0  0  0
    9.0288    1.9709   23.8044 H   0  0  0  0  0  0  0  0  0  0  0  0
   10.7829   -0.1040   22.4083 H   0  0  0  0  0  0  0  0  0  0  0  0
    8.2487   -1.5564   21.0972 H   0  0  0  0  0  0  0  0  0  0  0  0
  1  2  1  0  0  0  0
  1  5  2  0  0  0  0
  2  6  2  0  0  0  0
  3  7  2  0  0  0  0
  3 12  1  0  0  0  0
  4  8  1  0  0  0  0
  4 12  2  0  0  0  0
  5 14  1  0  0  0  0
  6 15  1  0  0  0  0
  7 16  1  0  0  0  0
  8 16  2  0  0  0  0
  9 13  1  0  0  0  0
  9 26  2  0  0  0  0
 10 13  2  0  0  0  0
 10 28  1  0  0  0  0
 11 27  2  0  0  0  0
 11 29  1  0  0  0  0
 12 25  1  0  0  0  0
 13 24  1  0  0  0  0
 14 15  2  0  0  0  0
 14 27  1  0  0  0  0
 15 29  1  0  0  0  0
 16 30  1  0  0  0  0
 17 25  1  0  0  0  0
 17 31  1  0  0  0  0
 17 32  2  0  0  0  0
 18 19  1  0  0  0  0
 18 20  1  0  0  0  0
 19 21  1  0  0  0  0
 20 22  1  0  0  0  0
 21 30  1  0  0  0  0
 22 30  1  0  0  0  0
 23 28  1  0  0  0  0
 24 25  1  6  0  0  0
 26 28  1  0  0  0  0
 29 31  1  0  0  0  0
  1 33  1  0  0  0  0
  2 34  1  0  0  0  0
  3 35  1  0  0  0  0
  4 36  1  0  0  0  0
  5 37  1  0  0  0  0
  6 38  1  0  0  0  0
  7 39  1  0  0  0  0
  8 40  1  0  0  0  0
  9 41  1  0  0  0  0
 10 42  1  0  0  0  0
 11 43  1  0  0  0  0
 18 44  1  0  0  0  0
 18 45  1  0  0  0  0
 19 46  1  0  0  0  0
 19 47  1  0  0  0  0
 20 48  1  0  0  0  0
 20 49  1  0  0  0  0
 21 50  1  0  0  0  0
 21 51  1  0  0  0  0
 22 52  1  0  0  0  0
 22 53  1  0  0  0  0
 23 54  1  0  0  0  0
 23 55  1  0  0  0  0
 23 56  1  0  0  0  0
 24 57  1  0  0  0  0
 24 58  1  0  0  0  0
 25 59  1  0  0  0  0
 31 60  1  0  0  0  0
M  END
> <clash_score>
0

> <docking_score>
-7.626553535461426

> <overlap_score>
0.9623876214027405

$$$$
BENZO_206_2
  -OEChem-08222022183D

 60 64  0     1  0  0  0  0  0999 V2000
    3.9160    2.0630   19.5520 C   0  0  0  0  0  0  0  0  0  0  0  0
    4.2750    1.7050   20.8490 C   0  0  0  0  0  0  0  0  0  0  0  0
   13.6195    0.6627   23.3152 C   0  0  0  0  0  0  0  0  0  0  0  0
   12.2407    0.4591   23.3700 C   0  0  0  0  0  0  0  0  0  0  0  0
    9.0720   -1.1280   24.8640 C   0  0  0  0  0  0  0  0  0  0  0  0
    9.7200   -2.2600   22.8630 C   0  0  0  0  0  0  0  0  0  0  0  0
    4.6890    1.6810   18.4640 C   0  0  0  0  0  0  0  0  0  0  0  0
    5.4210    0.9600   21.0930 C   0  0  0  0  0  0  0  0  0  0  0  0
    8.9960   -2.3380   25.5320 C   0  0  0  0  0  0  0  0  0  0  0  0
    9.6730   -3.4710   23.5300 C   0  0  0  0  0  0  0  0  0  0  0  0
   14.1378    1.9546   23.4055 C   0  0  0  0  0  0  0  0  0  0  0  0
   11.8985    2.8391   23.6052 C   0  0  0  0  0  0  0  0  0  0  0  0
    7.6390   -0.2680   18.5410 C   0  0  0  0  0  0  0  0  0  0  0  0
    9.3350   -1.0880   23.5010 C   0  0  0  0  0  0  0  0  0  0  0  0
   11.3802    1.5472   23.5150 C   0  0  0  0  0  0  0  0  0  0  0  0
    5.8300    0.9190   18.6970 C   0  0  0  0  0  0  0  0  0  0  0  0
    6.1790    0.5730   19.9990 C   0  0  0  0  0  0  0  0  0  0  0  0
    9.3070   -3.5340   24.8780 C   0  0  0  0  0  0  0  0  0  0  0  0
   13.2773    3.0428   23.5504 C   0  0  0  0  0  0  0  0  0  0  0  0
    9.0420    0.3700   21.5280 C   0  0  0  0  0  0  0  0  0  0  0  0
    7.3637   -6.1365   27.1885 C   0  0  0  0  0  0  0  0  0  0  0  0
    8.1962   -4.9739   27.7340 C   0  0  0  0  0  0  0  0  0  0  0  0
    7.1943   -6.0395   25.6706 C   0  0  0  0  0  0  0  0  0  0  0  0
    9.5197   -4.8493   26.9795 C   0  0  0  0  0  0  0  0  0  0  0  0
    8.5443   -5.8838   24.9636 C   0  0  0  0  0  0  0  0  0  0  0  0
    9.8870    1.3260   23.5730 C   0  0  0  0  0  0  0  0  0  0  0  0
    9.4560    0.1560   22.8130 C   0  0  2  0  0  0  0  0  0  0  0  0
    6.7580    0.3810   17.8350 N   0  0  0  0  0  0  0  0  0  0  0  0
    7.3170   -0.1610   19.8550 N   0  0  0  0  0  0  0  0  0  0  0  0
    9.2563   -4.7385   25.5420 N   0  0  0  0  0  0  0  0  0  0  0  0
    8.1890   -0.7180   20.8700 N   0  0  0  0  0  0  0  0  0  0  0  0
    9.2690    1.4140   20.9380 O   0  0  0  0  0  0  0  0  0  0  0  0
   13.9173    4.6365   23.6606 Cl  0  0  0  0  0  0  0  0  0  0  0  0
    3.0134    2.6521   19.3911 H   0  0  0  0  0  0  0  0  0  0  0  0
    3.6460    2.0127   21.6812 H   0  0  0  0  0  0  0  0  0  0  0  0
   14.2892   -0.1849   23.2021 H   0  0  0  0  0  0  0  0  0  0  0  0
   11.8456   -0.5510   23.2987 H   0  0  0  0  0  0  0  0  0  0  0  0
    8.9214   -0.1986   25.4206 H   0  0  0  0  0  0  0  0  0  0  0  0
   10.0622   -2.2326   21.8251 H   0  0  0  0  0  0  0  0  0  0  0  0
    4.4037    1.9731   17.4543 H   0  0  0  0  0  0  0  0  0  0  0  0
    5.7084    0.6923   22.1132 H   0  0  0  0  0  0  0  0  0  0  0  0
    8.6882   -2.3542   26.5803 H   0  0  0  0  0  0  0  0  0  0  0  0
    9.9258   -4.3896   22.9914 H   0  0  0  0  0  0  0  0  0  0  0  0
   15.2146    2.0984   23.3610 H   0  0  0  0  0  0  0  0  0  0  0  0
   11.2234    3.6842   23.7187 H   0  0  0  0  0  0  0  0  0  0  0  0
    8.4862   -0.8060   18.1787 H   0  0  0  0  0  0  0  0  0  0  0  0
    7.8484   -7.0905   27.4464 H   0  0  0  0  0  0  0  0  0  0  0  0
    6.3761   -6.1442   27.6721 H   0  0  0  0  0  0  0  0  0  0  0  0
    7.6308   -4.0428   27.6404 H   0  0  0  0  0  0  0  0  0  0  0  0
    8.3917   -5.1316   28.7967 H   0  0  0  0  0  0  0  0  0  0  0  0
    6.6889   -6.9376   25.3006 H   0  0  0  0  0  0  0  0  0  0  0  0
    6.5516   -5.1860   25.4256 H   0  0  0  0  0  0  0  0  0  0  0  0
   10.0494   -3.9643   27.3413 H   0  0  0  0  0  0  0  0  0  0  0  0
   10.1432   -5.7258   27.1775 H   0  0  0  0  0  0  0  0  0  0  0  0
    9.1338   -6.7931   25.0863 H   0  0  0  0  0  0  0  0  0  0  0  0
    8.3657   -5.7262   23.8995 H   0  0  0  0  0  0  0  0  0  0  0  0
    9.6004    1.2281   24.6293 H   0  0  0  0  0  0  0  0  0  0  0  0
    9.3666    2.2262   23.2198 H   0  0  0  0  0  0  0  0  0  0  0  0
    8.0666    0.4961   23.2504 H   0  0  0  0  0  0  0  0  0  0  0  0
    8.2487   -1.5564   21.0972 H   0  0  0  0  0  0  0  0  0  0  0  0
  1  2  1  0  0  0  0
  1  7  2  0  0  0  0
  2  8  2  0  0  0  0
  3  4  2  0  0  0  0
  3 11  1  0  0  0  0
  4 15  1  0  0  0  0
  5  9  2  0  0  0  0
  5 14  1  0  0  0  0
  6 10  1  0  0  0  0
  6 14  2  0  0  0  0
  7 16  1  0  0  0  0
  8 17  1  0  0  0  0
  9 18  1  0  0  0  0
 10 18  2  0  0  0  0
 11 19  2  0  0  0  0
 12 15  2  0  0  0  0
 12 19  1  0  0  0  0
 13 28  2  0  0  0  0
 13 29  1  0  0  0  0
 14 27  1  0  0  0  0
 15 26  1  0  0  0  0
 16 17  2  0  0  0  0
 16 28  1  0  0  0  0
 17 29  1  0  0  0  0
 18 30  1  0  0  0  0
 19 33  1  0  0  0  0
 20 27  1  6  0  0  0
 20 31  1  0  0  0  0
 20 32  2  0  0  0  0
 21 22  1  0  0  0  0
 21 23  1  0  0  0  0
 22 24  1  0  0  0  0
 23 25  1  0  0  0  0
 24 30  1  0  0  0  0
 25 30  1  0  0  0  0
 26 27  1  0  0  0  0
 29 31  1  0  0  0  0
  1 34  1  0  0  0  0
  2 35  1  0  0  0  0
  3 36  1  0  0  0  0
  4 37  1  0  0  0  0
  5 38  1  0  0  0  0
  6 39  1  0  0  0  0
  7 40  1  0  0  0  0
  8 41  1  0  0  0  0
  9 42  1  0  0  0  0
 10 43  1  0  0  0  0
 11 44  1  0  0  0  0
 12 45  1  0  0  0  0
 13 46  1  0  0  0  0
 21 47  1  0  0  0  0
 21 48  1  0  0  0  0
 22 49  1  0  0  0  0
 22 50  1  0  0  0  0
 23 51  1  0  0  0  0
 23 52  1  0  0  0  0
 24 53  1  0  0  0  0
 24 54  1  0  0  0  0
 25 55  1  0  0  0  0
 25 56  1  0  0  0  0
 26 57  1  0  0  0  0
 26 58  1  0  0  0  0
 27 59  1  0  0  0  0
 31 60  1  0  0  0  0
M  END
> <clash_score>
0

> <docking_score>
-8.511587142944336

> <overlap_score>
1.0153130292892456

$$$$
BENZO_207_1
  -OEChem-08222022183D

 60 64  0     1  0  0  0  0  0999 V2000
    3.9160    2.0630   19.5520 C   0  0  0  0  0  0  0  0  0  0  0  0
    4.2750    1.7050   20.8490 C   0  0  0  0  0  0  0  0  0  0  0  0
    9.0720   -1.1280   24.8640 C   0  0  0  0  0  0  0  0  0  0  0  0
    9.7200   -2.2600   22.8630 C   0  0  0  0  0  0  0  0  0  0  0  0
    4.6890    1.6810   18.4640 C   0  0  0  0  0  0  0  0  0  0  0  0
    5.4210    0.9600   21.0930 C   0  0  0  0  0  0  0  0  0  0  0  0
    8.9960   -2.3380   25.5320 C   0  0  0  0  0  0  0  0  0  0  0  0
    9.6730   -3.4710   23.5300 C   0  0  0  0  0  0  0  0  0  0  0  0
   12.0761    2.7685   23.5923 C   0  0  0  0  0  0  0  0  0  0  0  0
   12.3645    0.5993   23.3773 C   0  0  0  0  0  0  0  0  0  0  0  0
    7.6390   -0.2680   18.5410 C   0  0  0  0  0  0  0  0  0  0  0  0
    9.3350   -1.0880   23.5010 C   0  0  0  0  0  0  0  0  0  0  0  0
   11.3802    1.5472   23.5150 C   0  0  0  0  0  0  0  0  0  0  0  0
    5.8300    0.9190   18.6970 C   0  0  0  0  0  0  0  0  0  0  0  0
    6.1790    0.5730   19.9990 C   0  0  0  0  0  0  0  0  0  0  0  0
    9.3070   -3.5340   24.8780 C   0  0  0  0  0  0  0  0  0  0  0  0
    9.0420    0.3700   21.5280 C   0  0  0  0  0  0  0  0  0  0  0  0
    7.3637   -6.1365   27.1885 C   0  0  0  0  0  0  0  0  0  0  0  0
    8.1962   -4.9739   27.7340 C   0  0  0  0  0  0  0  0  0  0  0  0
    7.1943   -6.0395   25.6706 C   0  0  0  0  0  0  0  0  0  0  0  0
    9.5197   -4.8493   26.9795 C   0  0  0  0  0  0  0  0  0  0  0  0
    8.5443   -5.8838   24.9636 C   0  0  0  0  0  0  0  0  0  0  0  0
   14.8649    0.7140   23.2612 C   0  0  0  0  0  0  0  0  0  0  0  0
    9.8870    1.3260   23.5730 C   0  0  0  0  0  0  0  0  0  0  0  0
    9.4560    0.1560   22.8130 C   0  0  1  0  0  0  0  0  0  0  0  0
   13.4003    2.6135   23.5107 N   0  0  0  0  0  0  0  0  0  0  0  0
    6.7580    0.3810   17.8350 N   0  0  0  0  0  0  0  0  0  0  0  0
   13.5442    1.2836   23.3808 N   0  0  0  0  0  0  0  0  0  0  0  0
    7.3170   -0.1610   19.8550 N   0  0  0  0  0  0  0  0  0  0  0  0
    9.2563   -4.7385   25.5420 N   0  0  0  0  0  0  0  0  0  0  0  0
    8.1890   -0.7180   20.8700 N   0  0  0  0  0  0  0  0  0  0  0  0
    9.2690    1.4140   20.9380 O   0  0  0  0  0  0  0  0  0  0  0  0
    3.0134    2.6521   19.3911 H   0  0  0  0  0  0  0  0  0  0  0  0
    3.6460    2.0127   21.6812 H   0  0  0  0  0  0  0  0  0  0  0  0
    8.9214   -0.1986   25.4206 H   0  0  0  0  0  0  0  0  0  0  0  0
   10.0622   -2.2326   21.8251 H   0  0  0  0  0  0  0  0  0  0  0  0
    4.4037    1.9731   17.4543 H   0  0  0  0  0  0  0  0  0  0  0  0
    5.7084    0.6923   22.1132 H   0  0  0  0  0  0  0  0  0  0  0  0
    8.6882   -2.3542   26.5803 H   0  0  0  0  0  0  0  0  0  0  0  0
    9.9258   -4.3896   22.9914 H   0  0  0  0  0  0  0  0  0  0  0  0
   11.6759    3.7661   23.7056 H   0  0  0  0  0  0  0  0  0  0  0  0
   12.3269   -0.4774   23.2810 H   0  0  0  0  0  0  0  0  0  0  0  0
    8.4862   -0.8060   18.1787 H   0  0  0  0  0  0  0  0  0  0  0  0
    7.8484   -7.0905   27.4464 H   0  0  0  0  0  0  0  0  0  0  0  0
    6.3761   -6.1442   27.6721 H   0  0  0  0  0  0  0  0  0  0  0  0
    7.6308   -4.0428   27.6404 H   0  0  0  0  0  0  0  0  0  0  0  0
    8.3917   -5.1316   28.7967 H   0  0  0  0  0  0  0  0  0  0  0  0
    6.6889   -6.9376   25.3006 H   0  0  0  0  0  0  0  0  0  0  0  0
    6.5516   -5.1860   25.4256 H   0  0  0  0  0  0  0  0  0  0  0  0
   10.0494   -3.9643   27.3413 H   0  0  0  0  0  0  0  0  0  0  0  0
   10.1432   -5.7258   27.1775 H   0  0  0  0  0  0  0  0  0  0  0  0
    9.1338   -6.7931   25.0863 H   0  0  0  0  0  0  0  0  0  0  0  0
    8.3657   -5.7262   23.8995 H   0  0  0  0  0  0  0  0  0  0  0  0
   15.1211    0.6765   22.1991 H   0  0  0  0  0  0  0  0  0  0  0  0
   15.5806    1.3365   23.8054 H   0  0  0  0  0  0  0  0  0  0  0  0
   14.8651   -0.2914   23.6914 H   0  0  0  0  0  0  0  0  0  0  0  0
    9.6004    1.2281   24.6293 H   0  0  0  0  0  0  0  0  0  0  0  0
    9.3666    2.2262   23.2198 H   0  0  0  0  0  0  0  0  0  0  0  0
    8.0666    0.4961   23.2504 H   0  0  0  0  0  0  0  0  0  0  0  0
    8.2487   -1.5564   21.0972 H   0  0  0  0  0  0  0  0  0  0  0  0
  1  2  1  0  0  0  0
  1  5  2  0  0  0  0
  2  6  2  0  0  0  0
  3  7  2  0  0  0  0
  3 12  1  0  0  0  0
  4  8  1  0  0  0  0
  4 12  2  0  0  0  0
  5 14  1  0  0  0  0
  6 15  1  0  0  0  0
  7 16  1  0  0  0  0
  8 16  2  0  0  0  0
  9 13  1  0  0  0  0
  9 26  2  0  0  0  0
 10 13  2  0  0  0  0
 10 28  1  0  0  0  0
 11 27  2  0  0  0  0
 11 29  1  0  0  0  0
 12 25  1  0  0  0  0
 13 24  1  0  0  0  0
 14 15  2  0  0  0  0
 14 27  1  0  0  0  0
 15 29  1  0  0  0  0
 16 30  1  0  0  0  0
 17 25  1  0  0  0  0
 17 31  1  0  0  0  0
 17 32  2  0  0  0  0
 18 19  1  0  0  0  0
 18 20  1  0  0  0  0
 19 21  1  0  0  0  0
 20 22  1  0  0  0  0
 21 30  1  0  0  0  0
 22 30  1  0  0  0  0
 23 28  1  0  0  0  0
 24 25  1  1  0  0  0
 26 28  1  0  0  0  0
 29 31  1  0  0  0  0
  1 33  1  0  0  0  0
  2 34  1  0  0  0  0
  3 35  1  0  0  0  0
  4 36  1  0  0  0  0
  5 37  1  0  0  0  0
  6 38  1  0  0  0  0
  7 39  1  0  0  0  0
  8 40  1  0  0  0  0
  9 41  1  0  0  0  0
 10 42  1  0  0  0  0
 11 43  1  0  0  0  0
 18 44  1  0  0  0  0
 18 45  1  0  0  0  0
 19 46  1  0  0  0  0
 19 47  1  0  0  0  0
 20 48  1  0  0  0  0
 20 49  1  0  0  0  0
 21 50  1  0  0  0  0
 21 51  1  0  0  0  0
 22 52  1  0  0  0  0
 22 53  1  0  0  0  0
 23 54  1  0  0  0  0
 23 55  1  0  0  0  0
 23 56  1  0  0  0  0
 24 57  1  0  0  0  0
 24 58  1  0  0  0  0
 25 59  1  0  0  0  0
 31 60  1  0  0  0  0
M  END
> <clash_score>
0

> <docking_score>
-8.93874740600586

> <overlap_score>
1.014145851135254

$$$$
BENZO_211_2
  -OEChem-08222022183D

 48 51  0     1  0  0  0  0  0999 V2000
    3.9160    2.0630   19.5520 C   0  0  0  0  0  0  0  0  0  0  0  0
    4.2750    1.7050   20.8490 C   0  0  0  0  0  0  0  0  0  0  0  0
    8.9960   -2.3380   25.5320 C   0  0  0  0  0  0  0  0  0  0  0  0
    9.6730   -3.4710   23.5300 C   0  0  0  0  0  0  0  0  0  0  0  0
    9.0720   -1.1280   24.8640 C   0  0  0  0  0  0  0  0  0  0  0  0
    9.7200   -2.2600   22.8630 C   0  0  0  0  0  0  0  0  0  0  0  0
    4.6890    1.6810   18.4640 C   0  0  0  0  0  0  0  0  0  0  0  0
    5.4210    0.9600   21.0930 C   0  0  0  0  0  0  0  0  0  0  0  0
   12.3489    1.9871   22.9604 C   0  0  0  0  0  0  0  0  0  0  0  0
   10.7728    3.1825   22.0003 C   0  0  0  0  0  0  0  0  0  0  0  0
    7.6390   -0.2680   18.5410 C   0  0  0  0  0  0  0  0  0  0  0  0
    9.3070   -3.5340   24.8780 C   0  0  0  0  0  0  0  0  0  0  0  0
    9.3350   -1.0880   23.5010 C   0  0  0  0  0  0  0  0  0  0  0  0
   10.9519    2.1358   22.8715 C   0  0  0  0  0  0  0  0  0  0  0  0
    5.8300    0.9190   18.6970 C   0  0  0  0  0  0  0  0  0  0  0  0
    6.1790    0.5730   19.9990 C   0  0  0  0  0  0  0  0  0  0  0  0
    9.0420    0.3700   21.5280 C   0  0  0  0  0  0  0  0  0  0  0  0
    9.2507   -4.8268   25.5895 C   0  0  0  0  0  0  0  0  0  0  0  0
   12.3501    4.6554   20.7270 C   0  0  0  0  0  0  0  0  0  0  0  0
    9.8870    1.3260   23.5730 C   0  0  0  0  0  0  0  0  0  0  0  0
    9.4560    0.1560   22.8130 C   0  0  2  0  0  0  0  0  0  0  0  0
   13.0104    2.8686   22.2058 N   0  0  0  0  0  0  0  0  0  0  0  0
    6.7580    0.3810   17.8350 N   0  0  0  0  0  0  0  0  0  0  0  0
   12.0247    3.5812   21.6343 N   0  0  0  0  0  0  0  0  0  0  0  0
    7.3170   -0.1610   19.8550 N   0  0  0  0  0  0  0  0  0  0  0  0
    8.1890   -0.7180   20.8700 N   0  0  0  0  0  0  0  0  0  0  0  0
    9.2690    1.4140   20.9380 O   0  0  0  0  0  0  0  0  0  0  0  0
    3.0134    2.6521   19.3911 H   0  0  0  0  0  0  0  0  0  0  0  0
    3.6460    2.0127   21.6812 H   0  0  0  0  0  0  0  0  0  0  0  0
    8.6904   -2.3557   26.5808 H   0  0  0  0  0  0  0  0  0  0  0  0
    9.9249   -4.3911   22.9935 H   0  0  0  0  0  0  0  0  0  0  0  0
    8.9209   -0.1987   25.4207 H   0  0  0  0  0  0  0  0  0  0  0  0
   10.0640   -2.2315   21.8255 H   0  0  0  0  0  0  0  0  0  0  0  0
    4.4037    1.9731   17.4543 H   0  0  0  0  0  0  0  0  0  0  0  0
    5.7084    0.6923   22.1132 H   0  0  0  0  0  0  0  0  0  0  0  0
   12.9149    1.2733   23.5422 H   0  0  0  0  0  0  0  0  0  0  0  0
    9.8832    3.6646   21.6181 H   0  0  0  0  0  0  0  0  0  0  0  0
    8.4862   -0.8060   18.1787 H   0  0  0  0  0  0  0  0  0  0  0  0
    8.2506   -5.2684   25.5009 H   0  0  0  0  0  0  0  0  0  0  0  0
    9.9820   -5.5375   25.1832 H   0  0  0  0  0  0  0  0  0  0  0  0
    9.4843   -4.7055   26.6554 H   0  0  0  0  0  0  0  0  0  0  0  0
   12.4467    5.5737   21.3122 H   0  0  0  0  0  0  0  0  0  0  0  0
   13.2892    4.4277   20.2151 H   0  0  0  0  0  0  0  0  0  0  0  0
   11.5530    4.7557   19.9850 H   0  0  0  0  0  0  0  0  0  0  0  0
   10.2899    1.0067   24.5442 H   0  0  0  0  0  0  0  0  0  0  0  0
    9.0336    1.9722   23.8180 H   0  0  0  0  0  0  0  0  0  0  0  0
   10.7792   -0.1072   22.4110 H   0  0  0  0  0  0  0  0  0  0  0  0
    8.2749   -1.5586   21.1247 H   0  0  0  0  0  0  0  0  0  0  0  0
  1  2  1  0  0  0  0
  1  7  2  0  0  0  0
  2  8  2  0  0  0  0
  3  5  2  0  0  0  0
  3 12  1  0  0  0  0
  4  6  1  0  0  0  0
  4 12  2  0  0  0  0
  5 13  1  0  0  0  0
  6 13  2  0  0  0  0
  7 15  1  0  0  0  0
  8 16  1  0  0  0  0
  9 14  1  0  0  0  0
  9 22  2  0  0  0  0
 10 14  2  0  0  0  0
 10 24  1  0  0  0  0
 11 23  2  0  0  0  0
 11 25  1  0  0  0  0
 12 18  1  0  0  0  0
 13 21  1  0  0  0  0
 14 20  1  0  0  0  0
 15 16  2  0  0  0  0
 15 23  1  0  0  0  0
 16 25  1  0  0  0  0
 17 21  1  0  0  0  0
 17 26  1  0  0  0  0
 17 27  2  0  0  0  0
 19 24  1  0  0  0  0
 20 21  1  6  0  0  0
 22 24  1  0  0  0  0
 25 26  1  0  0  0  0
  1 28  1  0  0  0  0
  2 29  1  0  0  0  0
  3 30  1  0  0  0  0
  4 31  1  0  0  0  0
  5 32  1  0  0  0  0
  6 33  1  0  0  0  0
  7 34  1  0  0  0  0
  8 35  1  0  0  0  0
  9 36  1  0  0  0  0
 10 37  1  0  0  0  0
 11 38  1  0  0  0  0
 18 39  1  0  0  0  0
 18 40  1  0  0  0  0
 18 41  1  0  0  0  0
 19 42  1  0  0  0  0
 19 43  1  0  0  0  0
 19 44  1  0  0  0  0
 20 45  1  0  0  0  0
 20 46  1  0  0  0  0
 21 47  1  0  0  0  0
 26 48  1  0  0  0  0
M  END
> <clash_score>
0

> <docking_score>
-7.920220375061035

> <overlap_score>
0.9091691970825195

$$$$
BENZO_211_1
  -OEChem-08222022183D

 48 51  0     1  0  0  0  0  0999 V2000
    3.9160    2.0630   19.5520 C   0  0  0  0  0  0  0  0  0  0  0  0
    4.2750    1.7050   20.8490 C   0  0  0  0  0  0  0  0  0  0  0  0
    8.9960   -2.3380   25.5320 C   0  0  0  0  0  0  0  0  0  0  0  0
    9.6730   -3.4710   23.5300 C   0  0  0  0  0  0  0  0  0  0  0  0
    9.0720   -1.1280   24.8640 C   0  0  0  0  0  0  0  0  0  0  0  0
    9.7200   -2.2600   22.8630 C   0  0  0  0  0  0  0  0  0  0  0  0
    4.6890    1.6810   18.4640 C   0  0  0  0  0  0  0  0  0  0  0  0
    5.4210    0.9600   21.0930 C   0  0  0  0  0  0  0  0  0  0  0  0
   12.0646    2.7858   23.5979 C   0  0  0  0  0  0  0  0  0  0  0  0
   12.3704    0.6193   23.3790 C   0  0  0  0  0  0  0  0  0  0  0  0
    7.6390   -0.2680   18.5410 C   0  0  0  0  0  0  0  0  0  0  0  0
    9.3070   -3.5340   24.8780 C   0  0  0  0  0  0  0  0  0  0  0  0
    9.3350   -1.0880   23.5010 C   0  0  0  0  0  0  0  0  0  0  0  0
   11.3785    1.5592   23.5173 C   0  0  0  0  0  0  0  0  0  0  0  0
    5.8300    0.9190   18.6970 C   0  0  0  0  0  0  0  0  0  0  0  0
    6.1790    0.5730   19.9990 C   0  0  0  0  0  0  0  0  0  0  0  0
    9.0420    0.3700   21.5280 C   0  0  0  0  0  0  0  0  0  0  0  0
    9.2507   -4.8268   25.5895 C   0  0  0  0  0  0  0  0  0  0  0  0
   14.8700    0.7541   23.2663 C   0  0  0  0  0  0  0  0  0  0  0  0
    9.8870    1.3260   23.5730 C   0  0  0  0  0  0  0  0  0  0  0  0
    9.4560    0.1560   22.8130 C   0  0  1  0  0  0  0  0  0  0  0  0
   13.3900    2.6414   23.5177 N   0  0  0  0  0  0  0  0  0  0  0  0
    6.7580    0.3810   17.8350 N   0  0  0  0  0  0  0  0  0  0  0  0
   13.5447    1.3130   23.3854 N   0  0  0  0  0  0  0  0  0  0  0  0
    7.3170   -0.1610   19.8550 N   0  0  0  0  0  0  0  0  0  0  0  0
    8.1890   -0.7180   20.8700 N   0  0  0  0  0  0  0  0  0  0  0  0
    9.2690    1.4140   20.9380 O   0  0  0  0  0  0  0  0  0  0  0  0
    3.0134    2.6521   19.3911 H   0  0  0  0  0  0  0  0  0  0  0  0
    3.6460    2.0127   21.6812 H   0  0  0  0  0  0  0  0  0  0  0  0
    8.6904   -2.3557   26.5808 H   0  0  0  0  0  0  0  0  0  0  0  0
    9.9249   -4.3911   22.9935 H   0  0  0  0  0  0  0  0  0  0  0  0
    8.9209   -0.1987   25.4207 H   0  0  0  0  0  0  0  0  0  0  0  0
   10.0640   -2.2315   21.8255 H   0  0  0  0  0  0  0  0  0  0  0  0
    4.4037    1.9731   17.4543 H   0  0  0  0  0  0  0  0  0  0  0  0
    5.7084    0.6923   22.1132 H   0  0  0  0  0  0  0  0  0  0  0  0
   11.6563    3.7799   23.7126 H   0  0  0  0  0  0  0  0  0  0  0  0
   12.3415   -0.4574   23.2805 H   0  0  0  0  0  0  0  0  0  0  0  0
    8.4862   -0.8060   18.1787 H   0  0  0  0  0  0  0  0  0  0  0  0
    8.2506   -5.2684   25.5009 H   0  0  0  0  0  0  0  0  0  0  0  0
    9.9820   -5.5375   25.1832 H   0  0  0  0  0  0  0  0  0  0  0  0
    9.4843   -4.7055   26.6554 H   0  0  0  0  0  0  0  0  0  0  0  0
   15.1278    0.7207   22.2045 H   0  0  0  0  0  0  0  0  0  0  0  0
   15.5801    1.3811   23.8126 H   0  0  0  0  0  0  0  0  0  0  0  0
   14.8776   -0.2521   23.6945 H   0  0  0  0  0  0  0  0  0  0  0  0
    9.6026    1.2057   24.6276 H   0  0  0  0  0  0  0  0  0  0  0  0
    9.3596    2.2290   23.2378 H   0  0  0  0  0  0  0  0  0  0  0  0
    8.0683    0.4897   23.2524 H   0  0  0  0  0  0  0  0  0  0  0  0
    8.2749   -1.5586   21.1247 H   0  0  0  0  0  0  0  0  0  0  0  0
  1  2  1  0  0  0  0
  1  7  2  0  0  0  0
  2  8  2  0  0  0  0
  3  5  2  0  0  0  0
  3 12  1  0  0  0  0
  4  6  1  0  0  0  0
  4 12  2  0  0  0  0
  5 13  1  0  0  0  0
  6 13  2  0  0  0  0
  7 15  1  0  0  0  0
  8 16  1  0  0  0  0
  9 14  1  0  0  0  0
  9 22  2  0  0  0  0
 10 14  2  0  0  0  0
 10 24  1  0  0  0  0
 11 23  2  0  0  0  0
 11 25  1  0  0  0  0
 12 18  1  0  0  0  0
 13 21  1  0  0  0  0
 14 20  1  0  0  0  0
 15 16  2  0  0  0  0
 15 23  1  0  0  0  0
 16 25  1  0  0  0  0
 17 21  1  0  0  0  0
 17 26  1  0  0  0  0
 17 27  2  0  0  0  0
 19 24  1  0  0  0  0
 20 21  1  1  0  0  0
 22 24  1  0  0  0  0
 25 26  1  0  0  0  0
  1 28  1  0  0  0  0
  2 29  1  0  0  0  0
  3 30  1  0  0  0  0
  4 31  1  0  0  0  0
  5 32  1  0  0  0  0
  6 33  1  0  0  0  0
  7 34  1  0  0  0  0
  8 35  1  0  0  0  0
  9 36  1  0  0  0  0
 10 37  1  0  0  0  0
 11 38  1  0  0  0  0
 18 39  1  0  0  0  0
 18 40  1  0  0  0  0
 18 41  1  0  0  0  0
 19 42  1  0  0  0  0
 19 43  1  0  0  0  0
 19 44  1  0  0  0  0
 20 45  1  0  0  0  0
 20 46  1  0  0  0  0
 21 47  1  0  0  0  0
 26 48  1  0  0  0  0
M  END
> <clash_score>
0

> <docking_score>
-9.17880916595459

> <overlap_score>
0.9606239199638367

$$$$
BENZO_210_1
  -OEChem-08222022183D

 48 51  0     1  0  0  0  0  0999 V2000
    3.9160    2.0630   19.5520 C   0  0  0  0  0  0  0  0  0  0  0  0
    4.2750    1.7050   20.8490 C   0  0  0  0  0  0  0  0  0  0  0  0
   13.6250    0.6928   23.3186 C   0  0  0  0  0  0  0  0  0  0  0  0
   12.2478    0.4781   23.3713 C   0  0  0  0  0  0  0  0  0  0  0  0
    8.9960   -2.3380   25.5320 C   0  0  0  0  0  0  0  0  0  0  0  0
    9.6730   -3.4710   23.5300 C   0  0  0  0  0  0  0  0  0  0  0  0
    9.0720   -1.1280   24.8640 C   0  0  0  0  0  0  0  0  0  0  0  0
    9.7200   -2.2600   22.8630 C   0  0  0  0  0  0  0  0  0  0  0  0
    4.6890    1.6810   18.4640 C   0  0  0  0  0  0  0  0  0  0  0  0
    5.4210    0.9600   21.0930 C   0  0  0  0  0  0  0  0  0  0  0  0
   14.1329    1.9886   23.4121 C   0  0  0  0  0  0  0  0  0  0  0  0
   11.8864    2.8550   23.6107 C   0  0  0  0  0  0  0  0  0  0  0  0
    7.6390   -0.2680   18.5410 C   0  0  0  0  0  0  0  0  0  0  0  0
    9.3070   -3.5340   24.8780 C   0  0  0  0  0  0  0  0  0  0  0  0
    9.3350   -1.0880   23.5010 C   0  0  0  0  0  0  0  0  0  0  0  0
   11.3785    1.5592   23.5173 C   0  0  0  0  0  0  0  0  0  0  0  0
    5.8300    0.9190   18.6970 C   0  0  0  0  0  0  0  0  0  0  0  0
    6.1790    0.5730   19.9990 C   0  0  0  0  0  0  0  0  0  0  0  0
   13.2636    3.0696   23.5581 C   0  0  0  0  0  0  0  0  0  0  0  0
    9.0420    0.3700   21.5280 C   0  0  0  0  0  0  0  0  0  0  0  0
    9.2507   -4.8268   25.5895 C   0  0  0  0  0  0  0  0  0  0  0  0
    9.8870    1.3260   23.5730 C   0  0  0  0  0  0  0  0  0  0  0  0
    9.4560    0.1560   22.8130 C   0  0  1  0  0  0  0  0  0  0  0  0
    6.7580    0.3810   17.8350 N   0  0  0  0  0  0  0  0  0  0  0  0
    7.3170   -0.1610   19.8550 N   0  0  0  0  0  0  0  0  0  0  0  0
    8.1890   -0.7180   20.8700 N   0  0  0  0  0  0  0  0  0  0  0  0
    9.2690    1.4140   20.9380 O   0  0  0  0  0  0  0  0  0  0  0  0
   13.8909    4.6682   23.6722 Cl  0  0  0  0  0  0  0  0  0  0  0  0
    3.0134    2.6521   19.3911 H   0  0  0  0  0  0  0  0  0  0  0  0
    3.6460    2.0127   21.6812 H   0  0  0  0  0  0  0  0  0  0  0  0
   14.3015   -0.1492   23.2047 H   0  0  0  0  0  0  0  0  0  0  0  0
   11.8608   -0.5349   23.2975 H   0  0  0  0  0  0  0  0  0  0  0  0
    8.6904   -2.3557   26.5808 H   0  0  0  0  0  0  0  0  0  0  0  0
    9.9249   -4.3911   22.9935 H   0  0  0  0  0  0  0  0  0  0  0  0
    8.9209   -0.1987   25.4207 H   0  0  0  0  0  0  0  0  0  0  0  0
   10.0640   -2.2315   21.8255 H   0  0  0  0  0  0  0  0  0  0  0  0
    4.4037    1.9731   17.4543 H   0  0  0  0  0  0  0  0  0  0  0  0
    5.7084    0.6923   22.1132 H   0  0  0  0  0  0  0  0  0  0  0  0
   15.2086    2.1410   23.3692 H   0  0  0  0  0  0  0  0  0  0  0  0
   11.2045    3.6944   23.7250 H   0  0  0  0  0  0  0  0  0  0  0  0
    8.4862   -0.8060   18.1787 H   0  0  0  0  0  0  0  0  0  0  0  0
    8.2506   -5.2684   25.5009 H   0  0  0  0  0  0  0  0  0  0  0  0
    9.9820   -5.5375   25.1832 H   0  0  0  0  0  0  0  0  0  0  0  0
    9.4843   -4.7055   26.6554 H   0  0  0  0  0  0  0  0  0  0  0  0
    9.6026    1.2057   24.6276 H   0  0  0  0  0  0  0  0  0  0  0  0
    9.3596    2.2290   23.2378 H   0  0  0  0  0  0  0  0  0  0  0  0
    8.0683    0.4897   23.2524 H   0  0  0  0  0  0  0  0  0  0  0  0
    8.2749   -1.5586   21.1247 H   0  0  0  0  0  0  0  0  0  0  0  0
  1  2  1  0  0  0  0
  1  9  2  0  0  0  0
  2 10  2  0  0  0  0
  3  4  2  0  0  0  0
  3 11  1  0  0  0  0
  4 16  1  0  0  0  0
  5  7  2  0  0  0  0
  5 14  1  0  0  0  0
  6  8  1  0  0  0  0
  6 14  2  0  0  0  0
  7 15  1  0  0  0  0
  8 15  2  0  0  0  0
  9 17  1  0  0  0  0
 10 18  1  0  0  0  0
 11 19  2  0  0  0  0
 12 16  2  0  0  0  0
 12 19  1  0  0  0  0
 13 24  2  0  0  0  0
 13 25  1  0  0  0  0
 14 21  1  0  0  0  0
 15 23  1  0  0  0  0
 16 22  1  0  0  0  0
 17 18  2  0  0  0  0
 17 24  1  0  0  0  0
 18 25  1  0  0  0  0
 19 28  1  0  0  0  0
 20 23  1  0  0  0  0
 20 26  1  0  0  0  0
 20 27  2  0  0  0  0
 22 23  1  1  0  0  0
 25 26  1  0  0  0  0
  1 29  1  0  0  0  0
  2 30  1  0  0  0  0
  3 31  1  0  0  0  0
  4 32  1  0  0  0  0
  5 33  1  0  0  0  0
  6 34  1  0  0  0  0
  7 35  1  0  0  0  0
  8 36  1  0  0  0  0
  9 37  1  0  0  0  0
 10 38  1  0  0  0  0
 11 39  1  0  0  0  0
 12 40  1  0  0  0  0
 13 41  1  0  0  0  0
 21 42  1  0  0  0  0
 21 43  1  0  0  0  0
 21 44  1  0  0  0  0
 22 45  1  0  0  0  0
 22 46  1  0  0  0  0
 23 47  1  0  0  0  0
 26 48  1  0  0  0  0
M  END
> <clash_score>
0

> <docking_score>
-8.808066368103027

> <overlap_score>
0.961593747138977

$$$$
BENZO_210_2
  -OEChem-08222022183D

 48 51  0     1  0  0  0  0  0999 V2000
    3.9160    2.0630   19.5520 C   0  0  0  0  0  0  0  0  0  0  0  0
    4.2750    1.7050   20.8490 C   0  0  0  0  0  0  0  0  0  0  0  0
   13.2836    2.5921   22.4338 C   0  0  0  0  0  0  0  0  0  0  0  0
   12.2999    1.8455   23.0821 C   0  0  0  0  0  0  0  0  0  0  0  0
    8.9960   -2.3380   25.5320 C   0  0  0  0  0  0  0  0  0  0  0  0
    9.6730   -3.4710   23.5300 C   0  0  0  0  0  0  0  0  0  0  0  0
    9.0720   -1.1280   24.8640 C   0  0  0  0  0  0  0  0  0  0  0  0
    9.7200   -2.2600   22.8630 C   0  0  0  0  0  0  0  0  0  0  0  0
    4.6890    1.6810   18.4640 C   0  0  0  0  0  0  0  0  0  0  0  0
    5.4210    0.9600   21.0930 C   0  0  0  0  0  0  0  0  0  0  0  0
   12.9195    3.6292   21.5749 C   0  0  0  0  0  0  0  0  0  0  0  0
   10.5877    3.1728   22.0126 C   0  0  0  0  0  0  0  0  0  0  0  0
    7.6390   -0.2680   18.5410 C   0  0  0  0  0  0  0  0  0  0  0  0
    9.3070   -3.5340   24.8780 C   0  0  0  0  0  0  0  0  0  0  0  0
    9.3350   -1.0880   23.5010 C   0  0  0  0  0  0  0  0  0  0  0  0
   10.9519    2.1358   22.8715 C   0  0  0  0  0  0  0  0  0  0  0  0
    5.8300    0.9190   18.6970 C   0  0  0  0  0  0  0  0  0  0  0  0
    6.1790    0.5730   19.9990 C   0  0  0  0  0  0  0  0  0  0  0  0
   11.5715    3.9195   21.3643 C   0  0  0  0  0  0  0  0  0  0  0  0
    9.0420    0.3700   21.5280 C   0  0  0  0  0  0  0  0  0  0  0  0
    9.2507   -4.8268   25.5895 C   0  0  0  0  0  0  0  0  0  0  0  0
    9.8870    1.3260   23.5730 C   0  0  0  0  0  0  0  0  0  0  0  0
    9.4560    0.1560   22.8130 C   0  0  2  0  0  0  0  0  0  0  0  0
    6.7580    0.3810   17.8350 N   0  0  0  0  0  0  0  0  0  0  0  0
    7.3170   -0.1610   19.8550 N   0  0  0  0  0  0  0  0  0  0  0  0
    8.1890   -0.7180   20.8700 N   0  0  0  0  0  0  0  0  0  0  0  0
    9.2690    1.4140   20.9380 O   0  0  0  0  0  0  0  0  0  0  0  0
   11.1228    5.1983   20.3036 Cl  0  0  0  0  0  0  0  0  0  0  0  0
    3.0134    2.6521   19.3911 H   0  0  0  0  0  0  0  0  0  0  0  0
    3.6460    2.0127   21.6812 H   0  0  0  0  0  0  0  0  0  0  0  0
   14.3332    2.3656   22.5979 H   0  0  0  0  0  0  0  0  0  0  0  0
   12.5928    1.0392   23.7495 H   0  0  0  0  0  0  0  0  0  0  0  0
    8.6904   -2.3557   26.5808 H   0  0  0  0  0  0  0  0  0  0  0  0
    9.9249   -4.3911   22.9935 H   0  0  0  0  0  0  0  0  0  0  0  0
    8.9209   -0.1987   25.4207 H   0  0  0  0  0  0  0  0  0  0  0  0
   10.0640   -2.2315   21.8255 H   0  0  0  0  0  0  0  0  0  0  0  0
    4.4037    1.9731   17.4543 H   0  0  0  0  0  0  0  0  0  0  0  0
    5.7084    0.6923   22.1132 H   0  0  0  0  0  0  0  0  0  0  0  0
   13.6970    4.2025   21.0761 H   0  0  0  0  0  0  0  0  0  0  0  0
    9.5353    3.3956   21.8521 H   0  0  0  0  0  0  0  0  0  0  0  0
    8.4862   -0.8060   18.1787 H   0  0  0  0  0  0  0  0  0  0  0  0
    8.2506   -5.2684   25.5009 H   0  0  0  0  0  0  0  0  0  0  0  0
    9.9820   -5.5375   25.1832 H   0  0  0  0  0  0  0  0  0  0  0  0
    9.4843   -4.7055   26.6554 H   0  0  0  0  0  0  0  0  0  0  0  0
   10.2899    1.0067   24.5442 H   0  0  0  0  0  0  0  0  0  0  0  0
    9.0336    1.9722   23.8180 H   0  0  0  0  0  0  0  0  0  0  0  0
   10.7792   -0.1072   22.4110 H   0  0  0  0  0  0  0  0  0  0  0  0
    8.2749   -1.5586   21.1247 H   0  0  0  0  0  0  0  0  0  0  0  0
  1  2  1  0  0  0  0
  1  9  2  0  0  0  0
  2 10  2  0  0  0  0
  3  4  2  0  0  0  0
  3 11  1  0  0  0  0
  4 16  1  0  0  0  0
  5  7  2  0  0  0  0
  5 14  1  0  0  0  0
  6  8  1  0  0  0  0
  6 14  2  0  0  0  0
  7 15  1  0  0  0  0
  8 15  2  0  0  0  0
  9 17  1  0  0  0  0
 10 18  1  0  0  0  0
 11 19  2  0  0  0  0
 12 16  2  0  0  0  0
 12 19  1  0  0  0  0
 13 24  2  0  0  0  0
 13 25  1  0  0  0  0
 14 21  1  0  0  0  0
 15 23  1  0  0  0  0
 16 22  1  0  0  0  0
 17 18  2  0  0  0  0
 17 24  1  0  0  0  0
 18 25  1  0  0  0  0
 19 28  1  0  0  0  0
 20 23  1  0  0  0  0
 20 26  1  0  0  0  0
 20 27  2  0  0  0  0
 22 23  1  6  0  0  0
 25 26  1  0  0  0  0
  1 29  1  0  0  0  0
  2 30  1  0  0  0  0
  3 31  1  0  0  0  0
  4 32  1  0  0  0  0
  5 33  1  0  0  0  0
  6 34  1  0  0  0  0
  7 35  1  0  0  0  0
  8 36  1  0  0  0  0
  9 37  1  0  0  0  0
 10 38  1  0  0  0  0
 11 39  1  0  0  0  0
 12 40  1  0  0  0  0
 13 41  1  0  0  0  0
 21 42  1  0  0  0  0
 21 43  1  0  0  0  0
 21 44  1  0  0  0  0
 22 45  1  0  0  0  0
 22 46  1  0  0  0  0
 23 47  1  0  0  0  0
 26 48  1  0  0  0  0
M  END
> <clash_score>
2.2169709590082354

> <docking_score>
-8.469768524169922

> <overlap_score>
0.9148105978965759

$$$$
BENZO_212_1
  -OEChem-08222022183D

 46 49  0     1  0  0  0  0  0999 V2000
    3.9160    2.0630   19.5520 C   0  0  0  0  0  0  0  0  0  0  0  0
    4.2750    1.7050   20.8490 C   0  0  0  0  0  0  0  0  0  0  0  0
    9.0720   -1.1280   24.8640 C   0  0  0  0  0  0  0  0  0  0  0  0
    9.7200   -2.2600   22.8630 C   0  0  0  0  0  0  0  0  0  0  0  0
    4.6890    1.6810   18.4640 C   0  0  0  0  0  0  0  0  0  0  0  0
    5.4210    0.9600   21.0930 C   0  0  0  0  0  0  0  0  0  0  0  0
    8.9960   -2.3380   25.5320 C   0  0  0  0  0  0  0  0  0  0  0  0
    9.6730   -3.4710   23.5300 C   0  0  0  0  0  0  0  0  0  0  0  0
   12.3421    0.5158   23.4032 C   0  0  0  0  0  0  0  0  0  0  0  0
   13.6305    1.0023   23.3744 C   0  0  0  0  0  0  0  0  0  0  0  0
   11.9672    2.8035   23.5716 C   0  0  0  0  0  0  0  0  0  0  0  0
    7.6390   -0.2680   18.5410 C   0  0  0  0  0  0  0  0  0  0  0  0
    9.3350   -1.0880   23.5010 C   0  0  0  0  0  0  0  0  0  0  0  0
   11.3785    1.5592   23.5173 C   0  0  0  0  0  0  0  0  0  0  0  0
    5.8300    0.9190   18.6970 C   0  0  0  0  0  0  0  0  0  0  0  0
    6.1790    0.5730   19.9990 C   0  0  0  0  0  0  0  0  0  0  0  0
    9.3070   -3.5340   24.8780 C   0  0  0  0  0  0  0  0  0  0  0  0
    9.0420    0.3700   21.5280 C   0  0  0  0  0  0  0  0  0  0  0  0
    9.5904   -5.8808   24.7807 C   0  0  0  0  0  0  0  0  0  0  0  0
    9.8870    1.3260   23.5730 C   0  0  0  0  0  0  0  0  0  0  0  0
    9.4560    0.1560   22.8130 C   0  0  1  0  0  0  0  0  0  0  0  0
    6.7580    0.3810   17.8350 N   0  0  0  0  0  0  0  0  0  0  0  0
    7.3170   -0.1610   19.8550 N   0  0  0  0  0  0  0  0  0  0  0  0
    8.1890   -0.7180   20.8700 N   0  0  0  0  0  0  0  0  0  0  0  0
    9.2690    1.4140   20.9380 O   0  0  0  0  0  0  0  0  0  0  0  0
    9.2567   -4.7121   25.5280 O   0  0  0  0  0  0  0  0  0  0  0  0
   13.6749    2.7106   23.4848 S   0  0  0  0  0  0  0  0  0  0  0  0
    3.0134    2.6521   19.3911 H   0  0  0  0  0  0  0  0  0  0  0  0
    3.6460    2.0127   21.6812 H   0  0  0  0  0  0  0  0  0  0  0  0
    8.9224   -0.1986   25.4209 H   0  0  0  0  0  0  0  0  0  0  0  0
   10.0638   -2.2321   21.8253 H   0  0  0  0  0  0  0  0  0  0  0  0
    4.4037    1.9731   17.4543 H   0  0  0  0  0  0  0  0  0  0  0  0
    5.7084    0.6923   22.1132 H   0  0  0  0  0  0  0  0  0  0  0  0
    8.6903   -2.3588   26.5807 H   0  0  0  0  0  0  0  0  0  0  0  0
    9.9258   -4.3917   22.9962 H   0  0  0  0  0  0  0  0  0  0  0  0
   12.1065   -0.5394   23.3454 H   0  0  0  0  0  0  0  0  0  0  0  0
   14.5479    0.4364   23.2946 H   0  0  0  0  0  0  0  0  0  0  0  0
   11.4802    3.7648   23.6592 H   0  0  0  0  0  0  0  0  0  0  0  0
    8.4862   -0.8060   18.1787 H   0  0  0  0  0  0  0  0  0  0  0  0
    9.5095   -6.7607   25.4235 H   0  0  0  0  0  0  0  0  0  0  0  0
   10.6094   -5.7898   24.3961 H   0  0  0  0  0  0  0  0  0  0  0  0
    8.8947   -5.9784   23.9439 H   0  0  0  0  0  0  0  0  0  0  0  0
    9.6026    1.2057   24.6276 H   0  0  0  0  0  0  0  0  0  0  0  0
    9.3596    2.2290   23.2378 H   0  0  0  0  0  0  0  0  0  0  0  0
    8.0683    0.4897   23.2524 H   0  0  0  0  0  0  0  0  0  0  0  0
    8.2749   -1.5586   21.1247 H   0  0  0  0  0  0  0  0  0  0  0  0
  1  2  1  0  0  0  0
  1  5  2  0  0  0  0
  2  6  2  0  0  0  0
  3  7  2  0  0  0  0
  3 13  1  0  0  0  0
  4  8  1  0  0  0  0
  4 13  2  0  0  0  0
  5 15  1  0  0  0  0
  6 16  1  0  0  0  0
  7 17  1  0  0  0  0
  8 17  2  0  0  0  0
  9 10  2  0  0  0  0
  9 14  1  0  0  0  0
 10 27  1  0  0  0  0
 11 14  2  0  0  0  0
 11 27  1  0  0  0  0
 12 22  2  0  0  0  0
 12 23  1  0  0  0  0
 13 21  1  0  0  0  0
 14 20  1  0  0  0  0
 15 16  2  0  0  0  0
 15 22  1  0  0  0  0
 16 23  1  0  0  0  0
 17 26  1  0  0  0  0
 18 21  1  0  0  0  0
 18 24  1  0  0  0  0
 18 25  2  0  0  0  0
 19 26  1  0  0  0  0
 20 21  1  1  0  0  0
 23 24  1  0  0  0  0
  1 28  1  0  0  0  0
  2 29  1  0  0  0  0
  3 30  1  0  0  0  0
  4 31  1  0  0  0  0
  5 32  1  0  0  0  0
  6 33  1  0  0  0  0
  7 34  1  0  0  0  0
  8 35  1  0  0  0  0
  9 36  1  0  0  0  0
 10 37  1  0  0  0  0
 11 38  1  0  0  0  0
 12 39  1  0  0  0  0
 19 40  1  0  0  0  0
 19 41  1  0  0  0  0
 19 42  1  0  0  0  0
 20 43  1  0  0  0  0
 20 44  1  0  0  0  0
 21 45  1  0  0  0  0
 24 46  1  0  0  0  0
M  END
> <clash_score>
0

> <docking_score>
-9.320626258850098

> <overlap_score>
0.9686253070831299

$$$$
BENZO_212_2
  -OEChem-08222022183D

 46 49  0     1  0  0  0  0  0999 V2000
    3.9160    2.0630   19.5520 C   0  0  0  0  0  0  0  0  0  0  0  0
    4.2750    1.7050   20.8490 C   0  0  0  0  0  0  0  0  0  0  0  0
    9.0720   -1.1280   24.8640 C   0  0  0  0  0  0  0  0  0  0  0  0
    9.7200   -2.2600   22.8630 C   0  0  0  0  0  0  0  0  0  0  0  0
    4.6890    1.6810   18.4640 C   0  0  0  0  0  0  0  0  0  0  0  0
    5.4210    0.9600   21.0930 C   0  0  0  0  0  0  0  0  0  0  0  0
    8.9960   -2.3380   25.5320 C   0  0  0  0  0  0  0  0  0  0  0  0
    9.6730   -3.4710   23.5300 C   0  0  0  0  0  0  0  0  0  0  0  0
   12.4120    0.7557   23.6805 C   0  0  0  0  0  0  0  0  0  0  0  0
   13.4422    0.6233   24.5853 C   0  0  0  0  0  0  0  0  0  0  0  0
   11.3265    1.2397   25.6779 C   0  0  0  0  0  0  0  0  0  0  0  0
    7.6390   -0.2680   18.5410 C   0  0  0  0  0  0  0  0  0  0  0  0
    9.3350   -1.0880   23.5010 C   0  0  0  0  0  0  0  0  0  0  0  0
   11.1864    1.1129   24.3133 C   0  0  0  0  0  0  0  0  0  0  0  0
    5.8300    0.9190   18.6970 C   0  0  0  0  0  0  0  0  0  0  0  0
    6.1790    0.5730   19.9990 C   0  0  0  0  0  0  0  0  0  0  0  0
    9.3070   -3.5340   24.8780 C   0  0  0  0  0  0  0  0  0  0  0  0
    9.0420    0.3700   21.5280 C   0  0  0  0  0  0  0  0  0  0  0  0
    8.8744   -4.6797   26.9022 C   0  0  0  0  0  0  0  0  0  0  0  0
    9.8870    1.3260   23.5730 C   0  0  0  0  0  0  0  0  0  0  0  0
    9.4560    0.1560   22.8130 C   0  0  2  0  0  0  0  0  0  0  0  0
    6.7580    0.3810   17.8350 N   0  0  0  0  0  0  0  0  0  0  0  0
    7.3170   -0.1610   19.8550 N   0  0  0  0  0  0  0  0  0  0  0  0
    8.1890   -0.7180   20.8700 N   0  0  0  0  0  0  0  0  0  0  0  0
    9.2690    1.4140   20.9380 O   0  0  0  0  0  0  0  0  0  0  0  0
    9.2567   -4.7121   25.5280 O   0  0  0  0  0  0  0  0  0  0  0  0
   12.9305    0.9290   26.1907 S   0  0  0  0  0  0  0  0  0  0  0  0
    3.0134    2.6521   19.3911 H   0  0  0  0  0  0  0  0  0  0  0  0
    3.6460    2.0127   21.6812 H   0  0  0  0  0  0  0  0  0  0  0  0
    8.9224   -0.1986   25.4209 H   0  0  0  0  0  0  0  0  0  0  0  0
   10.0638   -2.2321   21.8253 H   0  0  0  0  0  0  0  0  0  0  0  0
    4.4037    1.9731   17.4543 H   0  0  0  0  0  0  0  0  0  0  0  0
    5.7084    0.6923   22.1132 H   0  0  0  0  0  0  0  0  0  0  0  0
    8.6903   -2.3588   26.5807 H   0  0  0  0  0  0  0  0  0  0  0  0
    9.9258   -4.3917   22.9962 H   0  0  0  0  0  0  0  0  0  0  0  0
   12.5361    0.6022   22.6159 H   0  0  0  0  0  0  0  0  0  0  0  0
   14.4706    0.3610   24.3807 H   0  0  0  0  0  0  0  0  0  0  0  0
   10.5663    1.4985   26.4019 H   0  0  0  0  0  0  0  0  0  0  0  0
    8.4862   -0.8060   18.1787 H   0  0  0  0  0  0  0  0  0  0  0  0
    8.8744   -5.6954   27.3053 H   0  0  0  0  0  0  0  0  0  0  0  0
    7.8781   -4.2399   26.9939 H   0  0  0  0  0  0  0  0  0  0  0  0
    9.5921   -4.0702   27.4565 H   0  0  0  0  0  0  0  0  0  0  0  0
    9.1168    1.5904   24.3109 H   0  0  0  0  0  0  0  0  0  0  0  0
    9.9726    2.2073   22.9235 H   0  0  0  0  0  0  0  0  0  0  0  0
   10.7792   -0.1072   22.4110 H   0  0  0  0  0  0  0  0  0  0  0  0
    8.2749   -1.5586   21.1247 H   0  0  0  0  0  0  0  0  0  0  0  0
  1  2  1  0  0  0  0
  1  5  2  0  0  0  0
  2  6  2  0  0  0  0
  3  7  2  0  0  0  0
  3 13  1  0  0  0  0
  4  8  1  0  0  0  0
  4 13  2  0  0  0  0
  5 15  1  0  0  0  0
  6 16  1  0  0  0  0
  7 17  1  0  0  0  0
  8 17  2  0  0  0  0
  9 10  2  0  0  0  0
  9 14  1  0  0  0  0
 10 27  1  0  0  0  0
 11 14  2  0  0  0  0
 11 27  1  0  0  0  0
 12 22  2  0  0  0  0
 12 23  1  0  0  0  0
 13 21  1  0  0  0  0
 14 20  1  0  0  0  0
 15 16  2  0  0  0  0
 15 22  1  0  0  0  0
 16 23  1  0  0  0  0
 17 26  1  0  0  0  0
 18 21  1  0  0  0  0
 18 24  1  0  0  0  0
 18 25  2  0  0  0  0
 19 26  1  0  0  0  0
 20 21  1  6  0  0  0
 23 24  1  0  0  0  0
  1 28  1  0  0  0  0
  2 29  1  0  0  0  0
  3 30  1  0  0  0  0
  4 31  1  0  0  0  0
  5 32  1  0  0  0  0
  6 33  1  0  0  0  0
  7 34  1  0  0  0  0
  8 35  1  0  0  0  0
  9 36  1  0  0  0  0
 10 37  1  0  0  0  0
 11 38  1  0  0  0  0
 12 39  1  0  0  0  0
 19 40  1  0  0  0  0
 19 41  1  0  0  0  0
 19 42  1  0  0  0  0
 20 43  1  0  0  0  0
 20 44  1  0  0  0  0
 21 45  1  0  0  0  0
 24 46  1  0  0  0  0
M  END
> <clash_score>
0.6256218321189225

> <docking_score>
-7.441776275634766

> <overlap_score>
0.8925508260726929

$$$$
BENZO_213_1
  -OEChem-08222022183D

 49 52  0     1  0  0  0  0  0999 V2000
   14.1331    1.9885   23.4148 C   0  0  0  0  0  0  0  0  0  0  0  0
   13.2637    3.0696   23.5597 C   0  0  0  0  0  0  0  0  0  0  0  0
   13.6252    0.6927   23.3211 C   0  0  0  0  0  0  0  0  0  0  0  0
    3.9160    2.0630   19.5520 C   0  0  0  0  0  0  0  0  0  0  0  0
    4.2750    1.7050   20.8490 C   0  0  0  0  0  0  0  0  0  0  0  0
   11.8864    2.8549   23.6110 C   0  0  0  0  0  0  0  0  0  0  0  0
   12.2479    0.4781   23.3723 C   0  0  0  0  0  0  0  0  0  0  0  0
    9.0720   -1.1280   24.8640 C   0  0  0  0  0  0  0  0  0  0  0  0
    9.7200   -2.2600   22.8630 C   0  0  0  0  0  0  0  0  0  0  0  0
    4.6890    1.6810   18.4640 C   0  0  0  0  0  0  0  0  0  0  0  0
    5.4210    0.9600   21.0930 C   0  0  0  0  0  0  0  0  0  0  0  0
    8.9960   -2.3380   25.5320 C   0  0  0  0  0  0  0  0  0  0  0  0
    9.6730   -3.4710   23.5300 C   0  0  0  0  0  0  0  0  0  0  0  0
    7.6390   -0.2680   18.5410 C   0  0  0  0  0  0  0  0  0  0  0  0
   11.3785    1.5592   23.5173 C   0  0  0  0  0  0  0  0  0  0  0  0
    9.3350   -1.0880   23.5010 C   0  0  0  0  0  0  0  0  0  0  0  0
    5.8300    0.9190   18.6970 C   0  0  0  0  0  0  0  0  0  0  0  0
    6.1790    0.5730   19.9990 C   0  0  0  0  0  0  0  0  0  0  0  0
    9.3070   -3.5340   24.8780 C   0  0  0  0  0  0  0  0  0  0  0  0
    9.0420    0.3700   21.5280 C   0  0  0  0  0  0  0  0  0  0  0  0
    8.8744   -4.6797   26.9022 C   0  0  0  0  0  0  0  0  0  0  0  0
    9.8870    1.3260   23.5730 C   0  0  0  0  0  0  0  0  0  0  0  0
    9.4560    0.1560   22.8130 C   0  0  1  0  0  0  0  0  0  0  0  0
    6.7580    0.3810   17.8350 N   0  0  0  0  0  0  0  0  0  0  0  0
    7.3170   -0.1610   19.8550 N   0  0  0  0  0  0  0  0  0  0  0  0
    8.1890   -0.7180   20.8700 N   0  0  0  0  0  0  0  0  0  0  0  0
    9.2690    1.4140   20.9380 O   0  0  0  0  0  0  0  0  0  0  0  0
    9.2567   -4.7121   25.5280 O   0  0  0  0  0  0  0  0  0  0  0  0
   15.2054    2.1559   23.3735 H   0  0  0  0  0  0  0  0  0  0  0  0
   13.6589    4.0787   23.6316 H   0  0  0  0  0  0  0  0  0  0  0  0
   14.3017   -0.1491   23.2071 H   0  0  0  0  0  0  0  0  0  0  0  0
    3.0134    2.6521   19.3911 H   0  0  0  0  0  0  0  0  0  0  0  0
    3.6460    2.0127   21.6812 H   0  0  0  0  0  0  0  0  0  0  0  0
   11.2166    3.7033   23.7242 H   0  0  0  0  0  0  0  0  0  0  0  0
   11.8612   -0.5349   23.2987 H   0  0  0  0  0  0  0  0  0  0  0  0
    8.9224   -0.1986   25.4209 H   0  0  0  0  0  0  0  0  0  0  0  0
   10.0638   -2.2321   21.8253 H   0  0  0  0  0  0  0  0  0  0  0  0
    4.4037    1.9731   17.4543 H   0  0  0  0  0  0  0  0  0  0  0  0
    5.7084    0.6923   22.1132 H   0  0  0  0  0  0  0  0  0  0  0  0
    8.6903   -2.3588   26.5807 H   0  0  0  0  0  0  0  0  0  0  0  0
    9.9258   -4.3917   22.9962 H   0  0  0  0  0  0  0  0  0  0  0  0
    8.4862   -0.8060   18.1787 H   0  0  0  0  0  0  0  0  0  0  0  0
    8.8744   -5.6954   27.3053 H   0  0  0  0  0  0  0  0  0  0  0  0
    7.8781   -4.2399   26.9939 H   0  0  0  0  0  0  0  0  0  0  0  0
    9.5921   -4.0702   27.4565 H   0  0  0  0  0  0  0  0  0  0  0  0
    9.6026    1.2057   24.6276 H   0  0  0  0  0  0  0  0  0  0  0  0
    9.3596    2.2290   23.2378 H   0  0  0  0  0  0  0  0  0  0  0  0
    8.0683    0.4897   23.2524 H   0  0  0  0  0  0  0  0  0  0  0  0
    8.2749   -1.5586   21.1247 H   0  0  0  0  0  0  0  0  0  0  0  0
  1  2  1  0  0  0  0
  1  3  2  0  0  0  0
  2  6  2  0  0  0  0
  3  7  1  0  0  0  0
  4  5  1  0  0  0  0
  4 10  2  0  0  0  0
  5 11  2  0  0  0  0
  6 15  1  0  0  0  0
  7 15  2  0  0  0  0
  8 12  2  0  0  0  0
  8 16  1  0  0  0  0
  9 13  1  0  0  0  0
  9 16  2  0  0  0  0
 10 17  1  0  0  0  0
 11 18  1  0  0  0  0
 12 19  1  0  0  0  0
 13 19  2  0  0  0  0
 14 24  2  0  0  0  0
 14 25  1  0  0  0  0
 15 22  1  0  0  0  0
 16 23  1  0  0  0  0
 17 18  2  0  0  0  0
 17 24  1  0  0  0  0
 18 25  1  0  0  0  0
 19 28  1  0  0  0  0
 20 23  1  0  0  0  0
 20 26  1  0  0  0  0
 20 27  2  0  0  0  0
 21 28  1  0  0  0  0
 22 23  1  1  0  0  0
 25 26  1  0  0  0  0
  1 29  1  0  0  0  0
  2 30  1  0  0  0  0
  3 31  1  0  0  0  0
  4 32  1  0  0  0  0
  5 33  1  0  0  0  0
  6 34  1  0  0  0  0
  7 35  1  0  0  0  0
  8 36  1  0  0  0  0
  9 37  1  0  0  0  0
 10 38  1  0  0  0  0
 11 39  1  0  0  0  0
 12 40  1  0  0  0  0
 13 41  1  0  0  0  0
 14 42  1  0  0  0  0
 21 43  1  0  0  0  0
 21 44  1  0  0  0  0
 21 45  1  0  0  0  0
 22 46  1  0  0  0  0
 22 47  1  0  0  0  0
 23 48  1  0  0  0  0
 26 49  1  0  0  0  0
M  END
> <clash_score>
0

> <docking_score>
-8.868643760681152

> <overlap_score>
0.981942355632782

$$$$
BENZO_213_2
  -OEChem-08222022183D

 49 52  0     1  0  0  0  0  0999 V2000
   12.9176    3.6318   21.5749 C   0  0  0  0  0  0  0  0  0  0  0  0
   13.2831    2.5951   22.4336 C   0  0  0  0  0  0  0  0  0  0  0  0
   11.5692    3.9205   21.3646 C   0  0  0  0  0  0  0  0  0  0  0  0
    3.9160    2.0630   19.5520 C   0  0  0  0  0  0  0  0  0  0  0  0
    4.2750    1.7050   20.8490 C   0  0  0  0  0  0  0  0  0  0  0  0
   12.3003    1.8471   23.0818 C   0  0  0  0  0  0  0  0  0  0  0  0
   10.5864    3.1725   22.0128 C   0  0  0  0  0  0  0  0  0  0  0  0
    9.0720   -1.1280   24.8640 C   0  0  0  0  0  0  0  0  0  0  0  0
    9.7200   -2.2600   22.8630 C   0  0  0  0  0  0  0  0  0  0  0  0
    4.6890    1.6810   18.4640 C   0  0  0  0  0  0  0  0  0  0  0  0
    5.4210    0.9600   21.0930 C   0  0  0  0  0  0  0  0  0  0  0  0
    8.9960   -2.3380   25.5320 C   0  0  0  0  0  0  0  0  0  0  0  0
    9.6730   -3.4710   23.5300 C   0  0  0  0  0  0  0  0  0  0  0  0
    7.6390   -0.2680   18.5410 C   0  0  0  0  0  0  0  0  0  0  0  0
   10.9519    2.1358   22.8715 C   0  0  0  0  0  0  0  0  0  0  0  0
    9.3350   -1.0880   23.5010 C   0  0  0  0  0  0  0  0  0  0  0  0
    5.8300    0.9190   18.6970 C   0  0  0  0  0  0  0  0  0  0  0  0
    6.1790    0.5730   19.9990 C   0  0  0  0  0  0  0  0  0  0  0  0
    9.3070   -3.5340   24.8780 C   0  0  0  0  0  0  0  0  0  0  0  0
    9.0420    0.3700   21.5280 C   0  0  0  0  0  0  0  0  0  0  0  0
    9.5904   -5.8808   24.7807 C   0  0  0  0  0  0  0  0  0  0  0  0
    9.8870    1.3260   23.5730 C   0  0  0  0  0  0  0  0  0  0  0  0
    9.4560    0.1560   22.8130 C   0  0  2  0  0  0  0  0  0  0  0  0
    6.7580    0.3810   17.8350 N   0  0  0  0  0  0  0  0  0  0  0  0
    7.3170   -0.1610   19.8550 N   0  0  0  0  0  0  0  0  0  0  0  0
    8.1890   -0.7180   20.8700 N   0  0  0  0  0  0  0  0  0  0  0  0
    9.2690    1.4140   20.9380 O   0  0  0  0  0  0  0  0  0  0  0  0
    9.2567   -4.7121   25.5280 O   0  0  0  0  0  0  0  0  0  0  0  0
   13.6830    4.2150   21.0713 H   0  0  0  0  0  0  0  0  0  0  0  0
   14.3329    2.3708   22.5984 H   0  0  0  0  0  0  0  0  0  0  0  0
   11.2843    4.7283   20.6970 H   0  0  0  0  0  0  0  0  0  0  0  0
    3.0134    2.6521   19.3911 H   0  0  0  0  0  0  0  0  0  0  0  0
    3.6460    2.0127   21.6812 H   0  0  0  0  0  0  0  0  0  0  0  0
   12.5944    1.0411   23.7490 H   0  0  0  0  0  0  0  0  0  0  0  0
    9.5383    3.4046   21.8428 H   0  0  0  0  0  0  0  0  0  0  0  0
    8.9224   -0.1986   25.4209 H   0  0  0  0  0  0  0  0  0  0  0  0
   10.0638   -2.2321   21.8253 H   0  0  0  0  0  0  0  0  0  0  0  0
    4.4037    1.9731   17.4543 H   0  0  0  0  0  0  0  0  0  0  0  0
    5.7084    0.6923   22.1132 H   0  0  0  0  0  0  0  0  0  0  0  0
    8.6903   -2.3588   26.5807 H   0  0  0  0  0  0  0  0  0  0  0  0
    9.9258   -4.3917   22.9962 H   0  0  0  0  0  0  0  0  0  0  0  0
    8.4862   -0.8060   18.1787 H   0  0  0  0  0  0  0  0  0  0  0  0
    9.5095   -6.7607   25.4235 H   0  0  0  0  0  0  0  0  0  0  0  0
   10.6094   -5.7898   24.3961 H   0  0  0  0  0  0  0  0  0  0  0  0
    8.8947   -5.9784   23.9439 H   0  0  0  0  0  0  0  0  0  0  0  0
   10.2899    1.0067   24.5442 H   0  0  0  0  0  0  0  0  0  0  0  0
    9.0336    1.9722   23.8180 H   0  0  0  0  0  0  0  0  0  0  0  0
   10.7792   -0.1072   22.4110 H   0  0  0  0  0  0  0  0  0  0  0  0
    8.2749   -1.5586   21.1247 H   0  0  0  0  0  0  0  0  0  0  0  0
  1  2  1  0  0  0  0
  1  3  2  0  0  0  0
  2  6  2  0  0  0  0
  3  7  1  0  0  0  0
  4  5  1  0  0  0  0
  4 10  2  0  0  0  0
  5 11  2  0  0  0  0
  6 15  1  0  0  0  0
  7 15  2  0  0  0  0
  8 12  2  0  0  0  0
  8 16  1  0  0  0  0
  9 13  1  0  0  0  0
  9 16  2  0  0  0  0
 10 17  1  0  0  0  0
 11 18  1  0  0  0  0
 12 19  1  0  0  0  0
 13 19  2  0  0  0  0
 14 24  2  0  0  0  0
 14 25  1  0  0  0  0
 15 22  1  0  0  0  0
 16 23  1  0  0  0  0
 17 18  2  0  0  0  0
 17 24  1  0  0  0  0
 18 25  1  0  0  0  0
 19 28  1  0  0  0  0
 20 23  1  0  0  0  0
 20 26  1  0  0  0  0
 20 27  2  0  0  0  0
 21 28  1  0  0  0  0
 22 23  1  6  0  0  0
 25 26  1  0  0  0  0
  1 29  1  0  0  0  0
  2 30  1  0  0  0  0
  3 31  1  0  0  0  0
  4 32  1  0  0  0  0
  5 33  1  0  0  0  0
  6 34  1  0  0  0  0
  7 35  1  0  0  0  0
  8 36  1  0  0  0  0
  9 37  1  0  0  0  0
 10 38  1  0  0  0  0
 11 39  1  0  0  0  0
 12 40  1  0  0  0  0
 13 41  1  0  0  0  0
 14 42  1  0  0  0  0
 21 43  1  0  0  0  0
 21 44  1  0  0  0  0
 21 45  1  0  0  0  0
 22 46  1  0  0  0  0
 22 47  1  0  0  0  0
 23 48  1  0  0  0  0
 26 49  1  0  0  0  0
M  END
> <clash_score>
0.623169518521191

> <docking_score>
-8.886124610900879

> <overlap_score>
0.9407778382301331

$$$$
BENZO_215_2
  -OEChem-08222022183D

 49 52  0     1  0  0  0  0  0999 V2000
    3.9160    2.0630   19.5520 C   0  0  0  0  0  0  0  0  0  0  0  0
    4.2750    1.7050   20.8490 C   0  0  0  0  0  0  0  0  0  0  0  0
    9.0720   -1.1280   24.8640 C   0  0  0  0  0  0  0  0  0  0  0  0
    9.7200   -2.2600   22.8630 C   0  0  0  0  0  0  0  0  0  0  0  0
    4.6890    1.6810   18.4640 C   0  0  0  0  0  0  0  0  0  0  0  0
    5.4210    0.9600   21.0930 C   0  0  0  0  0  0  0  0  0  0  0  0
    8.9960   -2.3380   25.5320 C   0  0  0  0  0  0  0  0  0  0  0  0
    9.6730   -3.4710   23.5300 C   0  0  0  0  0  0  0  0  0  0  0  0
   12.3489    1.9871   22.9604 C   0  0  0  0  0  0  0  0  0  0  0  0
   10.7728    3.1825   22.0003 C   0  0  0  0  0  0  0  0  0  0  0  0
    7.6390   -0.2680   18.5410 C   0  0  0  0  0  0  0  0  0  0  0  0
    9.3350   -1.0880   23.5010 C   0  0  0  0  0  0  0  0  0  0  0  0
   10.9519    2.1358   22.8715 C   0  0  0  0  0  0  0  0  0  0  0  0
    5.8300    0.9190   18.6970 C   0  0  0  0  0  0  0  0  0  0  0  0
    6.1790    0.5730   19.9990 C   0  0  0  0  0  0  0  0  0  0  0  0
    9.3070   -3.5340   24.8780 C   0  0  0  0  0  0  0  0  0  0  0  0
    9.0420    0.3700   21.5280 C   0  0  0  0  0  0  0  0  0  0  0  0
   12.3501    4.6554   20.7270 C   0  0  0  0  0  0  0  0  0  0  0  0
    8.8744   -4.6797   26.9022 C   0  0  0  0  0  0  0  0  0  0  0  0
    9.8870    1.3260   23.5730 C   0  0  0  0  0  0  0  0  0  0  0  0
    9.4560    0.1560   22.8130 C   0  0  2  0  0  0  0  0  0  0  0  0
   13.0104    2.8686   22.2058 N   0  0  0  0  0  0  0  0  0  0  0  0
    6.7580    0.3810   17.8350 N   0  0  0  0  0  0  0  0  0  0  0  0
   12.0247    3.5812   21.6343 N   0  0  0  0  0  0  0  0  0  0  0  0
    7.3170   -0.1610   19.8550 N   0  0  0  0  0  0  0  0  0  0  0  0
    8.1890   -0.7180   20.8700 N   0  0  0  0  0  0  0  0  0  0  0  0
    9.2690    1.4140   20.9380 O   0  0  0  0  0  0  0  0  0  0  0  0
    9.2567   -4.7121   25.5280 O   0  0  0  0  0  0  0  0  0  0  0  0
    3.0134    2.6521   19.3911 H   0  0  0  0  0  0  0  0  0  0  0  0
    3.6460    2.0127   21.6812 H   0  0  0  0  0  0  0  0  0  0  0  0
    8.9224   -0.1986   25.4209 H   0  0  0  0  0  0  0  0  0  0  0  0
   10.0638   -2.2321   21.8253 H   0  0  0  0  0  0  0  0  0  0  0  0
    4.4037    1.9731   17.4543 H   0  0  0  0  0  0  0  0  0  0  0  0
    5.7084    0.6923   22.1132 H   0  0  0  0  0  0  0  0  0  0  0  0
    8.6903   -2.3588   26.5807 H   0  0  0  0  0  0  0  0  0  0  0  0
    9.9258   -4.3917   22.9962 H   0  0  0  0  0  0  0  0  0  0  0  0
   12.9149    1.2733   23.5422 H   0  0  0  0  0  0  0  0  0  0  0  0
    9.8832    3.6646   21.6181 H   0  0  0  0  0  0  0  0  0  0  0  0
    8.4862   -0.8060   18.1787 H   0  0  0  0  0  0  0  0  0  0  0  0
   12.4467    5.5737   21.3122 H   0  0  0  0  0  0  0  0  0  0  0  0
   13.2892    4.4277   20.2151 H   0  0  0  0  0  0  0  0  0  0  0  0
   11.5530    4.7557   19.9850 H   0  0  0  0  0  0  0  0  0  0  0  0
    8.8744   -5.6954   27.3053 H   0  0  0  0  0  0  0  0  0  0  0  0
    7.8781   -4.2399   26.9939 H   0  0  0  0  0  0  0  0  0  0  0  0
    9.5921   -4.0702   27.4565 H   0  0  0  0  0  0  0  0  0  0  0  0
   10.2899    1.0067   24.5442 H   0  0  0  0  0  0  0  0  0  0  0  0
    9.0336    1.9722   23.8180 H   0  0  0  0  0  0  0  0  0  0  0  0
   10.7792   -0.1072   22.4110 H   0  0  0  0  0  0  0  0  0  0  0  0
    8.2749   -1.5586   21.1247 H   0  0  0  0  0  0  0  0  0  0  0  0
  1  2  1  0  0  0  0
  1  5  2  0  0  0  0
  2  6  2  0  0  0  0
  3  7  2  0  0  0  0
  3 12  1  0  0  0  0
  4  8  1  0  0  0  0
  4 12  2  0  0  0  0
  5 14  1  0  0  0  0
  6 15  1  0  0  0  0
  7 16  1  0  0  0  0
  8 16  2  0  0  0  0
  9 13  1  0  0  0  0
  9 22  2  0  0  0  0
 10 13  2  0  0  0  0
 10 24  1  0  0  0  0
 11 23  2  0  0  0  0
 11 25  1  0  0  0  0
 12 21  1  0  0  0  0
 13 20  1  0  0  0  0
 14 15  2  0  0  0  0
 14 23  1  0  0  0  0
 15 25  1  0  0  0  0
 16 28  1  0  0  0  0
 17 21  1  0  0  0  0
 17 26  1  0  0  0  0
 17 27  2  0  0  0  0
 18 24  1  0  0  0  0
 19 28  1  0  0  0  0
 20 21  1  6  0  0  0
 22 24  1  0  0  0  0
 25 26  1  0  0  0  0
  1 29  1  0  0  0  0
  2 30  1  0  0  0  0
  3 31  1  0  0  0  0
  4 32  1  0  0  0  0
  5 33  1  0  0  0  0
  6 34  1  0  0  0  0
  7 35  1  0  0  0  0
  8 36  1  0  0  0  0
  9 37  1  0  0  0  0
 10 38  1  0  0  0  0
 11 39  1  0  0  0  0
 18 40  1  0  0  0  0
 18 41  1  0  0  0  0
 18 42  1  0  0  0  0
 19 43  1  0  0  0  0
 19 44  1  0  0  0  0
 19 45  1  0  0  0  0
 20 46  1  0  0  0  0
 20 47  1  0  0  0  0
 21 48  1  0  0  0  0
 26 49  1  0  0  0  0
M  END
> <clash_score>
0

> <docking_score>
-7.654603004455566

> <overlap_score>
0.9315462708473206

$$$$
BENZO_215_1
  -OEChem-08222022183D

 49 52  0     1  0  0  0  0  0999 V2000
    3.9160    2.0630   19.5520 C   0  0  0  0  0  0  0  0  0  0  0  0
    4.2750    1.7050   20.8490 C   0  0  0  0  0  0  0  0  0  0  0  0
    9.0720   -1.1280   24.8640 C   0  0  0  0  0  0  0  0  0  0  0  0
    9.7200   -2.2600   22.8630 C   0  0  0  0  0  0  0  0  0  0  0  0
    4.6890    1.6810   18.4640 C   0  0  0  0  0  0  0  0  0  0  0  0
    5.4210    0.9600   21.0930 C   0  0  0  0  0  0  0  0  0  0  0  0
    8.9960   -2.3380   25.5320 C   0  0  0  0  0  0  0  0  0  0  0  0
    9.6730   -3.4710   23.5300 C   0  0  0  0  0  0  0  0  0  0  0  0
   12.0646    2.7858   23.5979 C   0  0  0  0  0  0  0  0  0  0  0  0
   12.3704    0.6193   23.3790 C   0  0  0  0  0  0  0  0  0  0  0  0
    7.6390   -0.2680   18.5410 C   0  0  0  0  0  0  0  0  0  0  0  0
    9.3350   -1.0880   23.5010 C   0  0  0  0  0  0  0  0  0  0  0  0
   11.3785    1.5592   23.5173 C   0  0  0  0  0  0  0  0  0  0  0  0
    5.8300    0.9190   18.6970 C   0  0  0  0  0  0  0  0  0  0  0  0
    6.1790    0.5730   19.9990 C   0  0  0  0  0  0  0  0  0  0  0  0
    9.3070   -3.5340   24.8780 C   0  0  0  0  0  0  0  0  0  0  0  0
    9.0420    0.3700   21.5280 C   0  0  0  0  0  0  0  0  0  0  0  0
   14.8700    0.7541   23.2663 C   0  0  0  0  0  0  0  0  0  0  0  0
    8.8744   -4.6797   26.9022 C   0  0  0  0  0  0  0  0  0  0  0  0
    9.8870    1.3260   23.5730 C   0  0  0  0  0  0  0  0  0  0  0  0
    9.4560    0.1560   22.8130 C   0  0  1  0  0  0  0  0  0  0  0  0
   13.3900    2.6414   23.5177 N   0  0  0  0  0  0  0  0  0  0  0  0
    6.7580    0.3810   17.8350 N   0  0  0  0  0  0  0  0  0  0  0  0
   13.5447    1.3130   23.3854 N   0  0  0  0  0  0  0  0  0  0  0  0
    7.3170   -0.1610   19.8550 N   0  0  0  0  0  0  0  0  0  0  0  0
    8.1890   -0.7180   20.8700 N   0  0  0  0  0  0  0  0  0  0  0  0
    9.2690    1.4140   20.9380 O   0  0  0  0  0  0  0  0  0  0  0  0
    9.2567   -4.7121   25.5280 O   0  0  0  0  0  0  0  0  0  0  0  0
    3.0134    2.6521   19.3911 H   0  0  0  0  0  0  0  0  0  0  0  0
    3.6460    2.0127   21.6812 H   0  0  0  0  0  0  0  0  0  0  0  0
    8.9224   -0.1986   25.4209 H   0  0  0  0  0  0  0  0  0  0  0  0
   10.0638   -2.2321   21.8253 H   0  0  0  0  0  0  0  0  0  0  0  0
    4.4037    1.9731   17.4543 H   0  0  0  0  0  0  0  0  0  0  0  0
    5.7084    0.6923   22.1132 H   0  0  0  0  0  0  0  0  0  0  0  0
    8.6903   -2.3588   26.5807 H   0  0  0  0  0  0  0  0  0  0  0  0
    9.9258   -4.3917   22.9962 H   0  0  0  0  0  0  0  0  0  0  0  0
   11.6563    3.7799   23.7126 H   0  0  0  0  0  0  0  0  0  0  0  0
   12.3415   -0.4574   23.2805 H   0  0  0  0  0  0  0  0  0  0  0  0
    8.4862   -0.8060   18.1787 H   0  0  0  0  0  0  0  0  0  0  0  0
   15.1278    0.7207   22.2045 H   0  0  0  0  0  0  0  0  0  0  0  0
   15.5801    1.3811   23.8126 H   0  0  0  0  0  0  0  0  0  0  0  0
   14.8776   -0.2521   23.6945 H   0  0  0  0  0  0  0  0  0  0  0  0
    8.8744   -5.6954   27.3053 H   0  0  0  0  0  0  0  0  0  0  0  0
    7.8781   -4.2399   26.9939 H   0  0  0  0  0  0  0  0  0  0  0  0
    9.5921   -4.0702   27.4565 H   0  0  0  0  0  0  0  0  0  0  0  0
    9.6026    1.2057   24.6276 H   0  0  0  0  0  0  0  0  0  0  0  0
    9.3596    2.2290   23.2378 H   0  0  0  0  0  0  0  0  0  0  0  0
    8.0683    0.4897   23.2524 H   0  0  0  0  0  0  0  0  0  0  0  0
    8.2749   -1.5586   21.1247 H   0  0  0  0  0  0  0  0  0  0  0  0
  1  2  1  0  0  0  0
  1  5  2  0  0  0  0
  2  6  2  0  0  0  0
  3  7  2  0  0  0  0
  3 12  1  0  0  0  0
  4  8  1  0  0  0  0
  4 12  2  0  0  0  0
  5 14  1  0  0  0  0
  6 15  1  0  0  0  0
  7 16  1  0  0  0  0
  8 16  2  0  0  0  0
  9 13  1  0  0  0  0
  9 22  2  0  0  0  0
 10 13  2  0  0  0  0
 10 24  1  0  0  0  0
 11 23  2  0  0  0  0
 11 25  1  0  0  0  0
 12 21  1  0  0  0  0
 13 20  1  0  0  0  0
 14 15  2  0  0  0  0
 14 23  1  0  0  0  0
 15 25  1  0  0  0  0
 16 28  1  0  0  0  0
 17 21  1  0  0  0  0
 17 26  1  0  0  0  0
 17 27  2  0  0  0  0
 18 24  1  0  0  0  0
 19 28  1  0  0  0  0
 20 21  1  1  0  0  0
 22 24  1  0  0  0  0
 25 26  1  0  0  0  0
  1 29  1  0  0  0  0
  2 30  1  0  0  0  0
  3 31  1  0  0  0  0
  4 32  1  0  0  0  0
  5 33  1  0  0  0  0
  6 34  1  0  0  0  0
  7 35  1  0  0  0  0
  8 36  1  0  0  0  0
  9 37  1  0  0  0  0
 10 38  1  0  0  0  0
 11 39  1  0  0  0  0
 18 40  1  0  0  0  0
 18 41  1  0  0  0  0
 18 42  1  0  0  0  0
 19 43  1  0  0  0  0
 19 44  1  0  0  0  0
 19 45  1  0  0  0  0
 20 46  1  0  0  0  0
 20 47  1  0  0  0  0
 21 48  1  0  0  0  0
 26 49  1  0  0  0  0
M  END
> <clash_score>
0

> <docking_score>
-8.913191795349121

> <overlap_score>
0.9829103946685791

$$$$
BENZO_214_2
  -OEChem-08222022183D

 49 52  0     1  0  0  0  0  0999 V2000
    3.9160    2.0630   19.5520 C   0  0  0  0  0  0  0  0  0  0  0  0
    4.2750    1.7050   20.8490 C   0  0  0  0  0  0  0  0  0  0  0  0
   13.2836    2.5921   22.4338 C   0  0  0  0  0  0  0  0  0  0  0  0
   12.2999    1.8455   23.0821 C   0  0  0  0  0  0  0  0  0  0  0  0
    9.0720   -1.1280   24.8640 C   0  0  0  0  0  0  0  0  0  0  0  0
    9.7200   -2.2600   22.8630 C   0  0  0  0  0  0  0  0  0  0  0  0
    4.6890    1.6810   18.4640 C   0  0  0  0  0  0  0  0  0  0  0  0
    5.4210    0.9600   21.0930 C   0  0  0  0  0  0  0  0  0  0  0  0
    8.9960   -2.3380   25.5320 C   0  0  0  0  0  0  0  0  0  0  0  0
    9.6730   -3.4710   23.5300 C   0  0  0  0  0  0  0  0  0  0  0  0
   12.9195    3.6292   21.5749 C   0  0  0  0  0  0  0  0  0  0  0  0
   10.5877    3.1728   22.0126 C   0  0  0  0  0  0  0  0  0  0  0  0
    7.6390   -0.2680   18.5410 C   0  0  0  0  0  0  0  0  0  0  0  0
    9.3350   -1.0880   23.5010 C   0  0  0  0  0  0  0  0  0  0  0  0
   10.9519    2.1358   22.8715 C   0  0  0  0  0  0  0  0  0  0  0  0
    5.8300    0.9190   18.6970 C   0  0  0  0  0  0  0  0  0  0  0  0
    6.1790    0.5730   19.9990 C   0  0  0  0  0  0  0  0  0  0  0  0
    9.3070   -3.5340   24.8780 C   0  0  0  0  0  0  0  0  0  0  0  0
   11.5715    3.9195   21.3643 C   0  0  0  0  0  0  0  0  0  0  0  0
    9.0420    0.3700   21.5280 C   0  0  0  0  0  0  0  0  0  0  0  0
    9.5904   -5.8808   24.7807 C   0  0  0  0  0  0  0  0  0  0  0  0
    9.8870    1.3260   23.5730 C   0  0  0  0  0  0  0  0  0  0  0  0
    9.4560    0.1560   22.8130 C   0  0  2  0  0  0  0  0  0  0  0  0
    6.7580    0.3810   17.8350 N   0  0  0  0  0  0  0  0  0  0  0  0
    7.3170   -0.1610   19.8550 N   0  0  0  0  0  0  0  0  0  0  0  0
    8.1890   -0.7180   20.8700 N   0  0  0  0  0  0  0  0  0  0  0  0
    9.2690    1.4140   20.9380 O   0  0  0  0  0  0  0  0  0  0  0  0
    9.2567   -4.7121   25.5280 O   0  0  0  0  0  0  0  0  0  0  0  0
   11.1228    5.1983   20.3036 Cl  0  0  0  0  0  0  0  0  0  0  0  0
    3.0134    2.6521   19.3911 H   0  0  0  0  0  0  0  0  0  0  0  0
    3.6460    2.0127   21.6812 H   0  0  0  0  0  0  0  0  0  0  0  0
   14.3332    2.3656   22.5979 H   0  0  0  0  0  0  0  0  0  0  0  0
   12.5928    1.0392   23.7495 H   0  0  0  0  0  0  0  0  0  0  0  0
    8.9224   -0.1986   25.4209 H   0  0  0  0  0  0  0  0  0  0  0  0
   10.0638   -2.2321   21.8253 H   0  0  0  0  0  0  0  0  0  0  0  0
    4.4037    1.9731   17.4543 H   0  0  0  0  0  0  0  0  0  0  0  0
    5.7084    0.6923   22.1132 H   0  0  0  0  0  0  0  0  0  0  0  0
    8.6903   -2.3588   26.5807 H   0  0  0  0  0  0  0  0  0  0  0  0
    9.9258   -4.3917   22.9962 H   0  0  0  0  0  0  0  0  0  0  0  0
   13.6970    4.2025   21.0761 H   0  0  0  0  0  0  0  0  0  0  0  0
    9.5353    3.3956   21.8521 H   0  0  0  0  0  0  0  0  0  0  0  0
    8.4862   -0.8060   18.1787 H   0  0  0  0  0  0  0  0  0  0  0  0
    9.5095   -6.7607   25.4235 H   0  0  0  0  0  0  0  0  0  0  0  0
   10.6094   -5.7898   24.3961 H   0  0  0  0  0  0  0  0  0  0  0  0
    8.8947   -5.9784   23.9439 H   0  0  0  0  0  0  0  0  0  0  0  0
   10.2899    1.0067   24.5442 H   0  0  0  0  0  0  0  0  0  0  0  0
    9.0336    1.9722   23.8180 H   0  0  0  0  0  0  0  0  0  0  0  0
   10.7792   -0.1072   22.4110 H   0  0  0  0  0  0  0  0  0  0  0  0
    8.2749   -1.5586   21.1247 H   0  0  0  0  0  0  0  0  0  0  0  0
  1  2  1  0  0  0  0
  1  7  2  0  0  0  0
  2  8  2  0  0  0  0
  3  4  2  0  0  0  0
  3 11  1  0  0  0  0
  4 15  1  0  0  0  0
  5  9  2  0  0  0  0
  5 14  1  0  0  0  0
  6 10  1  0  0  0  0
  6 14  2  0  0  0  0
  7 16  1  0  0  0  0
  8 17  1  0  0  0  0
  9 18  1  0  0  0  0
 10 18  2  0  0  0  0
 11 19  2  0  0  0  0
 12 15  2  0  0  0  0
 12 19  1  0  0  0  0
 13 24  2  0  0  0  0
 13 25  1  0  0  0  0
 14 23  1  0  0  0  0
 15 22  1  0  0  0  0
 16 17  2  0  0  0  0
 16 24  1  0  0  0  0
 17 25  1  0  0  0  0
 18 28  1  0  0  0  0
 19 29  1  0  0  0  0
 20 23  1  0  0  0  0
 20 26  1  0  0  0  0
 20 27  2  0  0  0  0
 21 28  1  0  0  0  0
 22 23  1  6  0  0  0
 25 26  1  0  0  0  0
  1 30  1  0  0  0  0
  2 31  1  0  0  0  0
  3 32  1  0  0  0  0
  4 33  1  0  0  0  0
  5 34  1  0  0  0  0
  6 35  1  0  0  0  0
  7 36  1  0  0  0  0
  8 37  1  0  0  0  0
  9 38  1  0  0  0  0
 10 39  1  0  0  0  0
 11 40  1  0  0  0  0
 12 41  1  0  0  0  0
 13 42  1  0  0  0  0
 21 43  1  0  0  0  0
 21 44  1  0  0  0  0
 21 45  1  0  0  0  0
 22 46  1  0  0  0  0
 22 47  1  0  0  0  0
 23 48  1  0  0  0  0
 26 49  1  0  0  0  0
M  END
> <clash_score>
2.2169709590082354

> <docking_score>
-8.176657676696777

> <overlap_score>
0.9396181106567383

$$$$
BENZO_214_1
  -OEChem-08222022183D

 49 52  0     1  0  0  0  0  0999 V2000
    3.9160    2.0630   19.5520 C   0  0  0  0  0  0  0  0  0  0  0  0
    4.2750    1.7050   20.8490 C   0  0  0  0  0  0  0  0  0  0  0  0
   13.6250    0.6928   23.3186 C   0  0  0  0  0  0  0  0  0  0  0  0
   12.2478    0.4781   23.3713 C   0  0  0  0  0  0  0  0  0  0  0  0
    9.0720   -1.1280   24.8640 C   0  0  0  0  0  0  0  0  0  0  0  0
    9.7200   -2.2600   22.8630 C   0  0  0  0  0  0  0  0  0  0  0  0
    4.6890    1.6810   18.4640 C   0  0  0  0  0  0  0  0  0  0  0  0
    5.4210    0.9600   21.0930 C   0  0  0  0  0  0  0  0  0  0  0  0
    8.9960   -2.3380   25.5320 C   0  0  0  0  0  0  0  0  0  0  0  0
    9.6730   -3.4710   23.5300 C   0  0  0  0  0  0  0  0  0  0  0  0
   14.1329    1.9886   23.4121 C   0  0  0  0  0  0  0  0  0  0  0  0
   11.8864    2.8550   23.6107 C   0  0  0  0  0  0  0  0  0  0  0  0
    7.6390   -0.2680   18.5410 C   0  0  0  0  0  0  0  0  0  0  0  0
    9.3350   -1.0880   23.5010 C   0  0  0  0  0  0  0  0  0  0  0  0
   11.3785    1.5592   23.5173 C   0  0  0  0  0  0  0  0  0  0  0  0
    5.8300    0.9190   18.6970 C   0  0  0  0  0  0  0  0  0  0  0  0
    6.1790    0.5730   19.9990 C   0  0  0  0  0  0  0  0  0  0  0  0
    9.3070   -3.5340   24.8780 C   0  0  0  0  0  0  0  0  0  0  0  0
   13.2636    3.0696   23.5581 C   0  0  0  0  0  0  0  0  0  0  0  0
    9.0420    0.3700   21.5280 C   0  0  0  0  0  0  0  0  0  0  0  0
    8.8744   -4.6797   26.9022 C   0  0  0  0  0  0  0  0  0  0  0  0
    9.8870    1.3260   23.5730 C   0  0  0  0  0  0  0  0  0  0  0  0
    9.4560    0.1560   22.8130 C   0  0  1  0  0  0  0  0  0  0  0  0
    6.7580    0.3810   17.8350 N   0  0  0  0  0  0  0  0  0  0  0  0
    7.3170   -0.1610   19.8550 N   0  0  0  0  0  0  0  0  0  0  0  0
    8.1890   -0.7180   20.8700 N   0  0  0  0  0  0  0  0  0  0  0  0
    9.2690    1.4140   20.9380 O   0  0  0  0  0  0  0  0  0  0  0  0
    9.2567   -4.7121   25.5280 O   0  0  0  0  0  0  0  0  0  0  0  0
   13.8909    4.6682   23.6722 Cl  0  0  0  0  0  0  0  0  0  0  0  0
    3.0134    2.6521   19.3911 H   0  0  0  0  0  0  0  0  0  0  0  0
    3.6460    2.0127   21.6812 H   0  0  0  0  0  0  0  0  0  0  0  0
   14.3015   -0.1492   23.2047 H   0  0  0  0  0  0  0  0  0  0  0  0
   11.8608   -0.5349   23.2975 H   0  0  0  0  0  0  0  0  0  0  0  0
    8.9224   -0.1986   25.4209 H   0  0  0  0  0  0  0  0  0  0  0  0
   10.0638   -2.2321   21.8253 H   0  0  0  0  0  0  0  0  0  0  0  0
    4.4037    1.9731   17.4543 H   0  0  0  0  0  0  0  0  0  0  0  0
    5.7084    0.6923   22.1132 H   0  0  0  0  0  0  0  0  0  0  0  0
    8.6903   -2.3588   26.5807 H   0  0  0  0  0  0  0  0  0  0  0  0
    9.9258   -4.3917   22.9962 H   0  0  0  0  0  0  0  0  0  0  0  0
   15.2086    2.1410   23.3692 H   0  0  0  0  0  0  0  0  0  0  0  0
   11.2045    3.6944   23.7250 H   0  0  0  0  0  0  0  0  0  0  0  0
    8.4862   -0.8060   18.1787 H   0  0  0  0  0  0  0  0  0  0  0  0
    8.8744   -5.6954   27.3053 H   0  0  0  0  0  0  0  0  0  0  0  0
    7.8781   -4.2399   26.9939 H   0  0  0  0  0  0  0  0  0  0  0  0
    9.5921   -4.0702   27.4565 H   0  0  0  0  0  0  0  0  0  0  0  0
    9.6026    1.2057   24.6276 H   0  0  0  0  0  0  0  0  0  0  0  0
    9.3596    2.2290   23.2378 H   0  0  0  0  0  0  0  0  0  0  0  0
    8.0683    0.4897   23.2524 H   0  0  0  0  0  0  0  0  0  0  0  0
    8.2749   -1.5586   21.1247 H   0  0  0  0  0  0  0  0  0  0  0  0
  1  2  1  0  0  0  0
  1  7  2  0  0  0  0
  2  8  2  0  0  0  0
  3  4  2  0  0  0  0
  3 11  1  0  0  0  0
  4 15  1  0  0  0  0
  5  9  2  0  0  0  0
  5 14  1  0  0  0  0
  6 10  1  0  0  0  0
  6 14  2  0  0  0  0
  7 16  1  0  0  0  0
  8 17  1  0  0  0  0
  9 18  1  0  0  0  0
 10 18  2  0  0  0  0
 11 19  2  0  0  0  0
 12 15  2  0  0  0  0
 12 19  1  0  0  0  0
 13 24  2  0  0  0  0
 13 25  1  0  0  0  0
 14 23  1  0  0  0  0
 15 22  1  0  0  0  0
 16 17  2  0  0  0  0
 16 24  1  0  0  0  0
 17 25  1  0  0  0  0
 18 28  1  0  0  0  0
 19 29  1  0  0  0  0
 20 23  1  0  0  0  0
 20 26  1  0  0  0  0
 20 27  2  0  0  0  0
 21 28  1  0  0  0  0
 22 23  1  1  0  0  0
 25 26  1  0  0  0  0
  1 30  1  0  0  0  0
  2 31  1  0  0  0  0
  3 32  1  0  0  0  0
  4 33  1  0  0  0  0
  5 34  1  0  0  0  0
  6 35  1  0  0  0  0
  7 36  1  0  0  0  0
  8 37  1  0  0  0  0
  9 38  1  0  0  0  0
 10 39  1  0  0  0  0
 11 40  1  0  0  0  0
 12 41  1  0  0  0  0
 13 42  1  0  0  0  0
 21 43  1  0  0  0  0
 21 44  1  0  0  0  0
 21 45  1  0  0  0  0
 22 46  1  0  0  0  0
 22 47  1  0  0  0  0
 23 48  1  0  0  0  0
 26 49  1  0  0  0  0
M  END
> <clash_score>
0

> <docking_score>
-8.542448043823242

> <overlap_score>
0.9838544130325317

$$$$
BENZO_217_1
  -OEChem-08222022183D

 59 63  0     1  0  0  0  0  0999 V2000
   12.9099    3.6168   21.5463 C   0  0  0  0  0  0  0  0  0  0  0  0
   13.2786    2.5833   22.4074 C   0  0  0  0  0  0  0  0  0  0  0  0
   11.5608    3.9073   21.3428 C   0  0  0  0  0  0  0  0  0  0  0  0
    3.9160    2.0630   19.5520 C   0  0  0  0  0  0  0  0  0  0  0  0
    4.2750    1.7050   20.8490 C   0  0  0  0  0  0  0  0  0  0  0  0
   12.2983    1.8402   23.0649 C   0  0  0  0  0  0  0  0  0  0  0  0
   10.5805    3.1641   22.0003 C   0  0  0  0  0  0  0  0  0  0  0  0
    9.0720   -1.1280   24.8640 C   0  0  0  0  0  0  0  0  0  0  0  0
    9.7200   -2.2600   22.8630 C   0  0  0  0  0  0  0  0  0  0  0  0
    4.6890    1.6810   18.4640 C   0  0  0  0  0  0  0  0  0  0  0  0
    5.4210    0.9600   21.0930 C   0  0  0  0  0  0  0  0  0  0  0  0
    8.9960   -2.3380   25.5320 C   0  0  0  0  0  0  0  0  0  0  0  0
    9.6730   -3.4710   23.5300 C   0  0  0  0  0  0  0  0  0  0  0  0
    7.6390   -0.2680   18.5410 C   0  0  0  0  0  0  0  0  0  0  0  0
   10.9492    2.1306   22.8614 C   0  0  0  0  0  0  0  0  0  0  0  0
    9.3350   -1.0880   23.5010 C   0  0  0  0  0  0  0  0  0  0  0  0
    5.8300    0.9190   18.6970 C   0  0  0  0  0  0  0  0  0  0  0  0
    6.1790    0.5730   19.9990 C   0  0  0  0  0  0  0  0  0  0  0  0
    9.3070   -3.5340   24.8780 C   0  0  0  0  0  0  0  0  0  0  0  0
    8.3596   -5.0074   26.6306 C   0  0  0  0  0  0  0  0  0  0  0  0
    9.0420    0.3700   21.5280 C   0  0  0  0  0  0  0  0  0  0  0  0
    8.4719   -6.3982   27.2294 C   0  0  0  0  0  0  0  0  0  0  0  0
    9.9251   -6.7607   27.4801 C   0  0  0  0  0  0  0  0  0  0  0  0
   10.7833   -6.6095   26.2280 C   0  0  0  0  0  0  0  0  0  0  0  0
   10.0539   -5.9100   25.0821 C   0  0  0  0  0  0  0  0  0  0  0  0
    9.8870    1.3260   23.5730 C   0  0  0  0  0  0  0  0  0  0  0  0
    9.4560    0.1560   22.8130 C   0  0  1  0  0  0  0  0  0  0  0  0
    6.7580    0.3810   17.8350 N   0  0  0  0  0  0  0  0  0  0  0  0
    7.3170   -0.1610   19.8550 N   0  0  0  0  0  0  0  0  0  0  0  0
    9.2529   -4.7797   25.5643 N   0  0  0  0  0  0  0  0  0  0  0  0
    8.1890   -0.7180   20.8700 N   0  0  0  0  0  0  0  0  0  0  0  0
    7.4954   -4.2357   27.0448 O   0  0  0  0  0  0  0  0  0  0  0  0
    9.2690    1.4140   20.9380 O   0  0  0  0  0  0  0  0  0  0  0  0
   13.6733    4.1962   21.0354 H   0  0  0  0  0  0  0  0  0  0  0  0
   14.3290    2.3577   22.5668 H   0  0  0  0  0  0  0  0  0  0  0  0
   11.2734    4.7126   20.6733 H   0  0  0  0  0  0  0  0  0  0  0  0
    3.0134    2.6521   19.3911 H   0  0  0  0  0  0  0  0  0  0  0  0
    3.6460    2.0127   21.6812 H   0  0  0  0  0  0  0  0  0  0  0  0
   12.5948    1.0365   23.7339 H   0  0  0  0  0  0  0  0  0  0  0  0
    9.5319    3.3975   21.8356 H   0  0  0  0  0  0  0  0  0  0  0  0
    8.9202   -0.1986   25.4206 H   0  0  0  0  0  0  0  0  0  0  0  0
   10.0631   -2.2319   21.8252 H   0  0  0  0  0  0  0  0  0  0  0  0
    4.4037    1.9731   17.4543 H   0  0  0  0  0  0  0  0  0  0  0  0
    5.7084    0.6923   22.1132 H   0  0  0  0  0  0  0  0  0  0  0  0
    8.6898   -2.3534   26.5810 H   0  0  0  0  0  0  0  0  0  0  0  0
    9.9254   -4.3899   22.9914 H   0  0  0  0  0  0  0  0  0  0  0  0
    8.4862   -0.8060   18.1787 H   0  0  0  0  0  0  0  0  0  0  0  0
    7.9324   -6.4149   28.1639 H   0  0  0  0  0  0  0  0  0  0  0  0
    8.0254   -7.0921   26.5330 H   0  0  0  0  0  0  0  0  0  0  0  0
   10.3386   -6.1268   28.2921 H   0  0  0  0  0  0  0  0  0  0  0  0
    9.9903   -7.8025   27.8535 H   0  0  0  0  0  0  0  0  0  0  0  0
   11.7036   -6.0405   26.4770 H   0  0  0  0  0  0  0  0  0  0  0  0
   11.1411   -7.6069   25.8917 H   0  0  0  0  0  0  0  0  0  0  0  0
   10.7783   -5.5162   24.3756 H   0  0  0  0  0  0  0  0  0  0  0  0
    9.4042   -6.6189   24.5805 H   0  0  0  0  0  0  0  0  0  0  0  0
   10.2886    1.0255   24.5508 H   0  0  0  0  0  0  0  0  0  0  0  0
    9.0288    1.9709   23.8044 H   0  0  0  0  0  0  0  0  0  0  0  0
   10.7829   -0.1040   22.4083 H   0  0  0  0  0  0  0  0  0  0  0  0
    8.2487   -1.5564   21.0972 H   0  0  0  0  0  0  0  0  0  0  0  0
  1  2  1  0  0  0  0
  1  3  2  0  0  0  0
  2  6  2  0  0  0  0
  3  7  1  0  0  0  0
  4  5  1  0  0  0  0
  4 10  2  0  0  0  0
  5 11  2  0  0  0  0
  6 15  1  0  0  0  0
  7 15  2  0  0  0  0
  8 12  2  0  0  0  0
  8 16  1  0  0  0  0
  9 13  1  0  0  0  0
  9 16  2  0  0  0  0
 10 17  1  0  0  0  0
 11 18  1  0  0  0  0
 12 19  1  0  0  0  0
 13 19  2  0  0  0  0
 14 28  2  0  0  0  0
 14 29  1  0  0  0  0
 15 26  1  0  0  0  0
 16 27  1  0  0  0  0
 17 18  2  0  0  0  0
 17 28  1  0  0  0  0
 18 29  1  0  0  0  0
 19 30  1  0  0  0  0
 20 22  1  0  0  0  0
 20 30  1  0  0  0  0
 20 32  2  0  0  0  0
 21 27  1  1  0  0  0
 21 31  1  0  0  0  0
 21 33  2  0  0  0  0
 22 23  1  0  0  0  0
 23 24  1  0  0  0  0
 24 25  1  0  0  0  0
 25 30  1  0  0  0  0
 26 27  1  0  0  0  0
 29 31  1  0  0  0  0
  1 34  1  0  0  0  0
  2 35  1  0  0  0  0
  3 36  1  0  0  0  0
  4 37  1  0  0  0  0
  5 38  1  0  0  0  0
  6 39  1  0  0  0  0
  7 40  1  0  0  0  0
  8 41  1  0  0  0  0
  9 42  1  0  0  0  0
 10 43  1  0  0  0  0
 11 44  1  0  0  0  0
 12 45  1  0  0  0  0
 13 46  1  0  0  0  0
 14 47  1  0  0  0  0
 22 48  1  0  0  0  0
 22 49  1  0  0  0  0
 23 50  1  0  0  0  0
 23 51  1  0  0  0  0
 24 52  1  0  0  0  0
 24 53  1  0  0  0  0
 25 54  1  0  0  0  0
 25 55  1  0  0  0  0
 26 56  1  0  0  0  0
 26 57  1  0  0  0  0
 27 58  1  0  0  0  0
 31 59  1  0  0  0  0
M  END
> <clash_score>
1.4060999682170179

> <docking_score>
-8.230908393859863

> <overlap_score>
0.9801181554794312

$$$$
BENZO_217_2
  -OEChem-08222022183D

 59 63  0     1  0  0  0  0  0999 V2000
   14.1377    1.9562   23.4064 C   0  0  0  0  0  0  0  0  0  0  0  0
   13.5892    1.1645   24.4154 C   0  0  0  0  0  0  0  0  0  0  0  0
   13.3074    2.5435   22.4518 C   0  0  0  0  0  0  0  0  0  0  0  0
    3.9160    2.0630   19.5520 C   0  0  0  0  0  0  0  0  0  0  0  0
    4.2750    1.7050   20.8490 C   0  0  0  0  0  0  0  0  0  0  0  0
   12.2105    0.9600   24.4696 C   0  0  0  0  0  0  0  0  0  0  0  0
   11.9286    2.3390   22.5060 C   0  0  0  0  0  0  0  0  0  0  0  0
    9.0720   -1.1280   24.8640 C   0  0  0  0  0  0  0  0  0  0  0  0
    9.7200   -2.2600   22.8630 C   0  0  0  0  0  0  0  0  0  0  0  0
    4.6890    1.6810   18.4640 C   0  0  0  0  0  0  0  0  0  0  0  0
    5.4210    0.9600   21.0930 C   0  0  0  0  0  0  0  0  0  0  0  0
    8.9960   -2.3380   25.5320 C   0  0  0  0  0  0  0  0  0  0  0  0
    9.6730   -3.4710   23.5300 C   0  0  0  0  0  0  0  0  0  0  0  0
    7.6390   -0.2680   18.5410 C   0  0  0  0  0  0  0  0  0  0  0  0
   11.3802    1.5473   23.5150 C   0  0  0  0  0  0  0  0  0  0  0  0
    9.3350   -1.0880   23.5010 C   0  0  0  0  0  0  0  0  0  0  0  0
    5.8300    0.9190   18.6970 C   0  0  0  0  0  0  0  0  0  0  0  0
    6.1790    0.5730   19.9990 C   0  0  0  0  0  0  0  0  0  0  0  0
    9.3070   -3.5340   24.8780 C   0  0  0  0  0  0  0  0  0  0  0  0
    8.3596   -5.0074   26.6306 C   0  0  0  0  0  0  0  0  0  0  0  0
    9.0420    0.3700   21.5280 C   0  0  0  0  0  0  0  0  0  0  0  0
    8.4719   -6.3982   27.2294 C   0  0  0  0  0  0  0  0  0  0  0  0
    9.9251   -6.7607   27.4801 C   0  0  0  0  0  0  0  0  0  0  0  0
   10.7833   -6.6095   26.2280 C   0  0  0  0  0  0  0  0  0  0  0  0
   10.0539   -5.9100   25.0821 C   0  0  0  0  0  0  0  0  0  0  0  0
    9.8870    1.3260   23.5730 C   0  0  0  0  0  0  0  0  0  0  0  0
    9.4560    0.1560   22.8130 C   0  0  2  0  0  0  0  0  0  0  0  0
    6.7580    0.3810   17.8350 N   0  0  0  0  0  0  0  0  0  0  0  0
    7.3170   -0.1610   19.8550 N   0  0  0  0  0  0  0  0  0  0  0  0
    9.2529   -4.7797   25.5643 N   0  0  0  0  0  0  0  0  0  0  0  0
    8.1890   -0.7180   20.8700 N   0  0  0  0  0  0  0  0  0  0  0  0
    7.4954   -4.2357   27.0448 O   0  0  0  0  0  0  0  0  0  0  0  0
    9.2690    1.4140   20.9380 O   0  0  0  0  0  0  0  0  0  0  0  0
   15.2111    2.1165   23.3651 H   0  0  0  0  0  0  0  0  0  0  0  0
   14.2355    0.7080   25.1594 H   0  0  0  0  0  0  0  0  0  0  0  0
   13.7339    3.1609   21.6667 H   0  0  0  0  0  0  0  0  0  0  0  0
    3.0134    2.6521   19.3911 H   0  0  0  0  0  0  0  0  0  0  0  0
    3.6460    2.0128   21.6812 H   0  0  0  0  0  0  0  0  0  0  0  0
   11.7921    0.3414   25.2593 H   0  0  0  0  0  0  0  0  0  0  0  0
   11.2895    2.8005   21.7579 H   0  0  0  0  0  0  0  0  0  0  0  0
    8.9202   -0.1986   25.4206 H   0  0  0  0  0  0  0  0  0  0  0  0
   10.0631   -2.2319   21.8252 H   0  0  0  0  0  0  0  0  0  0  0  0
    4.4037    1.9731   17.4543 H   0  0  0  0  0  0  0  0  0  0  0  0
    5.7084    0.6923   22.1132 H   0  0  0  0  0  0  0  0  0  0  0  0
    8.6898   -2.3534   26.5810 H   0  0  0  0  0  0  0  0  0  0  0  0
    9.9254   -4.3899   22.9914 H   0  0  0  0  0  0  0  0  0  0  0  0
    8.4862   -0.8060   18.1787 H   0  0  0  0  0  0  0  0  0  0  0  0
    7.9324   -6.4149   28.1639 H   0  0  0  0  0  0  0  0  0  0  0  0
    8.0254   -7.0921   26.5330 H   0  0  0  0  0  0  0  0  0  0  0  0
   10.3386   -6.1268   28.2921 H   0  0  0  0  0  0  0  0  0  0  0  0
    9.9903   -7.8025   27.8535 H   0  0  0  0  0  0  0  0  0  0  0  0
   11.7036   -6.0405   26.4770 H   0  0  0  0  0  0  0  0  0  0  0  0
   11.1411   -7.6069   25.8917 H   0  0  0  0  0  0  0  0  0  0  0  0
   10.7783   -5.5162   24.3756 H   0  0  0  0  0  0  0  0  0  0  0  0
    9.4042   -6.6189   24.5805 H   0  0  0  0  0  0  0  0  0  0  0  0
    9.6004    1.2280   24.6293 H   0  0  0  0  0  0  0  0  0  0  0  0
    9.3666    2.2262   23.2198 H   0  0  0  0  0  0  0  0  0  0  0  0
    8.0666    0.4961   23.2504 H   0  0  0  0  0  0  0  0  0  0  0  0
    8.2487   -1.5564   21.0972 H   0  0  0  0  0  0  0  0  0  0  0  0
  1  2  1  0  0  0  0
  1  3  2  0  0  0  0
  2  6  2  0  0  0  0
  3  7  1  0  0  0  0
  4  5  1  0  0  0  0
  4 10  2  0  0  0  0
  5 11  2  0  0  0  0
  6 15  1  0  0  0  0
  7 15  2  0  0  0  0
  8 12  2  0  0  0  0
  8 16  1  0  0  0  0
  9 13  1  0  0  0  0
  9 16  2  0  0  0  0
 10 17  1  0  0  0  0
 11 18  1  0  0  0  0
 12 19  1  0  0  0  0
 13 19  2  0  0  0  0
 14 28  2  0  0  0  0
 14 29  1  0  0  0  0
 15 26  1  0  0  0  0
 16 27  1  0  0  0  0
 17 18  2  0  0  0  0
 17 28  1  0  0  0  0
 18 29  1  0  0  0  0
 19 30  1  0  0  0  0
 20 22  1  0  0  0  0
 20 30  1  0  0  0  0
 20 32  2  0  0  0  0
 21 27  1  6  0  0  0
 21 31  1  0  0  0  0
 21 33  2  0  0  0  0
 22 23  1  0  0  0  0
 23 24  1  0  0  0  0
 24 25  1  0  0  0  0
 25 30  1  0  0  0  0
 26 27  1  0  0  0  0
 29 31  1  0  0  0  0
  1 34  1  0  0  0  0
  2 35  1  0  0  0  0
  3 36  1  0  0  0  0
  4 37  1  0  0  0  0
  5 38  1  0  0  0  0
  6 39  1  0  0  0  0
  7 40  1  0  0  0  0
  8 41  1  0  0  0  0
  9 42  1  0  0  0  0
 10 43  1  0  0  0  0
 11 44  1  0  0  0  0
 12 45  1  0  0  0  0
 13 46  1  0  0  0  0
 14 47  1  0  0  0  0
 22 48  1  0  0  0  0
 22 49  1  0  0  0  0
 23 50  1  0  0  0  0
 23 51  1  0  0  0  0
 24 52  1  0  0  0  0
 24 53  1  0  0  0  0
 25 54  1  0  0  0  0
 25 55  1  0  0  0  0
 26 56  1  0  0  0  0
 26 57  1  0  0  0  0
 27 58  1  0  0  0  0
 31 59  1  0  0  0  0
M  END
> <clash_score>
0.7790931276820443

> <docking_score>
-8.407885551452637

> <overlap_score>
1.0178078413009644

$$$$
BENZO_216_1
  -OEChem-08222022183D

 56 60  0     1  0  0  0  0  0999 V2000
    3.9160    2.0630   19.5520 C   0  0  0  0  0  0  0  0  0  0  0  0
    4.2750    1.7050   20.8490 C   0  0  0  0  0  0  0  0  0  0  0  0
    9.0720   -1.1280   24.8640 C   0  0  0  0  0  0  0  0  0  0  0  0
    9.7200   -2.2600   22.8630 C   0  0  0  0  0  0  0  0  0  0  0  0
    4.6890    1.6810   18.4640 C   0  0  0  0  0  0  0  0  0  0  0  0
    5.4210    0.9600   21.0930 C   0  0  0  0  0  0  0  0  0  0  0  0
    8.9960   -2.3380   25.5320 C   0  0  0  0  0  0  0  0  0  0  0  0
    9.6730   -3.4710   23.5300 C   0  0  0  0  0  0  0  0  0  0  0  0
   12.4051    0.7237   23.6691 C   0  0  0  0  0  0  0  0  0  0  0  0
   13.4398    0.5874   24.5682 C   0  0  0  0  0  0  0  0  0  0  0  0
   11.3401    1.2429   25.6687 C   0  0  0  0  0  0  0  0  0  0  0  0
    7.6390   -0.2680   18.5410 C   0  0  0  0  0  0  0  0  0  0  0  0
    9.3350   -1.0880   23.5010 C   0  0  0  0  0  0  0  0  0  0  0  0
   11.1887    1.1036   24.3065 C   0  0  0  0  0  0  0  0  0  0  0  0
    5.8300    0.9190   18.6970 C   0  0  0  0  0  0  0  0  0  0  0  0
    6.1790    0.5730   19.9990 C   0  0  0  0  0  0  0  0  0  0  0  0
    9.3070   -3.5340   24.8780 C   0  0  0  0  0  0  0  0  0  0  0  0
    8.3596   -5.0074   26.6306 C   0  0  0  0  0  0  0  0  0  0  0  0
    9.0420    0.3700   21.5280 C   0  0  0  0  0  0  0  0  0  0  0  0
    8.4719   -6.3982   27.2294 C   0  0  0  0  0  0  0  0  0  0  0  0
    9.9251   -6.7607   27.4801 C   0  0  0  0  0  0  0  0  0  0  0  0
   10.7833   -6.6095   26.2280 C   0  0  0  0  0  0  0  0  0  0  0  0
   10.0539   -5.9100   25.0821 C   0  0  0  0  0  0  0  0  0  0  0  0
    9.8870    1.3260   23.5730 C   0  0  0  0  0  0  0  0  0  0  0  0
    9.4560    0.1560   22.8130 C   0  0  1  0  0  0  0  0  0  0  0  0
    6.7580    0.3810   17.8350 N   0  0  0  0  0  0  0  0  0  0  0  0
    7.3170   -0.1610   19.8550 N   0  0  0  0  0  0  0  0  0  0  0  0
    9.2529   -4.7797   25.5643 N   0  0  0  0  0  0  0  0  0  0  0  0
    8.1890   -0.7180   20.8700 N   0  0  0  0  0  0  0  0  0  0  0  0
    7.4954   -4.2357   27.0448 O   0  0  0  0  0  0  0  0  0  0  0  0
    9.2690    1.4140   20.9380 O   0  0  0  0  0  0  0  0  0  0  0  0
   12.9434    0.9166   26.1737 S   0  0  0  0  0  0  0  0  0  0  0  0
    3.0134    2.6521   19.3911 H   0  0  0  0  0  0  0  0  0  0  0  0
    3.6460    2.0127   21.6812 H   0  0  0  0  0  0  0  0  0  0  0  0
    8.9202   -0.1986   25.4206 H   0  0  0  0  0  0  0  0  0  0  0  0
   10.0631   -2.2319   21.8252 H   0  0  0  0  0  0  0  0  0  0  0  0
    4.4037    1.9731   17.4543 H   0  0  0  0  0  0  0  0  0  0  0  0
    5.7084    0.6923   22.1132 H   0  0  0  0  0  0  0  0  0  0  0  0
    8.6898   -2.3534   26.5810 H   0  0  0  0  0  0  0  0  0  0  0  0
    9.9254   -4.3899   22.9914 H   0  0  0  0  0  0  0  0  0  0  0  0
   12.5196    0.5575   22.6054 H   0  0  0  0  0  0  0  0  0  0  0  0
   14.4632    0.3095   24.3593 H   0  0  0  0  0  0  0  0  0  0  0  0
   10.5884    1.5193   26.3951 H   0  0  0  0  0  0  0  0  0  0  0  0
    8.4862   -0.8060   18.1787 H   0  0  0  0  0  0  0  0  0  0  0  0
    7.9324   -6.4149   28.1639 H   0  0  0  0  0  0  0  0  0  0  0  0
    8.0254   -7.0921   26.5330 H   0  0  0  0  0  0  0  0  0  0  0  0
   10.3386   -6.1268   28.2921 H   0  0  0  0  0  0  0  0  0  0  0  0
    9.9903   -7.8025   27.8535 H   0  0  0  0  0  0  0  0  0  0  0  0
   11.7036   -6.0405   26.4770 H   0  0  0  0  0  0  0  0  0  0  0  0
   11.1411   -7.6069   25.8917 H   0  0  0  0  0  0  0  0  0  0  0  0
   10.7783   -5.5162   24.3756 H   0  0  0  0  0  0  0  0  0  0  0  0
    9.4042   -6.6189   24.5805 H   0  0  0  0  0  0  0  0  0  0  0  0
    9.1255    1.6082   24.3133 H   0  0  0  0  0  0  0  0  0  0  0  0
    9.9795    2.1993   22.9136 H   0  0  0  0  0  0  0  0  0  0  0  0
   10.7829   -0.1040   22.4083 H   0  0  0  0  0  0  0  0  0  0  0  0
    8.2487   -1.5564   21.0972 H   0  0  0  0  0  0  0  0  0  0  0  0
  1  2  1  0  0  0  0
  1  5  2  0  0  0  0
  2  6  2  0  0  0  0
  3  7  2  0  0  0  0
  3 13  1  0  0  0  0
  4  8  1  0  0  0  0
  4 13  2  0  0  0  0
  5 15  1  0  0  0  0
  6 16  1  0  0  0  0
  7 17  1  0  0  0  0
  8 17  2  0  0  0  0
  9 10  2  0  0  0  0
  9 14  1  0  0  0  0
 10 32  1  0  0  0  0
 11 14  2  0  0  0  0
 11 32  1  0  0  0  0
 12 26  2  0  0  0  0
 12 27  1  0  0  0  0
 13 25  1  0  0  0  0
 14 24  1  0  0  0  0
 15 16  2  0  0  0  0
 15 26  1  0  0  0  0
 16 27  1  0  0  0  0
 17 28  1  0  0  0  0
 18 20  1  0  0  0  0
 18 28  1  0  0  0  0
 18 30  2  0  0  0  0
 19 25  1  1  0  0  0
 19 29  1  0  0  0  0
 19 31  2  0  0  0  0
 20 21  1  0  0  0  0
 21 22  1  0  0  0  0
 22 23  1  0  0  0  0
 23 28  1  0  0  0  0
 24 25  1  0  0  0  0
 27 29  1  0  0  0  0
  1 33  1  0  0  0  0
  2 34  1  0  0  0  0
  3 35  1  0  0  0  0
  4 36  1  0  0  0  0
  5 37  1  0  0  0  0
  6 38  1  0  0  0  0
  7 39  1  0  0  0  0
  8 40  1  0  0  0  0
  9 41  1  0  0  0  0
 10 42  1  0  0  0  0
 11 43  1  0  0  0  0
 12 44  1  0  0  0  0
 20 45  1  0  0  0  0
 20 46  1  0  0  0  0
 21 47  1  0  0  0  0
 21 48  1  0  0  0  0
 22 49  1  0  0  0  0
 22 50  1  0  0  0  0
 23 51  1  0  0  0  0
 23 52  1  0  0  0  0
 24 53  1  0  0  0  0
 24 54  1  0  0  0  0
 25 55  1  0  0  0  0
 29 56  1  0  0  0  0
M  END
> <clash_score>
1.4001415030051607

> <docking_score>
-6.792398452758789

> <overlap_score>
0.935579776763916

$$$$
BENZO_216_2
  -OEChem-08222022183D

 56 60  0     1  0  0  0  0  0999 V2000
    3.9160    2.0630   19.5520 C   0  0  0  0  0  0  0  0  0  0  0  0
    4.2750    1.7050   20.8490 C   0  0  0  0  0  0  0  0  0  0  0  0
    9.0720   -1.1280   24.8640 C   0  0  0  0  0  0  0  0  0  0  0  0
    9.7200   -2.2600   22.8630 C   0  0  0  0  0  0  0  0  0  0  0  0
    4.6890    1.6810   18.4640 C   0  0  0  0  0  0  0  0  0  0  0  0
    5.4210    0.9600   21.0930 C   0  0  0  0  0  0  0  0  0  0  0  0
    8.9960   -2.3380   25.5320 C   0  0  0  0  0  0  0  0  0  0  0  0
    9.6730   -3.4710   23.5300 C   0  0  0  0  0  0  0  0  0  0  0  0
   12.3363    0.4950   23.4224 C   0  0  0  0  0  0  0  0  0  0  0  0
   13.6283    0.9714   23.3861 C   0  0  0  0  0  0  0  0  0  0  0  0
   11.9779    2.7881   23.5462 C   0  0  0  0  0  0  0  0  0  0  0  0
    7.6390   -0.2680   18.5410 C   0  0  0  0  0  0  0  0  0  0  0  0
    9.3350   -1.0880   23.5010 C   0  0  0  0  0  0  0  0  0  0  0  0
   11.3802    1.5473   23.5150 C   0  0  0  0  0  0  0  0  0  0  0  0
    5.8300    0.9190   18.6970 C   0  0  0  0  0  0  0  0  0  0  0  0
    6.1790    0.5730   19.9990 C   0  0  0  0  0  0  0  0  0  0  0  0
    9.3070   -3.5340   24.8780 C   0  0  0  0  0  0  0  0  0  0  0  0
    8.3596   -5.0074   26.6306 C   0  0  0  0  0  0  0  0  0  0  0  0
    9.0420    0.3700   21.5280 C   0  0  0  0  0  0  0  0  0  0  0  0
    8.4719   -6.3982   27.2294 C   0  0  0  0  0  0  0  0  0  0  0  0
    9.9251   -6.7607   27.4801 C   0  0  0  0  0  0  0  0  0  0  0  0
   10.7833   -6.6095   26.2280 C   0  0  0  0  0  0  0  0  0  0  0  0
   10.0539   -5.9100   25.0821 C   0  0  0  0  0  0  0  0  0  0  0  0
    9.8870    1.3260   23.5730 C   0  0  0  0  0  0  0  0  0  0  0  0
    9.4560    0.1560   22.8130 C   0  0  2  0  0  0  0  0  0  0  0  0
    6.7580    0.3810   17.8350 N   0  0  0  0  0  0  0  0  0  0  0  0
    7.3170   -0.1610   19.8550 N   0  0  0  0  0  0  0  0  0  0  0  0
    9.2529   -4.7797   25.5643 N   0  0  0  0  0  0  0  0  0  0  0  0
    8.1890   -0.7180   20.8700 N   0  0  0  0  0  0  0  0  0  0  0  0
    7.4954   -4.2357   27.0448 O   0  0  0  0  0  0  0  0  0  0  0  0
    9.2690    1.4140   20.9380 O   0  0  0  0  0  0  0  0  0  0  0  0
   13.6850    2.6812   23.4637 S   0  0  0  0  0  0  0  0  0  0  0  0
    3.0134    2.6521   19.3911 H   0  0  0  0  0  0  0  0  0  0  0  0
    3.6460    2.0128   21.6812 H   0  0  0  0  0  0  0  0  0  0  0  0
    8.9202   -0.1986   25.4206 H   0  0  0  0  0  0  0  0  0  0  0  0
   10.0631   -2.2319   21.8252 H   0  0  0  0  0  0  0  0  0  0  0  0
    4.4037    1.9731   17.4543 H   0  0  0  0  0  0  0  0  0  0  0  0
    5.7084    0.6923   22.1132 H   0  0  0  0  0  0  0  0  0  0  0  0
    8.6898   -2.3534   26.5810 H   0  0  0  0  0  0  0  0  0  0  0  0
    9.9254   -4.3899   22.9914 H   0  0  0  0  0  0  0  0  0  0  0  0
   12.0932   -0.5594   23.3845 H   0  0  0  0  0  0  0  0  0  0  0  0
   14.5417    0.3974   23.3185 H   0  0  0  0  0  0  0  0  0  0  0  0
   11.4978    3.7544   23.6146 H   0  0  0  0  0  0  0  0  0  0  0  0
    8.4862   -0.8060   18.1787 H   0  0  0  0  0  0  0  0  0  0  0  0
    7.9324   -6.4149   28.1639 H   0  0  0  0  0  0  0  0  0  0  0  0
    8.0254   -7.0921   26.5330 H   0  0  0  0  0  0  0  0  0  0  0  0
   10.3386   -6.1268   28.2921 H   0  0  0  0  0  0  0  0  0  0  0  0
    9.9903   -7.8025   27.8535 H   0  0  0  0  0  0  0  0  0  0  0  0
   11.7036   -6.0405   26.4770 H   0  0  0  0  0  0  0  0  0  0  0  0
   11.1411   -7.6069   25.8917 H   0  0  0  0  0  0  0  0  0  0  0  0
   10.7783   -5.5162   24.3756 H   0  0  0  0  0  0  0  0  0  0  0  0
    9.4042   -6.6189   24.5805 H   0  0  0  0  0  0  0  0  0  0  0  0
    9.6004    1.2280   24.6293 H   0  0  0  0  0  0  0  0  0  0  0  0
    9.3666    2.2262   23.2198 H   0  0  0  0  0  0  0  0  0  0  0  0
    8.0666    0.4961   23.2504 H   0  0  0  0  0  0  0  0  0  0  0  0
    8.2487   -1.5564   21.0972 H   0  0  0  0  0  0  0  0  0  0  0  0
  1  2  1  0  0  0  0
  1  5  2  0  0  0  0
  2  6  2  0  0  0  0
  3  7  2  0  0  0  0
  3 13  1  0  0  0  0
  4  8  1  0  0  0  0
  4 13  2  0  0  0  0
  5 15  1  0  0  0  0
  6 16  1  0  0  0  0
  7 17  1  0  0  0  0
  8 17  2  0  0  0  0
  9 10  2  0  0  0  0
  9 14  1  0  0  0  0
 10 32  1  0  0  0  0
 11 14  2  0  0  0  0
 11 32  1  0  0  0  0
 12 26  2  0  0  0  0
 12 27  1  0  0  0  0
 13 25  1  0  0  0  0
 14 24  1  0  0  0  0
 15 16  2  0  0  0  0
 15 26  1  0  0  0  0
 16 27  1  0  0  0  0
 17 28  1  0  0  0  0
 18 20  1  0  0  0  0
 18 28  1  0  0  0  0
 18 30  2  0  0  0  0
 19 25  1  6  0  0  0
 19 29  1  0  0  0  0
 19 31  2  0  0  0  0
 20 21  1  0  0  0  0
 21 22  1  0  0  0  0
 22 23  1  0  0  0  0
 23 28  1  0  0  0  0
 24 25  1  0  0  0  0
 27 29  1  0  0  0  0
  1 33  1  0  0  0  0
  2 34  1  0  0  0  0
  3 35  1  0  0  0  0
  4 36  1  0  0  0  0
  5 37  1  0  0  0  0
  6 38  1  0  0  0  0
  7 39  1  0  0  0  0
  8 40  1  0  0  0  0
  9 41  1  0  0  0  0
 10 42  1  0  0  0  0
 11 43  1  0  0  0  0
 12 44  1  0  0  0  0
 20 45  1  0  0  0  0
 20 46  1  0  0  0  0
 21 47  1  0  0  0  0
 21 48  1  0  0  0  0
 22 49  1  0  0  0  0
 22 50  1  0  0  0  0
 23 51  1  0  0  0  0
 23 52  1  0  0  0  0
 24 53  1  0  0  0  0
 24 54  1  0  0  0  0
 25 55  1  0  0  0  0
 29 56  1  0  0  0  0
M  END
> <clash_score>
0.7790931276820443

> <docking_score>
-8.701728820800781

> <overlap_score>
1.0088375806808472

$$$$
BENZO_218_1
  -OEChem-08222022183D

 59 63  0     1  0  0  0  0  0999 V2000
    3.9160    2.0630   19.5520 C   0  0  0  0  0  0  0  0  0  0  0  0
    4.2750    1.7050   20.8490 C   0  0  0  0  0  0  0  0  0  0  0  0
   13.2791    2.5803   22.4075 C   0  0  0  0  0  0  0  0  0  0  0  0
   12.2978    1.8385   23.0652 C   0  0  0  0  0  0  0  0  0  0  0  0
    9.0720   -1.1280   24.8640 C   0  0  0  0  0  0  0  0  0  0  0  0
    9.7200   -2.2600   22.8630 C   0  0  0  0  0  0  0  0  0  0  0  0
    4.6890    1.6810   18.4640 C   0  0  0  0  0  0  0  0  0  0  0  0
    5.4210    0.9600   21.0930 C   0  0  0  0  0  0  0  0  0  0  0  0
    8.9960   -2.3380   25.5320 C   0  0  0  0  0  0  0  0  0  0  0  0
    9.6730   -3.4710   23.5300 C   0  0  0  0  0  0  0  0  0  0  0  0
   12.9118    3.6142   21.5462 C   0  0  0  0  0  0  0  0  0  0  0  0
   10.5818    3.1644   22.0001 C   0  0  0  0  0  0  0  0  0  0  0  0
    7.6390   -0.2680   18.5410 C   0  0  0  0  0  0  0  0  0  0  0  0
    9.3350   -1.0880   23.5010 C   0  0  0  0  0  0  0  0  0  0  0  0
   10.9492    2.1306   22.8614 C   0  0  0  0  0  0  0  0  0  0  0  0
    5.8300    0.9190   18.6970 C   0  0  0  0  0  0  0  0  0  0  0  0
    6.1790    0.5730   19.9990 C   0  0  0  0  0  0  0  0  0  0  0  0
    9.3070   -3.5340   24.8780 C   0  0  0  0  0  0  0  0  0  0  0  0
   11.5631    3.9062   21.3425 C   0  0  0  0  0  0  0  0  0  0  0  0
    8.3596   -5.0074   26.6306 C   0  0  0  0  0  0  0  0  0  0  0  0
    9.0420    0.3700   21.5280 C   0  0  0  0  0  0  0  0  0  0  0  0
    8.4719   -6.3982   27.2294 C   0  0  0  0  0  0  0  0  0  0  0  0
    9.9251   -6.7607   27.4801 C   0  0  0  0  0  0  0  0  0  0  0  0
   10.7833   -6.6095   26.2280 C   0  0  0  0  0  0  0  0  0  0  0  0
   10.0539   -5.9100   25.0821 C   0  0  0  0  0  0  0  0  0  0  0  0
    9.8870    1.3260   23.5730 C   0  0  0  0  0  0  0  0  0  0  0  0
    9.4560    0.1560   22.8130 C   0  0  1  0  0  0  0  0  0  0  0  0
    6.7580    0.3810   17.8350 N   0  0  0  0  0  0  0  0  0  0  0  0
    7.3170   -0.1610   19.8550 N   0  0  0  0  0  0  0  0  0  0  0  0
    9.2529   -4.7797   25.5643 N   0  0  0  0  0  0  0  0  0  0  0  0
    8.1890   -0.7180   20.8700 N   0  0  0  0  0  0  0  0  0  0  0  0
    7.4954   -4.2357   27.0448 O   0  0  0  0  0  0  0  0  0  0  0  0
    9.2690    1.4140   20.9380 O   0  0  0  0  0  0  0  0  0  0  0  0
   11.1105    5.1811   20.2788 Cl  0  0  0  0  0  0  0  0  0  0  0  0
    3.0134    2.6521   19.3911 H   0  0  0  0  0  0  0  0  0  0  0  0
    3.6460    2.0127   21.6812 H   0  0  0  0  0  0  0  0  0  0  0  0
   14.3292    2.3525   22.5664 H   0  0  0  0  0  0  0  0  0  0  0  0
   12.5932    1.0347   23.7344 H   0  0  0  0  0  0  0  0  0  0  0  0
    8.9202   -0.1986   25.4206 H   0  0  0  0  0  0  0  0  0  0  0  0
   10.0631   -2.2319   21.8252 H   0  0  0  0  0  0  0  0  0  0  0  0
    4.4037    1.9731   17.4543 H   0  0  0  0  0  0  0  0  0  0  0  0
    5.7084    0.6923   22.1132 H   0  0  0  0  0  0  0  0  0  0  0  0
    8.6898   -2.3534   26.5810 H   0  0  0  0  0  0  0  0  0  0  0  0
    9.9254   -4.3899   22.9914 H   0  0  0  0  0  0  0  0  0  0  0  0
   13.6874    4.1838   21.0402 H   0  0  0  0  0  0  0  0  0  0  0  0
    9.5289    3.3885   21.8450 H   0  0  0  0  0  0  0  0  0  0  0  0
    8.4862   -0.8060   18.1787 H   0  0  0  0  0  0  0  0  0  0  0  0
    7.9324   -6.4149   28.1639 H   0  0  0  0  0  0  0  0  0  0  0  0
    8.0254   -7.0921   26.5330 H   0  0  0  0  0  0  0  0  0  0  0  0
   10.3386   -6.1268   28.2921 H   0  0  0  0  0  0  0  0  0  0  0  0
    9.9903   -7.8025   27.8535 H   0  0  0  0  0  0  0  0  0  0  0  0
   11.7036   -6.0405   26.4770 H   0  0  0  0  0  0  0  0  0  0  0  0
   11.1411   -7.6069   25.8917 H   0  0  0  0  0  0  0  0  0  0  0  0
   10.7783   -5.5162   24.3756 H   0  0  0  0  0  0  0  0  0  0  0  0
    9.4042   -6.6189   24.5805 H   0  0  0  0  0  0  0  0  0  0  0  0
   10.2886    1.0255   24.5508 H   0  0  0  0  0  0  0  0  0  0  0  0
    9.0288    1.9709   23.8044 H   0  0  0  0  0  0  0  0  0  0  0  0
   10.7829   -0.1040   22.4083 H   0  0  0  0  0  0  0  0  0  0  0  0
    8.2487   -1.5564   21.0972 H   0  0  0  0  0  0  0  0  0  0  0  0
  1  2  1  0  0  0  0
  1  7  2  0  0  0  0
  2  8  2  0  0  0  0
  3  4  2  0  0  0  0
  3 11  1  0  0  0  0
  4 15  1  0  0  0  0
  5  9  2  0  0  0  0
  5 14  1  0  0  0  0
  6 10  1  0  0  0  0
  6 14  2  0  0  0  0
  7 16  1  0  0  0  0
  8 17  1  0  0  0  0
  9 18  1  0  0  0  0
 10 18  2  0  0  0  0
 11 19  2  0  0  0  0
 12 15  2  0  0  0  0
 12 19  1  0  0  0  0
 13 28  2  0  0  0  0
 13 29  1  0  0  0  0
 14 27  1  0  0  0  0
 15 26  1  0  0  0  0
 16 17  2  0  0  0  0
 16 28  1  0  0  0  0
 17 29  1  0  0  0  0
 18 30  1  0  0  0  0
 19 34  1  0  0  0  0
 20 22  1  0  0  0  0
 20 30  1  0  0  0  0
 20 32  2  0  0  0  0
 21 27  1  1  0  0  0
 21 31  1  0  0  0  0
 21 33  2  0  0  0  0
 22 23  1  0  0  0  0
 23 24  1  0  0  0  0
 24 25  1  0  0  0  0
 25 30  1  0  0  0  0
 26 27  1  0  0  0  0
 29 31  1  0  0  0  0
  1 35  1  0  0  0  0
  2 36  1  0  0  0  0
  3 37  1  0  0  0  0
  4 38  1  0  0  0  0
  5 39  1  0  0  0  0
  6 40  1  0  0  0  0
  7 41  1  0  0  0  0
  8 42  1  0  0  0  0
  9 43  1  0  0  0  0
 10 44  1  0  0  0  0
 11 45  1  0  0  0  0
 12 46  1  0  0  0  0
 13 47  1  0  0  0  0
 22 48  1  0  0  0  0
 22 49  1  0  0  0  0
 23 50  1  0  0  0  0
 23 51  1  0  0  0  0
 24 52  1  0  0  0  0
 24 53  1  0  0  0  0
 25 54  1  0  0  0  0
 25 55  1  0  0  0  0
 26 56  1  0  0  0  0
 26 57  1  0  0  0  0
 27 58  1  0  0  0  0
 31 59  1  0  0  0  0
M  END
> <clash_score>
3.012938789336351

> <docking_score>
-7.5218915939331055

> <overlap_score>
0.9789112210273743

$$$$
BENZO_219_2
  -OEChem-08222022183D

 59 63  0     1  0  0  0  0  0999 V2000
    3.9160    2.0630   19.5520 C   0  0  0  0  0  0  0  0  0  0  0  0
    4.2750    1.7050   20.8490 C   0  0  0  0  0  0  0  0  0  0  0  0
    9.0720   -1.1280   24.8640 C   0  0  0  0  0  0  0  0  0  0  0  0
    9.7200   -2.2600   22.8630 C   0  0  0  0  0  0  0  0  0  0  0  0
    4.6890    1.6810   18.4640 C   0  0  0  0  0  0  0  0  0  0  0  0
    5.4210    0.9600   21.0930 C   0  0  0  0  0  0  0  0  0  0  0  0
    8.9960   -2.3380   25.5320 C   0  0  0  0  0  0  0  0  0  0  0  0
    9.6730   -3.4710   23.5300 C   0  0  0  0  0  0  0  0  0  0  0  0
   12.3465    1.9795   22.9425 C   0  0  0  0  0  0  0  0  0  0  0  0
   10.7668    3.1736   21.9866 C   0  0  0  0  0  0  0  0  0  0  0  0
    7.6390   -0.2680   18.5410 C   0  0  0  0  0  0  0  0  0  0  0  0
    9.3350   -1.0880   23.5010 C   0  0  0  0  0  0  0  0  0  0  0  0
   10.9492    2.1306   22.8614 C   0  0  0  0  0  0  0  0  0  0  0  0
    5.8300    0.9190   18.6970 C   0  0  0  0  0  0  0  0  0  0  0  0
    6.1790    0.5730   19.9990 C   0  0  0  0  0  0  0  0  0  0  0  0
    9.3070   -3.5340   24.8780 C   0  0  0  0  0  0  0  0  0  0  0  0
    8.3596   -5.0074   26.6306 C   0  0  0  0  0  0  0  0  0  0  0  0
    9.0420    0.3700   21.5280 C   0  0  0  0  0  0  0  0  0  0  0  0
    8.4719   -6.3982   27.2294 C   0  0  0  0  0  0  0  0  0  0  0  0
    9.9251   -6.7607   27.4801 C   0  0  0  0  0  0  0  0  0  0  0  0
   10.7833   -6.6095   26.2280 C   0  0  0  0  0  0  0  0  0  0  0  0
   10.0539   -5.9100   25.0821 C   0  0  0  0  0  0  0  0  0  0  0  0
   12.3393    4.6377   20.6972 C   0  0  0  0  0  0  0  0  0  0  0  0
    9.8870    1.3260   23.5730 C   0  0  0  0  0  0  0  0  0  0  0  0
    9.4560    0.1560   22.8130 C   0  0  2  0  0  0  0  0  0  0  0  0
   13.0051    2.8563   22.1800 N   0  0  0  0  0  0  0  0  0  0  0  0
    6.7580    0.3810   17.8350 N   0  0  0  0  0  0  0  0  0  0  0  0
   12.0173    3.5683   21.6113 N   0  0  0  0  0  0  0  0  0  0  0  0
    7.3170   -0.1610   19.8550 N   0  0  0  0  0  0  0  0  0  0  0  0
    9.2529   -4.7797   25.5643 N   0  0  0  0  0  0  0  0  0  0  0  0
    8.1890   -0.7180   20.8700 N   0  0  0  0  0  0  0  0  0  0  0  0
    7.4954   -4.2357   27.0448 O   0  0  0  0  0  0  0  0  0  0  0  0
    9.2690    1.4140   20.9380 O   0  0  0  0  0  0  0  0  0  0  0  0
    3.0134    2.6521   19.3911 H   0  0  0  0  0  0  0  0  0  0  0  0
    3.6460    2.0127   21.6812 H   0  0  0  0  0  0  0  0  0  0  0  0
    8.9202   -0.1986   25.4206 H   0  0  0  0  0  0  0  0  0  0  0  0
   10.0631   -2.2319   21.8252 H   0  0  0  0  0  0  0  0  0  0  0  0
    4.4037    1.9731   17.4543 H   0  0  0  0  0  0  0  0  0  0  0  0
    5.7084    0.6923   22.1132 H   0  0  0  0  0  0  0  0  0  0  0  0
    8.6898   -2.3534   26.5810 H   0  0  0  0  0  0  0  0  0  0  0  0
    9.9254   -4.3899   22.9914 H   0  0  0  0  0  0  0  0  0  0  0  0
   12.9145    1.2672   23.5241 H   0  0  0  0  0  0  0  0  0  0  0  0
    9.8759    3.6558   21.6076 H   0  0  0  0  0  0  0  0  0  0  0  0
    8.4862   -0.8060   18.1787 H   0  0  0  0  0  0  0  0  0  0  0  0
    7.9324   -6.4149   28.1639 H   0  0  0  0  0  0  0  0  0  0  0  0
    8.0254   -7.0921   26.5330 H   0  0  0  0  0  0  0  0  0  0  0  0
   10.3386   -6.1268   28.2921 H   0  0  0  0  0  0  0  0  0  0  0  0
    9.9903   -7.8025   27.8535 H   0  0  0  0  0  0  0  0  0  0  0  0
   11.7036   -6.0405   26.4770 H   0  0  0  0  0  0  0  0  0  0  0  0
   11.1411   -7.6069   25.8917 H   0  0  0  0  0  0  0  0  0  0  0  0
   10.7783   -5.5162   24.3756 H   0  0  0  0  0  0  0  0  0  0  0  0
    9.4042   -6.6189   24.5805 H   0  0  0  0  0  0  0  0  0  0  0  0
   12.4412    5.5584   21.2777 H   0  0  0  0  0  0  0  0  0  0  0  0
   13.2748    4.4059   20.1806 H   0  0  0  0  0  0  0  0  0  0  0  0
   11.5379    4.7362   19.9596 H   0  0  0  0  0  0  0  0  0  0  0  0
   10.2886    1.0255   24.5508 H   0  0  0  0  0  0  0  0  0  0  0  0
    9.0288    1.9709   23.8044 H   0  0  0  0  0  0  0  0  0  0  0  0
   10.7829   -0.1040   22.4083 H   0  0  0  0  0  0  0  0  0  0  0  0
    8.2487   -1.5564   21.0972 H   0  0  0  0  0  0  0  0  0  0  0  0
  1  2  1  0  0  0  0
  1  5  2  0  0  0  0
  2  6  2  0  0  0  0
  3  7  2  0  0  0  0
  3 12  1  0  0  0  0
  4  8  1  0  0  0  0
  4 12  2  0  0  0  0
  5 14  1  0  0  0  0
  6 15  1  0  0  0  0
  7 16  1  0  0  0  0
  8 16  2  0  0  0  0
  9 13  1  0  0  0  0
  9 26  2  0  0  0  0
 10 13  2  0  0  0  0
 10 28  1  0  0  0  0
 11 27  2  0  0  0  0
 11 29  1  0  0  0  0
 12 25  1  0  0  0  0
 13 24  1  0  0  0  0
 14 15  2  0  0  0  0
 14 27  1  0  0  0  0
 15 29  1  0  0  0  0
 16 30  1  0  0  0  0
 17 19  1  0  0  0  0
 17 30  1  0  0  0  0
 17 32  2  0  0  0  0
 18 25  1  0  0  0  0
 18 31  1  0  0  0  0
 18 33  2  0  0  0  0
 19 20  1  0  0  0  0
 20 21  1  0  0  0  0
 21 22  1  0  0  0  0
 22 30  1  0  0  0  0
 23 28  1  0  0  0  0
 24 25  1  6  0  0  0
 26 28  1  0  0  0  0
 29 31  1  0  0  0  0
  1 34  1  0  0  0  0
  2 35  1  0  0  0  0
  3 36  1  0  0  0  0
  4 37  1  0  0  0  0
  5 38  1  0  0  0  0
  6 39  1  0  0  0  0
  7 40  1  0  0  0  0
  8 41  1  0  0  0  0
  9 42  1  0  0  0  0
 10 43  1  0  0  0  0
 11 44  1  0  0  0  0
 19 45  1  0  0  0  0
 19 46  1  0  0  0  0
 20 47  1  0  0  0  0
 20 48  1  0  0  0  0
 21 49  1  0  0  0  0
 21 50  1  0  0  0  0
 22 51  1  0  0  0  0
 22 52  1  0  0  0  0
 23 53  1  0  0  0  0
 23 54  1  0  0  0  0
 23 55  1  0  0  0  0
 24 56  1  0  0  0  0
 24 57  1  0  0  0  0
 25 58  1  0  0  0  0
 31 59  1  0  0  0  0
M  END
> <clash_score>
0.7790931276820443

> <docking_score>
-6.9675397872924805

> <overlap_score>
0.973365843296051

$$$$
BENZO_221_1
  -OEChem-08222022183D

 58 62  0     1  0  0  0  0  0999 V2000
   12.9099    3.6168   21.5462 C   0  0  0  0  0  0  0  0  0  0  0  0
   13.2786    2.5833   22.4073 C   0  0  0  0  0  0  0  0  0  0  0  0
   11.5608    3.9073   21.3428 C   0  0  0  0  0  0  0  0  0  0  0  0
    3.9160    2.0630   19.5520 C   0  0  0  0  0  0  0  0  0  0  0  0
    4.2750    1.7050   20.8490 C   0  0  0  0  0  0  0  0  0  0  0  0
   12.2983    1.8401   23.0649 C   0  0  0  0  0  0  0  0  0  0  0  0
   10.5805    3.1641   22.0003 C   0  0  0  0  0  0  0  0  0  0  0  0
    9.0720   -1.1280   24.8640 C   0  0  0  0  0  0  0  0  0  0  0  0
    9.7200   -2.2600   22.8630 C   0  0  0  0  0  0  0  0  0  0  0  0
    4.6890    1.6810   18.4640 C   0  0  0  0  0  0  0  0  0  0  0  0
    5.4210    0.9600   21.0930 C   0  0  0  0  0  0  0  0  0  0  0  0
    8.9960   -2.3380   25.5320 C   0  0  0  0  0  0  0  0  0  0  0  0
    9.6730   -3.4710   23.5300 C   0  0  0  0  0  0  0  0  0  0  0  0
    7.6390   -0.2680   18.5410 C   0  0  0  0  0  0  0  0  0  0  0  0
   10.9492    2.1306   22.8614 C   0  0  0  0  0  0  0  0  0  0  0  0
    9.3350   -1.0880   23.5010 C   0  0  0  0  0  0  0  0  0  0  0  0
    5.8300    0.9190   18.6970 C   0  0  0  0  0  0  0  0  0  0  0  0
    6.1790    0.5730   19.9990 C   0  0  0  0  0  0  0  0  0  0  0  0
    9.3070   -3.5340   24.8780 C   0  0  0  0  0  0  0  0  0  0  0  0
    9.0420    0.3700   21.5280 C   0  0  0  0  0  0  0  0  0  0  0  0
    9.5176   -4.8600   26.9769 C   0  0  0  0  0  0  0  0  0  0  0  0
    8.5166   -5.8725   24.9805 C   0  0  0  0  0  0  0  0  0  0  0  0
    8.1870   -5.0443   27.6986 C   0  0  0  0  0  0  0  0  0  0  0  0
    7.2201   -6.0348   25.7753 C   0  0  0  0  0  0  0  0  0  0  0  0
    9.8870    1.3260   23.5730 C   0  0  0  0  0  0  0  0  0  0  0  0
    9.4560    0.1560   22.8130 C   0  0  1  0  0  0  0  0  0  0  0  0
    6.7580    0.3810   17.8350 N   0  0  0  0  0  0  0  0  0  0  0  0
    7.3170   -0.1610   19.8550 N   0  0  0  0  0  0  0  0  0  0  0  0
    9.2564   -4.7368   25.5411 N   0  0  0  0  0  0  0  0  0  0  0  0
    8.1890   -0.7180   20.8700 N   0  0  0  0  0  0  0  0  0  0  0  0
    9.2690    1.4140   20.9380 O   0  0  0  0  0  0  0  0  0  0  0  0
    7.4995   -6.1856   27.1717 O   0  0  0  0  0  0  0  0  0  0  0  0
   13.6733    4.1962   21.0354 H   0  0  0  0  0  0  0  0  0  0  0  0
   14.3290    2.3577   22.5667 H   0  0  0  0  0  0  0  0  0  0  0  0
   11.2734    4.7126   20.6733 H   0  0  0  0  0  0  0  0  0  0  0  0
    3.0134    2.6521   19.3911 H   0  0  0  0  0  0  0  0  0  0  0  0
    3.6460    2.0127   21.6812 H   0  0  0  0  0  0  0  0  0  0  0  0
   12.5949    1.0365   23.7338 H   0  0  0  0  0  0  0  0  0  0  0  0
    9.5319    3.3975   21.8356 H   0  0  0  0  0  0  0  0  0  0  0  0
    8.9214   -0.1986   25.4206 H   0  0  0  0  0  0  0  0  0  0  0  0
   10.0622   -2.2326   21.8251 H   0  0  0  0  0  0  0  0  0  0  0  0
    4.4037    1.9731   17.4543 H   0  0  0  0  0  0  0  0  0  0  0  0
    5.7084    0.6923   22.1132 H   0  0  0  0  0  0  0  0  0  0  0  0
    8.6882   -2.3542   26.5803 H   0  0  0  0  0  0  0  0  0  0  0  0
    9.9258   -4.3896   22.9914 H   0  0  0  0  0  0  0  0  0  0  0  0
    8.4862   -0.8060   18.1787 H   0  0  0  0  0  0  0  0  0  0  0  0
   10.0207   -3.9702   27.3608 H   0  0  0  0  0  0  0  0  0  0  0  0
   10.1536   -5.7313   27.1546 H   0  0  0  0  0  0  0  0  0  0  0  0
    9.1181   -6.7774   25.0751 H   0  0  0  0  0  0  0  0  0  0  0  0
    8.2812   -5.7063   23.9302 H   0  0  0  0  0  0  0  0  0  0  0  0
    8.3631   -5.2257   28.7609 H   0  0  0  0  0  0  0  0  0  0  0  0
    7.5532   -4.1574   27.6103 H   0  0  0  0  0  0  0  0  0  0  0  0
    6.5460   -5.1840   25.6220 H   0  0  0  0  0  0  0  0  0  0  0  0
    6.6948   -6.9355   25.4433 H   0  0  0  0  0  0  0  0  0  0  0  0
   10.2886    1.0256   24.5508 H   0  0  0  0  0  0  0  0  0  0  0  0
    9.0288    1.9709   23.8044 H   0  0  0  0  0  0  0  0  0  0  0  0
   10.7829   -0.1040   22.4083 H   0  0  0  0  0  0  0  0  0  0  0  0
    8.2487   -1.5564   21.0972 H   0  0  0  0  0  0  0  0  0  0  0  0
  1  2  1  0  0  0  0
  1  3  2  0  0  0  0
  2  6  2  0  0  0  0
  3  7  1  0  0  0  0
  4  5  1  0  0  0  0
  4 10  2  0  0  0  0
  5 11  2  0  0  0  0
  6 15  1  0  0  0  0
  7 15  2  0  0  0  0
  8 12  2  0  0  0  0
  8 16  1  0  0  0  0
  9 13  1  0  0  0  0
  9 16  2  0  0  0  0
 10 17  1  0  0  0  0
 11 18  1  0  0  0  0
 12 19  1  0  0  0  0
 13 19  2  0  0  0  0
 14 27  2  0  0  0  0
 14 28  1  0  0  0  0
 15 25  1  0  0  0  0
 16 26  1  0  0  0  0
 17 18  2  0  0  0  0
 17 27  1  0  0  0  0
 18 28  1  0  0  0  0
 19 29  1  0  0  0  0
 20 26  1  1  0  0  0
 20 30  1  0  0  0  0
 20 31  2  0  0  0  0
 21 23  1  0  0  0  0
 21 29  1  0  0  0  0
 22 24  1  0  0  0  0
 22 29  1  0  0  0  0
 23 32  1  0  0  0  0
 24 32  1  0  0  0  0
 25 26  1  0  0  0  0
 28 30  1  0  0  0  0
  1 33  1  0  0  0  0
  2 34  1  0  0  0  0
  3 35  1  0  0  0  0
  4 36  1  0  0  0  0
  5 37  1  0  0  0  0
  6 38  1  0  0  0  0
  7 39  1  0  0  0  0
  8 40  1  0  0  0  0
  9 41  1  0  0  0  0
 10 42  1  0  0  0  0
 11 43  1  0  0  0  0
 12 44  1  0  0  0  0
 13 45  1  0  0  0  0
 14 46  1  0  0  0  0
 21 47  1  0  0  0  0
 21 48  1  0  0  0  0
 22 49  1  0  0  0  0
 22 50  1  0  0  0  0
 23 51  1  0  0  0  0
 23 52  1  0  0  0  0
 24 53  1  0  0  0  0
 24 54  1  0  0  0  0
 25 55  1  0  0  0  0
 25 56  1  0  0  0  0
 26 57  1  0  0  0  0
 30 58  1  0  0  0  0
M  END
> <clash_score>
0.6270116611195339

> <docking_score>
-9.174592018127441

> <overlap_score>
0.9700440168380737

$$$$
BENZO_219_1
  -OEChem-08222022183D

 59 63  0     1  0  0  0  0  0999 V2000
    3.9160    2.0630   19.5520 C   0  0  0  0  0  0  0  0  0  0  0  0
    4.2750    1.7050   20.8490 C   0  0  0  0  0  0  0  0  0  0  0  0
    9.0720   -1.1280   24.8640 C   0  0  0  0  0  0  0  0  0  0  0  0
    9.7200   -2.2600   22.8630 C   0  0  0  0  0  0  0  0  0  0  0  0
    4.6890    1.6810   18.4640 C   0  0  0  0  0  0  0  0  0  0  0  0
    5.4210    0.9600   21.0930 C   0  0  0  0  0  0  0  0  0  0  0  0
    8.9960   -2.3380   25.5320 C   0  0  0  0  0  0  0  0  0  0  0  0
    9.6730   -3.4710   23.5300 C   0  0  0  0  0  0  0  0  0  0  0  0
   12.0761    2.7685   23.5923 C   0  0  0  0  0  0  0  0  0  0  0  0
   12.3645    0.5993   23.3773 C   0  0  0  0  0  0  0  0  0  0  0  0
    7.6390   -0.2680   18.5410 C   0  0  0  0  0  0  0  0  0  0  0  0
    9.3350   -1.0880   23.5010 C   0  0  0  0  0  0  0  0  0  0  0  0
   11.3802    1.5473   23.5150 C   0  0  0  0  0  0  0  0  0  0  0  0
    5.8300    0.9190   18.6970 C   0  0  0  0  0  0  0  0  0  0  0  0
    6.1790    0.5730   19.9990 C   0  0  0  0  0  0  0  0  0  0  0  0
    9.3070   -3.5340   24.8780 C   0  0  0  0  0  0  0  0  0  0  0  0
    8.3596   -5.0074   26.6306 C   0  0  0  0  0  0  0  0  0  0  0  0
    9.0420    0.3700   21.5280 C   0  0  0  0  0  0  0  0  0  0  0  0
    8.4719   -6.3982   27.2294 C   0  0  0  0  0  0  0  0  0  0  0  0
    9.9251   -6.7607   27.4801 C   0  0  0  0  0  0  0  0  0  0  0  0
   10.7833   -6.6095   26.2280 C   0  0  0  0  0  0  0  0  0  0  0  0
   10.0539   -5.9100   25.0821 C   0  0  0  0  0  0  0  0  0  0  0  0
   14.8649    0.7141   23.2612 C   0  0  0  0  0  0  0  0  0  0  0  0
    9.8870    1.3260   23.5730 C   0  0  0  0  0  0  0  0  0  0  0  0
    9.4560    0.1560   22.8130 C   0  0  1  0  0  0  0  0  0  0  0  0
   13.4002    2.6135   23.5107 N   0  0  0  0  0  0  0  0  0  0  0  0
    6.7580    0.3810   17.8350 N   0  0  0  0  0  0  0  0  0  0  0  0
   13.5442    1.2837   23.3808 N   0  0  0  0  0  0  0  0  0  0  0  0
    7.3170   -0.1610   19.8550 N   0  0  0  0  0  0  0  0  0  0  0  0
    9.2529   -4.7797   25.5643 N   0  0  0  0  0  0  0  0  0  0  0  0
    8.1890   -0.7180   20.8700 N   0  0  0  0  0  0  0  0  0  0  0  0
    7.4954   -4.2357   27.0448 O   0  0  0  0  0  0  0  0  0  0  0  0
    9.2690    1.4140   20.9380 O   0  0  0  0  0  0  0  0  0  0  0  0
    3.0134    2.6521   19.3911 H   0  0  0  0  0  0  0  0  0  0  0  0
    3.6460    2.0128   21.6812 H   0  0  0  0  0  0  0  0  0  0  0  0
    8.9202   -0.1986   25.4206 H   0  0  0  0  0  0  0  0  0  0  0  0
   10.0631   -2.2319   21.8252 H   0  0  0  0  0  0  0  0  0  0  0  0
    4.4037    1.9731   17.4543 H   0  0  0  0  0  0  0  0  0  0  0  0
    5.7084    0.6923   22.1132 H   0  0  0  0  0  0  0  0  0  0  0  0
    8.6898   -2.3534   26.5810 H   0  0  0  0  0  0  0  0  0  0  0  0
    9.9254   -4.3899   22.9914 H   0  0  0  0  0  0  0  0  0  0  0  0
   11.6759    3.7661   23.7056 H   0  0  0  0  0  0  0  0  0  0  0  0
   12.3270   -0.4774   23.2810 H   0  0  0  0  0  0  0  0  0  0  0  0
    8.4862   -0.8060   18.1787 H   0  0  0  0  0  0  0  0  0  0  0  0
    7.9324   -6.4149   28.1639 H   0  0  0  0  0  0  0  0  0  0  0  0
    8.0254   -7.0921   26.5330 H   0  0  0  0  0  0  0  0  0  0  0  0
   10.3386   -6.1268   28.2921 H   0  0  0  0  0  0  0  0  0  0  0  0
    9.9903   -7.8025   27.8535 H   0  0  0  0  0  0  0  0  0  0  0  0
   11.7036   -6.0405   26.4770 H   0  0  0  0  0  0  0  0  0  0  0  0
   11.1411   -7.6069   25.8917 H   0  0  0  0  0  0  0  0  0  0  0  0
   10.7783   -5.5162   24.3756 H   0  0  0  0  0  0  0  0  0  0  0  0
    9.4042   -6.6189   24.5805 H   0  0  0  0  0  0  0  0  0  0  0  0
   15.1212    0.6765   22.1992 H   0  0  0  0  0  0  0  0  0  0  0  0
   15.5806    1.3366   23.8054 H   0  0  0  0  0  0  0  0  0  0  0  0
   14.8651   -0.2914   23.6914 H   0  0  0  0  0  0  0  0  0  0  0  0
    9.6004    1.2280   24.6293 H   0  0  0  0  0  0  0  0  0  0  0  0
    9.3666    2.2262   23.2198 H   0  0  0  0  0  0  0  0  0  0  0  0
    8.0666    0.4961   23.2504 H   0  0  0  0  0  0  0  0  0  0  0  0
    8.2487   -1.5564   21.0972 H   0  0  0  0  0  0  0  0  0  0  0  0
  1  2  1  0  0  0  0
  1  5  2  0  0  0  0
  2  6  2  0  0  0  0
  3  7  2  0  0  0  0
  3 12  1  0  0  0  0
  4  8  1  0  0  0  0
  4 12  2  0  0  0  0
  5 14  1  0  0  0  0
  6 15  1  0  0  0  0
  7 16  1  0  0  0  0
  8 16  2  0  0  0  0
  9 13  1  0  0  0  0
  9 26  2  0  0  0  0
 10 13  2  0  0  0  0
 10 28  1  0  0  0  0
 11 27  2  0  0  0  0
 11 29  1  0  0  0  0
 12 25  1  0  0  0  0
 13 24  1  0  0  0  0
 14 15  2  0  0  0  0
 14 27  1  0  0  0  0
 15 29  1  0  0  0  0
 16 30  1  0  0  0  0
 17 19  1  0  0  0  0
 17 30  1  0  0  0  0
 17 32  2  0  0  0  0
 18 25  1  0  0  0  0
 18 31  1  0  0  0  0
 18 33  2  0  0  0  0
 19 20  1  0  0  0  0
 20 21  1  0  0  0  0
 21 22  1  0  0  0  0
 22 30  1  0  0  0  0
 23 28  1  0  0  0  0
 24 25  1  1  0  0  0
 26 28  1  0  0  0  0
 29 31  1  0  0  0  0
  1 34  1  0  0  0  0
  2 35  1  0  0  0  0
  3 36  1  0  0  0  0
  4 37  1  0  0  0  0
  5 38  1  0  0  0  0
  6 39  1  0  0  0  0
  7 40  1  0  0  0  0
  8 41  1  0  0  0  0
  9 42  1  0  0  0  0
 10 43  1  0  0  0  0
 11 44  1  0  0  0  0
 19 45  1  0  0  0  0
 19 46  1  0  0  0  0
 20 47  1  0  0  0  0
 20 48  1  0  0  0  0
 21 49  1  0  0  0  0
 21 50  1  0  0  0  0
 22 51  1  0  0  0  0
 22 52  1  0  0  0  0
 23 53  1  0  0  0  0
 23 54  1  0  0  0  0
 23 55  1  0  0  0  0
 24 56  1  0  0  0  0
 24 57  1  0  0  0  0
 25 58  1  0  0  0  0
 31 59  1  0  0  0  0
M  END
> <clash_score>
0.7790931276820443

> <docking_score>
-8.279675483703613

> <overlap_score>
1.0250213146209717

$$$$
BENZO_220_1
  -OEChem-08222022183D

 55 59  0     1  0  0  0  0  0999 V2000
    3.9160    2.0630   19.5520 C   0  0  0  0  0  0  0  0  0  0  0  0
    4.2750    1.7050   20.8490 C   0  0  0  0  0  0  0  0  0  0  0  0
    9.0720   -1.1280   24.8640 C   0  0  0  0  0  0  0  0  0  0  0  0
    9.7200   -2.2600   22.8630 C   0  0  0  0  0  0  0  0  0  0  0  0
    4.6890    1.6810   18.4640 C   0  0  0  0  0  0  0  0  0  0  0  0
    5.4210    0.9600   21.0930 C   0  0  0  0  0  0  0  0  0  0  0  0
    8.9960   -2.3380   25.5320 C   0  0  0  0  0  0  0  0  0  0  0  0
    9.6730   -3.4710   23.5300 C   0  0  0  0  0  0  0  0  0  0  0  0
   12.4051    0.7237   23.6691 C   0  0  0  0  0  0  0  0  0  0  0  0
   13.4398    0.5873   24.5682 C   0  0  0  0  0  0  0  0  0  0  0  0
   11.3401    1.2429   25.6687 C   0  0  0  0  0  0  0  0  0  0  0  0
    7.6390   -0.2680   18.5410 C   0  0  0  0  0  0  0  0  0  0  0  0
    9.3350   -1.0880   23.5010 C   0  0  0  0  0  0  0  0  0  0  0  0
   11.1887    1.1036   24.3065 C   0  0  0  0  0  0  0  0  0  0  0  0
    5.8300    0.9190   18.6970 C   0  0  0  0  0  0  0  0  0  0  0  0
    6.1790    0.5730   19.9990 C   0  0  0  0  0  0  0  0  0  0  0  0
    9.3070   -3.5340   24.8780 C   0  0  0  0  0  0  0  0  0  0  0  0
    9.0420    0.3700   21.5280 C   0  0  0  0  0  0  0  0  0  0  0  0
   10.0772   -5.0257   26.7191 C   0  0  0  0  0  0  0  0  0  0  0  0
    8.0927   -5.6196   25.4069 C   0  0  0  0  0  0  0  0  0  0  0  0
    9.1935   -4.9431   27.9590 C   0  0  0  0  0  0  0  0  0  0  0  0
    7.2758   -5.5292   26.6966 C   0  0  0  0  0  0  0  0  0  0  0  0
    9.8870    1.3260   23.5730 C   0  0  0  0  0  0  0  0  0  0  0  0
    9.4560    0.1560   22.8130 C   0  0  1  0  0  0  0  0  0  0  0  0
    6.7580    0.3810   17.8350 N   0  0  0  0  0  0  0  0  0  0  0  0
    7.3170   -0.1610   19.8550 N   0  0  0  0  0  0  0  0  0  0  0  0
    9.2564   -4.7368   25.5411 N   0  0  0  0  0  0  0  0  0  0  0  0
    8.1890   -0.7180   20.8700 N   0  0  0  0  0  0  0  0  0  0  0  0
    9.2690    1.4140   20.9380 O   0  0  0  0  0  0  0  0  0  0  0  0
    8.0884   -5.8462   27.8322 O   0  0  0  0  0  0  0  0  0  0  0  0
   12.9435    0.9166   26.1737 S   0  0  0  0  0  0  0  0  0  0  0  0
    3.0134    2.6521   19.3911 H   0  0  0  0  0  0  0  0  0  0  0  0
    3.6460    2.0127   21.6812 H   0  0  0  0  0  0  0  0  0  0  0  0
    8.9214   -0.1986   25.4206 H   0  0  0  0  0  0  0  0  0  0  0  0
   10.0622   -2.2326   21.8251 H   0  0  0  0  0  0  0  0  0  0  0  0
    4.4037    1.9731   17.4543 H   0  0  0  0  0  0  0  0  0  0  0  0
    5.7084    0.6923   22.1132 H   0  0  0  0  0  0  0  0  0  0  0  0
    8.6882   -2.3542   26.5803 H   0  0  0  0  0  0  0  0  0  0  0  0
    9.9258   -4.3896   22.9914 H   0  0  0  0  0  0  0  0  0  0  0  0
   12.5196    0.5574   22.6054 H   0  0  0  0  0  0  0  0  0  0  0  0
   14.4632    0.3094   24.3592 H   0  0  0  0  0  0  0  0  0  0  0  0
   10.5884    1.5193   26.3951 H   0  0  0  0  0  0  0  0  0  0  0  0
    8.4862   -0.8060   18.1787 H   0  0  0  0  0  0  0  0  0  0  0  0
   10.8986   -4.3117   26.8083 H   0  0  0  0  0  0  0  0  0  0  0  0
   10.4916   -6.0336   26.6319 H   0  0  0  0  0  0  0  0  0  0  0  0
    8.4328   -6.6457   25.2617 H   0  0  0  0  0  0  0  0  0  0  0  0
    7.4726   -5.3240   24.5618 H   0  0  0  0  0  0  0  0  0  0  0  0
    9.7638   -5.2402   28.8416 H   0  0  0  0  0  0  0  0  0  0  0  0
    8.8238   -3.9272   28.1248 H   0  0  0  0  0  0  0  0  0  0  0  0
    6.8340   -4.5339   26.8232 H   0  0  0  0  0  0  0  0  0  0  0  0
    6.4551   -6.2523   26.6641 H   0  0  0  0  0  0  0  0  0  0  0  0
    9.1255    1.6083   24.3133 H   0  0  0  0  0  0  0  0  0  0  0  0
    9.9796    2.1992   22.9136 H   0  0  0  0  0  0  0  0  0  0  0  0
   10.7829   -0.1040   22.4083 H   0  0  0  0  0  0  0  0  0  0  0  0
    8.2487   -1.5564   21.0972 H   0  0  0  0  0  0  0  0  0  0  0  0
  1  2  1  0  0  0  0
  1  5  2  0  0  0  0
  2  6  2  0  0  0  0
  3  7  2  0  0  0  0
  3 13  1  0  0  0  0
  4  8  1  0  0  0  0
  4 13  2  0  0  0  0
  5 15  1  0  0  0  0
  6 16  1  0  0  0  0
  7 17  1  0  0  0  0
  8 17  2  0  0  0  0
  9 10  2  0  0  0  0
  9 14  1  0  0  0  0
 10 31  1  0  0  0  0
 11 14  2  0  0  0  0
 11 31  1  0  0  0  0
 12 25  2  0  0  0  0
 12 26  1  0  0  0  0
 13 24  1  0  0  0  0
 14 23  1  0  0  0  0
 15 16  2  0  0  0  0
 15 25  1  0  0  0  0
 16 26  1  0  0  0  0
 17 27  1  0  0  0  0
 18 24  1  1  0  0  0
 18 28  1  0  0  0  0
 18 29  2  0  0  0  0
 19 21  1  0  0  0  0
 19 27  1  0  0  0  0
 20 22  1  0  0  0  0
 20 27  1  0  0  0  0
 21 30  1  0  0  0  0
 22 30  1  0  0  0  0
 23 24  1  0  0  0  0
 26 28  1  0  0  0  0
  1 32  1  0  0  0  0
  2 33  1  0  0  0  0
  3 34  1  0  0  0  0
  4 35  1  0  0  0  0
  5 36  1  0  0  0  0
  6 37  1  0  0  0  0
  7 38  1  0  0  0  0
  8 39  1  0  0  0  0
  9 40  1  0  0  0  0
 10 41  1  0  0  0  0
 11 42  1  0  0  0  0
 12 43  1  0  0  0  0
 19 44  1  0  0  0  0
 19 45  1  0  0  0  0
 20 46  1  0  0  0  0
 20 47  1  0  0  0  0
 21 48  1  0  0  0  0
 21 49  1  0  0  0  0
 22 50  1  0  0  0  0
 22 51  1  0  0  0  0
 23 52  1  0  0  0  0
 23 53  1  0  0  0  0
 24 54  1  0  0  0  0
 28 55  1  0  0  0  0
M  END
> <clash_score>
0.6210428435680381

> <docking_score>
-7.7738752365112305

> <overlap_score>
0.921657919883728

$$$$
BENZO_218_2
  -OEChem-08222022183D

 59 63  0     1  0  0  0  0  0999 V2000
    3.9160    2.0630   19.5520 C   0  0  0  0  0  0  0  0  0  0  0  0
    4.2750    1.7050   20.8490 C   0  0  0  0  0  0  0  0  0  0  0  0
   13.6195    0.6628   23.3152 C   0  0  0  0  0  0  0  0  0  0  0  0
   12.2407    0.4591   23.3700 C   0  0  0  0  0  0  0  0  0  0  0  0
    9.0720   -1.1280   24.8640 C   0  0  0  0  0  0  0  0  0  0  0  0
    9.7200   -2.2600   22.8630 C   0  0  0  0  0  0  0  0  0  0  0  0
    4.6890    1.6810   18.4640 C   0  0  0  0  0  0  0  0  0  0  0  0
    5.4210    0.9600   21.0930 C   0  0  0  0  0  0  0  0  0  0  0  0
    8.9960   -2.3380   25.5320 C   0  0  0  0  0  0  0  0  0  0  0  0
    9.6730   -3.4710   23.5300 C   0  0  0  0  0  0  0  0  0  0  0  0
   14.1378    1.9547   23.4055 C   0  0  0  0  0  0  0  0  0  0  0  0
   11.8985    2.8392   23.6052 C   0  0  0  0  0  0  0  0  0  0  0  0
    7.6390   -0.2680   18.5410 C   0  0  0  0  0  0  0  0  0  0  0  0
    9.3350   -1.0880   23.5010 C   0  0  0  0  0  0  0  0  0  0  0  0
   11.3802    1.5473   23.5150 C   0  0  0  0  0  0  0  0  0  0  0  0
    5.8300    0.9190   18.6970 C   0  0  0  0  0  0  0  0  0  0  0  0
    6.1790    0.5730   19.9990 C   0  0  0  0  0  0  0  0  0  0  0  0
    9.3070   -3.5340   24.8780 C   0  0  0  0  0  0  0  0  0  0  0  0
   13.2773    3.0428   23.5505 C   0  0  0  0  0  0  0  0  0  0  0  0
    8.3596   -5.0074   26.6306 C   0  0  0  0  0  0  0  0  0  0  0  0
    9.0420    0.3700   21.5280 C   0  0  0  0  0  0  0  0  0  0  0  0
    8.4719   -6.3982   27.2294 C   0  0  0  0  0  0  0  0  0  0  0  0
    9.9251   -6.7607   27.4801 C   0  0  0  0  0  0  0  0  0  0  0  0
   10.7833   -6.6095   26.2280 C   0  0  0  0  0  0  0  0  0  0  0  0
   10.0539   -5.9100   25.0821 C   0  0  0  0  0  0  0  0  0  0  0  0
    9.8870    1.3260   23.5730 C   0  0  0  0  0  0  0  0  0  0  0  0
    9.4560    0.1560   22.8130 C   0  0  2  0  0  0  0  0  0  0  0  0
    6.7580    0.3810   17.8350 N   0  0  0  0  0  0  0  0  0  0  0  0
    7.3170   -0.1610   19.8550 N   0  0  0  0  0  0  0  0  0  0  0  0
    9.2529   -4.7797   25.5643 N   0  0  0  0  0  0  0  0  0  0  0  0
    8.1890   -0.7180   20.8700 N   0  0  0  0  0  0  0  0  0  0  0  0
    7.4954   -4.2357   27.0448 O   0  0  0  0  0  0  0  0  0  0  0  0
    9.2690    1.4140   20.9380 O   0  0  0  0  0  0  0  0  0  0  0  0
   13.9173    4.6366   23.6606 Cl  0  0  0  0  0  0  0  0  0  0  0  0
    3.0134    2.6521   19.3911 H   0  0  0  0  0  0  0  0  0  0  0  0
    3.6460    2.0128   21.6812 H   0  0  0  0  0  0  0  0  0  0  0  0
   14.2893   -0.1848   23.2021 H   0  0  0  0  0  0  0  0  0  0  0  0
   11.8457   -0.5509   23.2987 H   0  0  0  0  0  0  0  0  0  0  0  0
    8.9202   -0.1986   25.4206 H   0  0  0  0  0  0  0  0  0  0  0  0
   10.0631   -2.2319   21.8252 H   0  0  0  0  0  0  0  0  0  0  0  0
    4.4037    1.9731   17.4543 H   0  0  0  0  0  0  0  0  0  0  0  0
    5.7084    0.6923   22.1132 H   0  0  0  0  0  0  0  0  0  0  0  0
    8.6898   -2.3534   26.5810 H   0  0  0  0  0  0  0  0  0  0  0  0
    9.9254   -4.3899   22.9914 H   0  0  0  0  0  0  0  0  0  0  0  0
   15.2146    2.0985   23.3610 H   0  0  0  0  0  0  0  0  0  0  0  0
   11.2234    3.6842   23.7187 H   0  0  0  0  0  0  0  0  0  0  0  0
    8.4862   -0.8060   18.1787 H   0  0  0  0  0  0  0  0  0  0  0  0
    7.9324   -6.4149   28.1639 H   0  0  0  0  0  0  0  0  0  0  0  0
    8.0254   -7.0921   26.5330 H   0  0  0  0  0  0  0  0  0  0  0  0
   10.3386   -6.1268   28.2921 H   0  0  0  0  0  0  0  0  0  0  0  0
    9.9903   -7.8025   27.8535 H   0  0  0  0  0  0  0  0  0  0  0  0
   11.7036   -6.0405   26.4770 H   0  0  0  0  0  0  0  0  0  0  0  0
   11.1411   -7.6069   25.8917 H   0  0  0  0  0  0  0  0  0  0  0  0
   10.7783   -5.5162   24.3756 H   0  0  0  0  0  0  0  0  0  0  0  0
    9.4042   -6.6189   24.5805 H   0  0  0  0  0  0  0  0  0  0  0  0
    9.6004    1.2280   24.6293 H   0  0  0  0  0  0  0  0  0  0  0  0
    9.3666    2.2262   23.2198 H   0  0  0  0  0  0  0  0  0  0  0  0
    8.0666    0.4961   23.2504 H   0  0  0  0  0  0  0  0  0  0  0  0
    8.2487   -1.5564   21.0972 H   0  0  0  0  0  0  0  0  0  0  0  0
  1  2  1  0  0  0  0
  1  7  2  0  0  0  0
  2  8  2  0  0  0  0
  3  4  2  0  0  0  0
  3 11  1  0  0  0  0
  4 15  1  0  0  0  0
  5  9  2  0  0  0  0
  5 14  1  0  0  0  0
  6 10  1  0  0  0  0
  6 14  2  0  0  0  0
  7 16  1  0  0  0  0
  8 17  1  0  0  0  0
  9 18  1  0  0  0  0
 10 18  2  0  0  0  0
 11 19  2  0  0  0  0
 12 15  2  0  0  0  0
 12 19  1  0  0  0  0
 13 28  2  0  0  0  0
 13 29  1  0  0  0  0
 14 27  1  0  0  0  0
 15 26  1  0  0  0  0
 16 17  2  0  0  0  0
 16 28  1  0  0  0  0
 17 29  1  0  0  0  0
 18 30  1  0  0  0  0
 19 34  1  0  0  0  0
 20 22  1  0  0  0  0
 20 30  1  0  0  0  0
 20 32  2  0  0  0  0
 21 27  1  6  0  0  0
 21 31  1  0  0  0  0
 21 33  2  0  0  0  0
 22 23  1  0  0  0  0
 23 24  1  0  0  0  0
 24 25  1  0  0  0  0
 25 30  1  0  0  0  0
 26 27  1  0  0  0  0
 29 31  1  0  0  0  0
  1 35  1  0  0  0  0
  2 36  1  0  0  0  0
  3 37  1  0  0  0  0
  4 38  1  0  0  0  0
  5 39  1  0  0  0  0
  6 40  1  0  0  0  0
  7 41  1  0  0  0  0
  8 42  1  0  0  0  0
  9 43  1  0  0  0  0
 10 44  1  0  0  0  0
 11 45  1  0  0  0  0
 12 46  1  0  0  0  0
 13 47  1  0  0  0  0
 22 48  1  0  0  0  0
 22 49  1  0  0  0  0
 23 50  1  0  0  0  0
 23 51  1  0  0  0  0
 24 52  1  0  0  0  0
 24 53  1  0  0  0  0
 25 54  1  0  0  0  0
 25 55  1  0  0  0  0
 26 56  1  0  0  0  0
 26 57  1  0  0  0  0
 27 58  1  0  0  0  0
 31 59  1  0  0  0  0
M  END
> <clash_score>
0.7790931276820443

> <docking_score>
-7.852630615234375

> <overlap_score>
1.0261739492416382

$$$$
BENZO_221_2
  -OEChem-08222022183D

 58 62  0     1  0  0  0  0  0999 V2000
   14.1380    1.9545   23.4082 C   0  0  0  0  0  0  0  0  0  0  0  0
   13.2774    3.0427   23.5520 C   0  0  0  0  0  0  0  0  0  0  0  0
   13.6197    0.6626   23.3176 C   0  0  0  0  0  0  0  0  0  0  0  0
    3.9160    2.0630   19.5520 C   0  0  0  0  0  0  0  0  0  0  0  0
    4.2750    1.7050   20.8490 C   0  0  0  0  0  0  0  0  0  0  0  0
   11.8985    2.8391   23.6054 C   0  0  0  0  0  0  0  0  0  0  0  0
   12.2408    0.4590   23.3711 C   0  0  0  0  0  0  0  0  0  0  0  0
    9.0720   -1.1280   24.8640 C   0  0  0  0  0  0  0  0  0  0  0  0
    9.7200   -2.2600   22.8630 C   0  0  0  0  0  0  0  0  0  0  0  0
    4.6890    1.6810   18.4640 C   0  0  0  0  0  0  0  0  0  0  0  0
    5.4210    0.9600   21.0930 C   0  0  0  0  0  0  0  0  0  0  0  0
    8.9960   -2.3380   25.5320 C   0  0  0  0  0  0  0  0  0  0  0  0
    9.6730   -3.4710   23.5300 C   0  0  0  0  0  0  0  0  0  0  0  0
    7.6390   -0.2680   18.5410 C   0  0  0  0  0  0  0  0  0  0  0  0
   11.3802    1.5472   23.5150 C   0  0  0  0  0  0  0  0  0  0  0  0
    9.3350   -1.0880   23.5010 C   0  0  0  0  0  0  0  0  0  0  0  0
    5.8300    0.9190   18.6970 C   0  0  0  0  0  0  0  0  0  0  0  0
    6.1790    0.5730   19.9990 C   0  0  0  0  0  0  0  0  0  0  0  0
    9.3070   -3.5340   24.8780 C   0  0  0  0  0  0  0  0  0  0  0  0
    9.0420    0.3700   21.5280 C   0  0  0  0  0  0  0  0  0  0  0  0
   10.0772   -5.0257   26.7191 C   0  0  0  0  0  0  0  0  0  0  0  0
    8.0927   -5.6196   25.4069 C   0  0  0  0  0  0  0  0  0  0  0  0
    9.1935   -4.9431   27.9590 C   0  0  0  0  0  0  0  0  0  0  0  0
    7.2758   -5.5292   26.6966 C   0  0  0  0  0  0  0  0  0  0  0  0
    9.8870    1.3260   23.5730 C   0  0  0  0  0  0  0  0  0  0  0  0
    9.4560    0.1560   22.8130 C   0  0  2  0  0  0  0  0  0  0  0  0
    6.7580    0.3810   17.8350 N   0  0  0  0  0  0  0  0  0  0  0  0
    7.3170   -0.1610   19.8550 N   0  0  0  0  0  0  0  0  0  0  0  0
    9.2564   -4.7368   25.5411 N   0  0  0  0  0  0  0  0  0  0  0  0
    8.1890   -0.7180   20.8700 N   0  0  0  0  0  0  0  0  0  0  0  0
    9.2690    1.4140   20.9380 O   0  0  0  0  0  0  0  0  0  0  0  0
    8.0884   -5.8462   27.8322 O   0  0  0  0  0  0  0  0  0  0  0  0
   15.2116    2.1133   23.3652 H   0  0  0  0  0  0  0  0  0  0  0  0
   13.6807    4.0488   23.6214 H   0  0  0  0  0  0  0  0  0  0  0  0
   14.2894   -0.1848   23.2045 H   0  0  0  0  0  0  0  0  0  0  0  0
    3.0134    2.6521   19.3911 H   0  0  0  0  0  0  0  0  0  0  0  0
    3.6460    2.0127   21.6812 H   0  0  0  0  0  0  0  0  0  0  0  0
   11.2356    3.6930   23.7179 H   0  0  0  0  0  0  0  0  0  0  0  0
   11.8460   -0.5511   23.2999 H   0  0  0  0  0  0  0  0  0  0  0  0
    8.9214   -0.1986   25.4206 H   0  0  0  0  0  0  0  0  0  0  0  0
   10.0622   -2.2326   21.8251 H   0  0  0  0  0  0  0  0  0  0  0  0
    4.4037    1.9731   17.4543 H   0  0  0  0  0  0  0  0  0  0  0  0
    5.7084    0.6923   22.1132 H   0  0  0  0  0  0  0  0  0  0  0  0
    8.6882   -2.3542   26.5803 H   0  0  0  0  0  0  0  0  0  0  0  0
    9.9258   -4.3896   22.9914 H   0  0  0  0  0  0  0  0  0  0  0  0
    8.4862   -0.8060   18.1787 H   0  0  0  0  0  0  0  0  0  0  0  0
   10.8986   -4.3117   26.8083 H   0  0  0  0  0  0  0  0  0  0  0  0
   10.4916   -6.0336   26.6319 H   0  0  0  0  0  0  0  0  0  0  0  0
    8.4328   -6.6457   25.2617 H   0  0  0  0  0  0  0  0  0  0  0  0
    7.4726   -5.3240   24.5618 H   0  0  0  0  0  0  0  0  0  0  0  0
    9.7638   -5.2402   28.8416 H   0  0  0  0  0  0  0  0  0  0  0  0
    8.8238   -3.9272   28.1248 H   0  0  0  0  0  0  0  0  0  0  0  0
    6.8340   -4.5339   26.8232 H   0  0  0  0  0  0  0  0  0  0  0  0
    6.4551   -6.2523   26.6641 H   0  0  0  0  0  0  0  0  0  0  0  0
    9.6004    1.2281   24.6293 H   0  0  0  0  0  0  0  0  0  0  0  0
    9.3666    2.2262   23.2197 H   0  0  0  0  0  0  0  0  0  0  0  0
    8.0666    0.4961   23.2504 H   0  0  0  0  0  0  0  0  0  0  0  0
    8.2487   -1.5564   21.0972 H   0  0  0  0  0  0  0  0  0  0  0  0
  1  2  1  0  0  0  0
  1  3  2  0  0  0  0
  2  6  2  0  0  0  0
  3  7  1  0  0  0  0
  4  5  1  0  0  0  0
  4 10  2  0  0  0  0
  5 11  2  0  0  0  0
  6 15  1  0  0  0  0
  7 15  2  0  0  0  0
  8 12  2  0  0  0  0
  8 16  1  0  0  0  0
  9 13  1  0  0  0  0
  9 16  2  0  0  0  0
 10 17  1  0  0  0  0
 11 18  1  0  0  0  0
 12 19  1  0  0  0  0
 13 19  2  0  0  0  0
 14 27  2  0  0  0  0
 14 28  1  0  0  0  0
 15 25  1  0  0  0  0
 16 26  1  0  0  0  0
 17 18  2  0  0  0  0
 17 27  1  0  0  0  0
 18 28  1  0  0  0  0
 19 29  1  0  0  0  0
 20 26  1  6  0  0  0
 20 30  1  0  0  0  0
 20 31  2  0  0  0  0
 21 23  1  0  0  0  0
 21 29  1  0  0  0  0
 22 24  1  0  0  0  0
 22 29  1  0  0  0  0
 23 32  1  0  0  0  0
 24 32  1  0  0  0  0
 25 26  1  0  0  0  0
 28 30  1  0  0  0  0
  1 33  1  0  0  0  0
  2 34  1  0  0  0  0
  3 35  1  0  0  0  0
  4 36  1  0  0  0  0
  5 37  1  0  0  0  0
  6 38  1  0  0  0  0
  7 39  1  0  0  0  0
  8 40  1  0  0  0  0
  9 41  1  0  0  0  0
 10 42  1  0  0  0  0
 11 43  1  0  0  0  0
 12 44  1  0  0  0  0
 13 45  1  0  0  0  0
 14 46  1  0  0  0  0
 21 47  1  0  0  0  0
 21 48  1  0  0  0  0
 22 49  1  0  0  0  0
 22 50  1  0  0  0  0
 23 51  1  0  0  0  0
 23 52  1  0  0  0  0
 24 53  1  0  0  0  0
 24 54  1  0  0  0  0
 25 55  1  0  0  0  0
 25 56  1  0  0  0  0
 26 57  1  0  0  0  0
 30 58  1  0  0  0  0
M  END
> <clash_score>
0

> <docking_score>
-9.18740463256836

> <overlap_score>
1.0104820728302002

$$$$
BENZO_220_2
  -OEChem-08222022183D

 55 59  0     1  0  0  0  0  0999 V2000
    3.9160    2.0630   19.5520 C   0  0  0  0  0  0  0  0  0  0  0  0
    4.2750    1.7050   20.8490 C   0  0  0  0  0  0  0  0  0  0  0  0
    9.0720   -1.1280   24.8640 C   0  0  0  0  0  0  0  0  0  0  0  0
    9.7200   -2.2600   22.8630 C   0  0  0  0  0  0  0  0  0  0  0  0
    4.6890    1.6810   18.4640 C   0  0  0  0  0  0  0  0  0  0  0  0
    5.4210    0.9600   21.0930 C   0  0  0  0  0  0  0  0  0  0  0  0
    8.9960   -2.3380   25.5320 C   0  0  0  0  0  0  0  0  0  0  0  0
    9.6730   -3.4710   23.5300 C   0  0  0  0  0  0  0  0  0  0  0  0
   12.3363    0.4949   23.4224 C   0  0  0  0  0  0  0  0  0  0  0  0
   13.6283    0.9714   23.3861 C   0  0  0  0  0  0  0  0  0  0  0  0
   11.9780    2.7881   23.5461 C   0  0  0  0  0  0  0  0  0  0  0  0
    7.6390   -0.2680   18.5410 C   0  0  0  0  0  0  0  0  0  0  0  0
    9.3350   -1.0880   23.5010 C   0  0  0  0  0  0  0  0  0  0  0  0
   11.3802    1.5472   23.5150 C   0  0  0  0  0  0  0  0  0  0  0  0
    5.8300    0.9190   18.6970 C   0  0  0  0  0  0  0  0  0  0  0  0
    6.1790    0.5730   19.9990 C   0  0  0  0  0  0  0  0  0  0  0  0
    9.3070   -3.5340   24.8780 C   0  0  0  0  0  0  0  0  0  0  0  0
    9.0420    0.3700   21.5280 C   0  0  0  0  0  0  0  0  0  0  0  0
   10.0772   -5.0257   26.7191 C   0  0  0  0  0  0  0  0  0  0  0  0
    8.0927   -5.6196   25.4069 C   0  0  0  0  0  0  0  0  0  0  0  0
    9.1935   -4.9431   27.9590 C   0  0  0  0  0  0  0  0  0  0  0  0
    7.2758   -5.5292   26.6966 C   0  0  0  0  0  0  0  0  0  0  0  0
    9.8870    1.3260   23.5730 C   0  0  0  0  0  0  0  0  0  0  0  0
    9.4560    0.1560   22.8130 C   0  0  2  0  0  0  0  0  0  0  0  0
    6.7580    0.3810   17.8350 N   0  0  0  0  0  0  0  0  0  0  0  0
    7.3170   -0.1610   19.8550 N   0  0  0  0  0  0  0  0  0  0  0  0
    9.2564   -4.7368   25.5411 N   0  0  0  0  0  0  0  0  0  0  0  0
    8.1890   -0.7180   20.8700 N   0  0  0  0  0  0  0  0  0  0  0  0
    9.2690    1.4140   20.9380 O   0  0  0  0  0  0  0  0  0  0  0  0
    8.0884   -5.8462   27.8322 O   0  0  0  0  0  0  0  0  0  0  0  0
   13.6850    2.6811   23.4637 S   0  0  0  0  0  0  0  0  0  0  0  0
    3.0134    2.6521   19.3911 H   0  0  0  0  0  0  0  0  0  0  0  0
    3.6460    2.0127   21.6812 H   0  0  0  0  0  0  0  0  0  0  0  0
    8.9214   -0.1986   25.4206 H   0  0  0  0  0  0  0  0  0  0  0  0
   10.0622   -2.2326   21.8251 H   0  0  0  0  0  0  0  0  0  0  0  0
    4.4037    1.9731   17.4543 H   0  0  0  0  0  0  0  0  0  0  0  0
    5.7084    0.6923   22.1132 H   0  0  0  0  0  0  0  0  0  0  0  0
    8.6882   -2.3542   26.5803 H   0  0  0  0  0  0  0  0  0  0  0  0
    9.9258   -4.3896   22.9914 H   0  0  0  0  0  0  0  0  0  0  0  0
   12.0932   -0.5595   23.3845 H   0  0  0  0  0  0  0  0  0  0  0  0
   14.5416    0.3974   23.3186 H   0  0  0  0  0  0  0  0  0  0  0  0
   11.4978    3.7544   23.6145 H   0  0  0  0  0  0  0  0  0  0  0  0
    8.4862   -0.8060   18.1787 H   0  0  0  0  0  0  0  0  0  0  0  0
   10.8986   -4.3117   26.8083 H   0  0  0  0  0  0  0  0  0  0  0  0
   10.4916   -6.0336   26.6319 H   0  0  0  0  0  0  0  0  0  0  0  0
    8.4328   -6.6457   25.2617 H   0  0  0  0  0  0  0  0  0  0  0  0
    7.4726   -5.3240   24.5618 H   0  0  0  0  0  0  0  0  0  0  0  0
    9.7638   -5.2402   28.8416 H   0  0  0  0  0  0  0  0  0  0  0  0
    8.8238   -3.9272   28.1248 H   0  0  0  0  0  0  0  0  0  0  0  0
    6.8340   -4.5339   26.8232 H   0  0  0  0  0  0  0  0  0  0  0  0
    6.4551   -6.2523   26.6641 H   0  0  0  0  0  0  0  0  0  0  0  0
    9.6004    1.2281   24.6293 H   0  0  0  0  0  0  0  0  0  0  0  0
    9.3666    2.2262   23.2198 H   0  0  0  0  0  0  0  0  0  0  0  0
    8.0666    0.4961   23.2504 H   0  0  0  0  0  0  0  0  0  0  0  0
    8.2487   -1.5564   21.0972 H   0  0  0  0  0  0  0  0  0  0  0  0
  1  2  1  0  0  0  0
  1  5  2  0  0  0  0
  2  6  2  0  0  0  0
  3  7  2  0  0  0  0
  3 13  1  0  0  0  0
  4  8  1  0  0  0  0
  4 13  2  0  0  0  0
  5 15  1  0  0  0  0
  6 16  1  0  0  0  0
  7 17  1  0  0  0  0
  8 17  2  0  0  0  0
  9 10  2  0  0  0  0
  9 14  1  0  0  0  0
 10 31  1  0  0  0  0
 11 14  2  0  0  0  0
 11 31  1  0  0  0  0
 12 25  2  0  0  0  0
 12 26  1  0  0  0  0
 13 24  1  0  0  0  0
 14 23  1  0  0  0  0
 15 16  2  0  0  0  0
 15 25  1  0  0  0  0
 16 26  1  0  0  0  0
 17 27  1  0  0  0  0
 18 24  1  6  0  0  0
 18 28  1  0  0  0  0
 18 29  2  0  0  0  0
 19 21  1  0  0  0  0
 19 27  1  0  0  0  0
 20 22  1  0  0  0  0
 20 27  1  0  0  0  0
 21 30  1  0  0  0  0
 22 30  1  0  0  0  0
 23 24  1  0  0  0  0
 26 28  1  0  0  0  0
  1 32  1  0  0  0  0
  2 33  1  0  0  0  0
  3 34  1  0  0  0  0
  4 35  1  0  0  0  0
  5 36  1  0  0  0  0
  6 37  1  0  0  0  0
  7 38  1  0  0  0  0
  8 39  1  0  0  0  0
  9 40  1  0  0  0  0
 10 41  1  0  0  0  0
 11 42  1  0  0  0  0
 12 43  1  0  0  0  0
 19 44  1  0  0  0  0
 19 45  1  0  0  0  0
 20 46  1  0  0  0  0
 20 47  1  0  0  0  0
 21 48  1  0  0  0  0
 21 49  1  0  0  0  0
 22 50  1  0  0  0  0
 22 51  1  0  0  0  0
 23 52  1  0  0  0  0
 23 53  1  0  0  0  0
 24 54  1  0  0  0  0
 28 55  1  0  0  0  0
M  END
> <clash_score>
0

> <docking_score>
-9.683195114135742

> <overlap_score>
0.9950448870658875

$$$$
BENZO_222_1
  -OEChem-08222022183D

 58 62  0     1  0  0  0  0  0999 V2000
    3.9160    2.0630   19.5520 C   0  0  0  0  0  0  0  0  0  0  0  0
    4.2750    1.7050   20.8490 C   0  0  0  0  0  0  0  0  0  0  0  0
   13.2791    2.5803   22.4075 C   0  0  0  0  0  0  0  0  0  0  0  0
   12.2978    1.8385   23.0651 C   0  0  0  0  0  0  0  0  0  0  0  0
    9.0720   -1.1280   24.8640 C   0  0  0  0  0  0  0  0  0  0  0  0
    9.7200   -2.2600   22.8630 C   0  0  0  0  0  0  0  0  0  0  0  0
    4.6890    1.6810   18.4640 C   0  0  0  0  0  0  0  0  0  0  0  0
    5.4210    0.9600   21.0930 C   0  0  0  0  0  0  0  0  0  0  0  0
    8.9960   -2.3380   25.5320 C   0  0  0  0  0  0  0  0  0  0  0  0
    9.6730   -3.4710   23.5300 C   0  0  0  0  0  0  0  0  0  0  0  0
   12.9118    3.6142   21.5462 C   0  0  0  0  0  0  0  0  0  0  0  0
   10.5818    3.1644   22.0000 C   0  0  0  0  0  0  0  0  0  0  0  0
    7.6390   -0.2680   18.5410 C   0  0  0  0  0  0  0  0  0  0  0  0
    9.3350   -1.0880   23.5010 C   0  0  0  0  0  0  0  0  0  0  0  0
   10.9492    2.1306   22.8614 C   0  0  0  0  0  0  0  0  0  0  0  0
    5.8300    0.9190   18.6970 C   0  0  0  0  0  0  0  0  0  0  0  0
    6.1790    0.5730   19.9990 C   0  0  0  0  0  0  0  0  0  0  0  0
    9.3070   -3.5340   24.8780 C   0  0  0  0  0  0  0  0  0  0  0  0
   11.5631    3.9062   21.3424 C   0  0  0  0  0  0  0  0  0  0  0  0
    9.0420    0.3700   21.5280 C   0  0  0  0  0  0  0  0  0  0  0  0
    9.5176   -4.8600   26.9769 C   0  0  0  0  0  0  0  0  0  0  0  0
    8.5166   -5.8725   24.9805 C   0  0  0  0  0  0  0  0  0  0  0  0
    8.1870   -5.0443   27.6986 C   0  0  0  0  0  0  0  0  0  0  0  0
    7.2201   -6.0348   25.7753 C   0  0  0  0  0  0  0  0  0  0  0  0
    9.8870    1.3260   23.5730 C   0  0  0  0  0  0  0  0  0  0  0  0
    9.4560    0.1560   22.8130 C   0  0  1  0  0  0  0  0  0  0  0  0
    6.7580    0.3810   17.8350 N   0  0  0  0  0  0  0  0  0  0  0  0
    7.3170   -0.1610   19.8550 N   0  0  0  0  0  0  0  0  0  0  0  0
    9.2564   -4.7368   25.5411 N   0  0  0  0  0  0  0  0  0  0  0  0
    8.1890   -0.7180   20.8700 N   0  0  0  0  0  0  0  0  0  0  0  0
    9.2690    1.4140   20.9380 O   0  0  0  0  0  0  0  0  0  0  0  0
    7.4995   -6.1856   27.1717 O   0  0  0  0  0  0  0  0  0  0  0  0
   11.1105    5.1811   20.2787 Cl  0  0  0  0  0  0  0  0  0  0  0  0
    3.0134    2.6521   19.3911 H   0  0  0  0  0  0  0  0  0  0  0  0
    3.6460    2.0127   21.6812 H   0  0  0  0  0  0  0  0  0  0  0  0
   14.3292    2.3525   22.5663 H   0  0  0  0  0  0  0  0  0  0  0  0
   12.5932    1.0347   23.7344 H   0  0  0  0  0  0  0  0  0  0  0  0
    8.9214   -0.1986   25.4206 H   0  0  0  0  0  0  0  0  0  0  0  0
   10.0622   -2.2326   21.8251 H   0  0  0  0  0  0  0  0  0  0  0  0
    4.4037    1.9731   17.4543 H   0  0  0  0  0  0  0  0  0  0  0  0
    5.7084    0.6923   22.1132 H   0  0  0  0  0  0  0  0  0  0  0  0
    8.6882   -2.3542   26.5803 H   0  0  0  0  0  0  0  0  0  0  0  0
    9.9258   -4.3896   22.9914 H   0  0  0  0  0  0  0  0  0  0  0  0
   13.6873    4.1838   21.0401 H   0  0  0  0  0  0  0  0  0  0  0  0
    9.5289    3.3885   21.8449 H   0  0  0  0  0  0  0  0  0  0  0  0
    8.4862   -0.8060   18.1787 H   0  0  0  0  0  0  0  0  0  0  0  0
   10.0207   -3.9702   27.3608 H   0  0  0  0  0  0  0  0  0  0  0  0
   10.1536   -5.7313   27.1546 H   0  0  0  0  0  0  0  0  0  0  0  0
    9.1181   -6.7774   25.0751 H   0  0  0  0  0  0  0  0  0  0  0  0
    8.2812   -5.7063   23.9302 H   0  0  0  0  0  0  0  0  0  0  0  0
    8.3631   -5.2257   28.7609 H   0  0  0  0  0  0  0  0  0  0  0  0
    7.5532   -4.1574   27.6103 H   0  0  0  0  0  0  0  0  0  0  0  0
    6.5460   -5.1840   25.6220 H   0  0  0  0  0  0  0  0  0  0  0  0
    6.6948   -6.9355   25.4433 H   0  0  0  0  0  0  0  0  0  0  0  0
   10.2886    1.0256   24.5508 H   0  0  0  0  0  0  0  0  0  0  0  0
    9.0288    1.9709   23.8044 H   0  0  0  0  0  0  0  0  0  0  0  0
   10.7829   -0.1040   22.4083 H   0  0  0  0  0  0  0  0  0  0  0  0
    8.2487   -1.5564   21.0972 H   0  0  0  0  0  0  0  0  0  0  0  0
  1  2  1  0  0  0  0
  1  7  2  0  0  0  0
  2  8  2  0  0  0  0
  3  4  2  0  0  0  0
  3 11  1  0  0  0  0
  4 15  1  0  0  0  0
  5  9  2  0  0  0  0
  5 14  1  0  0  0  0
  6 10  1  0  0  0  0
  6 14  2  0  0  0  0
  7 16  1  0  0  0  0
  8 17  1  0  0  0  0
  9 18  1  0  0  0  0
 10 18  2  0  0  0  0
 11 19  2  0  0  0  0
 12 15  2  0  0  0  0
 12 19  1  0  0  0  0
 13 27  2  0  0  0  0
 13 28  1  0  0  0  0
 14 26  1  0  0  0  0
 15 25  1  0  0  0  0
 16 17  2  0  0  0  0
 16 27  1  0  0  0  0
 17 28  1  0  0  0  0
 18 29  1  0  0  0  0
 19 33  1  0  0  0  0
 20 26  1  1  0  0  0
 20 30  1  0  0  0  0
 20 31  2  0  0  0  0
 21 23  1  0  0  0  0
 21 29  1  0  0  0  0
 22 24  1  0  0  0  0
 22 29  1  0  0  0  0
 23 32  1  0  0  0  0
 24 32  1  0  0  0  0
 25 26  1  0  0  0  0
 28 30  1  0  0  0  0
  1 34  1  0  0  0  0
  2 35  1  0  0  0  0
  3 36  1  0  0  0  0
  4 37  1  0  0  0  0
  5 38  1  0  0  0  0
  6 39  1  0  0  0  0
  7 40  1  0  0  0  0
  8 41  1  0  0  0  0
  9 42  1  0  0  0  0
 10 43  1  0  0  0  0
 11 44  1  0  0  0  0
 12 45  1  0  0  0  0
 13 46  1  0  0  0  0
 21 47  1  0  0  0  0
 21 48  1  0  0  0  0
 22 49  1  0  0  0  0
 22 50  1  0  0  0  0
 23 51  1  0  0  0  0
 23 52  1  0  0  0  0
 24 53  1  0  0  0  0
 24 54  1  0  0  0  0
 25 55  1  0  0  0  0
 25 56  1  0  0  0  0
 26 57  1  0  0  0  0
 30 58  1  0  0  0  0
M  END
> <clash_score>
2.233869101735435

> <docking_score>
-8.465578079223633

> <overlap_score>
0.9688488841056824

$$$$
BENZO_225_1
  -OEChem-08222022183D

 53 56  0     1  0  0  0  0  0999 V2000
   14.1341    1.9700   23.3555 C   0  0  0  0  0  0  0  0  0  0  0  0
    4.2750    1.7050   20.8490 C   0  0  0  0  0  0  0  0  0  0  0  0
   13.2717    3.0548   23.5141 C   0  0  0  0  0  0  0  0  0  0  0  0
   13.6192    0.6767   23.2672 C   0  0  0  0  0  0  0  0  0  0  0  0
    3.9160    2.0630   19.5520 C   0  0  0  0  0  0  0  0  0  0  0  0
    5.4210    0.9600   21.0930 C   0  0  0  0  0  0  0  0  0  0  0  0
   11.8943    2.8461   23.5846 C   0  0  0  0  0  0  0  0  0  0  0  0
   12.2418    0.4681   23.3377 C   0  0  0  0  0  0  0  0  0  0  0  0
    9.0720   -1.1280   24.8640 C   0  0  0  0  0  0  0  0  0  0  0  0
    9.7200   -2.2600   22.8630 C   0  0  0  0  0  0  0  0  0  0  0  0
    4.6890    1.6810   18.4640 C   0  0  0  0  0  0  0  0  0  0  0  0
    8.9960   -2.3380   25.5320 C   0  0  0  0  0  0  0  0  0  0  0  0
    9.6730   -3.4710   23.5300 C   0  0  0  0  0  0  0  0  0  0  0  0
    6.1790    0.5730   19.9990 C   0  0  0  0  0  0  0  0  0  0  0  0
   11.3794    1.5528   23.4964 C   0  0  0  0  0  0  0  0  0  0  0  0
    9.3350   -1.0880   23.5010 C   0  0  0  0  0  0  0  0  0  0  0  0
    5.8300    0.9190   18.6970 C   0  0  0  0  0  0  0  0  0  0  0  0
    9.3070   -3.5340   24.8780 C   0  0  0  0  0  0  0  0  0  0  0  0
    7.3170   -0.1610   19.8550 C   0  0  0  0  0  0  0  0  0  0  0  0
    9.0420    0.3700   21.5280 C   0  0  0  0  0  0  0  0  0  0  0  0
    8.0148   -5.2164   26.1419 C   0  0  0  0  0  0  0  0  0  0  0  0
   10.4390   -5.5857   25.6570 C   0  0  0  0  0  0  0  0  0  0  0  0
    9.8870    1.3260   23.5730 C   0  0  0  0  0  0  0  0  0  0  0  0
    9.4560    0.1560   22.8130 C   0  0  1  0  0  0  0  0  0  0  0  0
    7.6390   -0.2680   18.5410 N   0  0  0  0  0  0  0  0  0  0  0  0
    6.7580    0.3810   17.8350 N   0  0  0  0  0  0  0  0  0  0  0  0
    8.1890   -0.7180   20.8700 N   0  0  0  0  0  0  0  0  0  0  0  0
    9.2556   -4.7554   25.5514 N   0  0  0  0  0  0  0  0  0  0  0  0
    9.2690    1.4140   20.9380 O   0  0  0  0  0  0  0  0  0  0  0  0
   15.2065    2.1328   23.2992 H   0  0  0  0  0  0  0  0  0  0  0  0
    3.6468    2.0173   21.6825 H   0  0  0  0  0  0  0  0  0  0  0  0
   13.6724    4.0620   23.5817 H   0  0  0  0  0  0  0  0  0  0  0  0
   14.2903   -0.1680   23.1426 H   0  0  0  0  0  0  0  0  0  0  0  0
    3.0153    2.6527   19.3907 H   0  0  0  0  0  0  0  0  0  0  0  0
    5.7015    0.6980   22.1071 H   0  0  0  0  0  0  0  0  0  0  0  0
   11.2299    3.6973   23.7085 H   0  0  0  0  0  0  0  0  0  0  0  0
   11.8496   -0.5431   23.2682 H   0  0  0  0  0  0  0  0  0  0  0  0
    8.9214   -0.1986   25.4206 H   0  0  0  0  0  0  0  0  0  0  0  0
   10.0622   -2.2326   21.8251 H   0  0  0  0  0  0  0  0  0  0  0  0
    4.4064    1.9744   17.4453 H   0  0  0  0  0  0  0  0  0  0  0  0
    8.6882   -2.3542   26.5803 H   0  0  0  0  0  0  0  0  0  0  0  0
    9.9258   -4.3896   22.9914 H   0  0  0  0  0  0  0  0  0  0  0  0
    8.1775   -6.1919   26.6235 H   0  0  0  0  0  0  0  0  0  0  0  0
    7.6740   -4.4889   26.8933 H   0  0  0  0  0  0  0  0  0  0  0  0
    7.2508   -5.3180   25.3570 H   0  0  0  0  0  0  0  0  0  0  0  0
   10.1974   -6.4996   26.2196 H   0  0  0  0  0  0  0  0  0  0  0  0
   10.7877   -5.8568   24.6496 H   0  0  0  0  0  0  0  0  0  0  0  0
   11.2305   -5.0307   26.1820 H   0  0  0  0  0  0  0  0  0  0  0  0
    9.5854    1.2495   24.6258 H   0  0  0  0  0  0  0  0  0  0  0  0
    9.3886    2.2282   23.1920 H   0  0  0  0  0  0  0  0  0  0  0  0
    8.0686    0.4964   23.2745 H   0  0  0  0  0  0  0  0  0  0  0  0
    6.8044    0.4388   16.8592 H   0  0  0  0  0  0  0  0  0  0  0  0
    8.2434   -1.5614   21.0991 H   0  0  0  0  0  0  0  0  0  0  0  0
  1  3  1  0  0  0  0
  1  4  2  0  0  0  0
  2  5  1  0  0  0  0
  2  6  2  0  0  0  0
  3  7  2  0  0  0  0
  4  8  1  0  0  0  0
  5 11  2  0  0  0  0
  6 14  1  0  0  0  0
  7 15  1  0  0  0  0
  8 15  2  0  0  0  0
  9 12  2  0  0  0  0
  9 16  1  0  0  0  0
 10 13  1  0  0  0  0
 10 16  2  0  0  0  0
 11 17  1  0  0  0  0
 12 18  1  0  0  0  0
 13 18  2  0  0  0  0
 14 17  2  0  0  0  0
 14 19  1  0  0  0  0
 15 23  1  0  0  0  0
 16 24  1  0  0  0  0
 17 26  1  0  0  0  0
 18 28  1  0  0  0  0
 19 25  2  0  0  0  0
 19 27  1  0  0  0  0
 20 24  1  0  0  0  0
 20 27  1  0  0  0  0
 20 29  2  0  0  0  0
 21 28  1  0  0  0  0
 22 28  1  0  0  0  0
 23 24  1  1  0  0  0
 25 26  1  0  0  0  0
  1 30  1  0  0  0  0
  2 31  1  0  0  0  0
  3 32  1  0  0  0  0
  4 33  1  0  0  0  0
  5 34  1  0  0  0  0
  6 35  1  0  0  0  0
  7 36  1  0  0  0  0
  8 37  1  0  0  0  0
  9 38  1  0  0  0  0
 10 39  1  0  0  0  0
 11 40  1  0  0  0  0
 12 41  1  0  0  0  0
 13 42  1  0  0  0  0
 21 43  1  0  0  0  0
 21 44  1  0  0  0  0
 21 45  1  0  0  0  0
 22 46  1  0  0  0  0
 22 47  1  0  0  0  0
 22 48  1  0  0  0  0
 23 49  1  0  0  0  0
 23 50  1  0  0  0  0
 24 51  1  0  0  0  0
 26 52  1  0  0  0  0
 27 53  1  0  0  0  0
M  END
> <clash_score>
0

> <docking_score>
-9.135223388671875

> <overlap_score>
0.9993512034416199

$$$$
BENZO_225_2
  -OEChem-08222022183D

 53 56  0     1  0  0  0  0  0999 V2000
   12.9427    3.5803   21.5528 C   0  0  0  0  0  0  0  0  0  0  0  0
    4.2750    1.7050   20.8490 C   0  0  0  0  0  0  0  0  0  0  0  0
   13.2971    2.5494   22.4231 C   0  0  0  0  0  0  0  0  0  0  0  0
   11.5975    3.8801   21.3380 C   0  0  0  0  0  0  0  0  0  0  0  0
    3.9160    2.0630   19.5520 C   0  0  0  0  0  0  0  0  0  0  0  0
    5.4210    0.9600   21.0930 C   0  0  0  0  0  0  0  0  0  0  0  0
   12.3064    1.8183   23.0783 C   0  0  0  0  0  0  0  0  0  0  0  0
   10.6067    3.1489   21.9933 C   0  0  0  0  0  0  0  0  0  0  0  0
    9.0720   -1.1280   24.8640 C   0  0  0  0  0  0  0  0  0  0  0  0
    9.7200   -2.2600   22.8630 C   0  0  0  0  0  0  0  0  0  0  0  0
    4.6890    1.6810   18.4640 C   0  0  0  0  0  0  0  0  0  0  0  0
    8.9960   -2.3380   25.5320 C   0  0  0  0  0  0  0  0  0  0  0  0
    9.6730   -3.4710   23.5300 C   0  0  0  0  0  0  0  0  0  0  0  0
    6.1790    0.5730   19.9990 C   0  0  0  0  0  0  0  0  0  0  0  0
   10.9611    2.1180   22.8635 C   0  0  0  0  0  0  0  0  0  0  0  0
    9.3350   -1.0880   23.5010 C   0  0  0  0  0  0  0  0  0  0  0  0
    5.8300    0.9190   18.6970 C   0  0  0  0  0  0  0  0  0  0  0  0
    9.3070   -3.5340   24.8780 C   0  0  0  0  0  0  0  0  0  0  0  0
    7.3170   -0.1610   19.8550 C   0  0  0  0  0  0  0  0  0  0  0  0
    9.0420    0.3700   21.5280 C   0  0  0  0  0  0  0  0  0  0  0  0
    8.8766   -4.8075   26.9494 C   0  0  0  0  0  0  0  0  0  0  0  0
    9.5670   -5.9896   24.8578 C   0  0  0  0  0  0  0  0  0  0  0  0
    9.8870    1.3260   23.5730 C   0  0  0  0  0  0  0  0  0  0  0  0
    9.4560    0.1560   22.8130 C   0  0  2  0  0  0  0  0  0  0  0  0
    7.6390   -0.2680   18.5410 N   0  0  0  0  0  0  0  0  0  0  0  0
    6.7580    0.3810   17.8350 N   0  0  0  0  0  0  0  0  0  0  0  0
    8.1890   -0.7180   20.8700 N   0  0  0  0  0  0  0  0  0  0  0  0
    9.2556   -4.7554   25.5514 N   0  0  0  0  0  0  0  0  0  0  0  0
    9.2690    1.4140   20.9380 O   0  0  0  0  0  0  0  0  0  0  0  0
   13.7143    4.1504   21.0437 H   0  0  0  0  0  0  0  0  0  0  0  0
    3.6468    2.0173   21.6825 H   0  0  0  0  0  0  0  0  0  0  0  0
   14.3446    2.3166   22.5913 H   0  0  0  0  0  0  0  0  0  0  0  0
   11.3212    4.6833   20.6614 H   0  0  0  0  0  0  0  0  0  0  0  0
    3.0153    2.6527   19.3907 H   0  0  0  0  0  0  0  0  0  0  0  0
    5.7015    0.6980   22.1071 H   0  0  0  0  0  0  0  0  0  0  0  0
   12.5919    1.0166   23.7545 H   0  0  0  0  0  0  0  0  0  0  0  0
    9.5611    3.3895   21.8196 H   0  0  0  0  0  0  0  0  0  0  0  0
    8.9214   -0.1986   25.4206 H   0  0  0  0  0  0  0  0  0  0  0  0
   10.0622   -2.2326   21.8251 H   0  0  0  0  0  0  0  0  0  0  0  0
    4.4064    1.9744   17.4453 H   0  0  0  0  0  0  0  0  0  0  0  0
    8.6882   -2.3542   26.5803 H   0  0  0  0  0  0  0  0  0  0  0  0
    9.9258   -4.3896   22.9914 H   0  0  0  0  0  0  0  0  0  0  0  0
    8.8956   -5.8512   27.2963 H   0  0  0  0  0  0  0  0  0  0  0  0
    9.5845   -4.2109   27.5435 H   0  0  0  0  0  0  0  0  0  0  0  0
    7.8621   -4.3997   27.0696 H   0  0  0  0  0  0  0  0  0  0  0  0
    9.4707   -6.8361   25.5536 H   0  0  0  0  0  0  0  0  0  0  0  0
    8.8693   -6.1242   24.0181 H   0  0  0  0  0  0  0  0  0  0  0  0
   10.5972   -5.9450   24.4750 H   0  0  0  0  0  0  0  0  0  0  0  0
   10.2455    1.0419   24.5710 H   0  0  0  0  0  0  0  0  0  0  0  0
    9.0345    1.9965   23.7496 H   0  0  0  0  0  0  0  0  0  0  0  0
   10.7927   -0.1029   22.4279 H   0  0  0  0  0  0  0  0  0  0  0  0
    6.8044    0.4388   16.8592 H   0  0  0  0  0  0  0  0  0  0  0  0
    8.2434   -1.5614   21.0991 H   0  0  0  0  0  0  0  0  0  0  0  0
  1  3  1  0  0  0  0
  1  4  2  0  0  0  0
  2  5  1  0  0  0  0
  2  6  2  0  0  0  0
  3  7  2  0  0  0  0
  4  8  1  0  0  0  0
  5 11  2  0  0  0  0
  6 14  1  0  0  0  0
  7 15  1  0  0  0  0
  8 15  2  0  0  0  0
  9 12  2  0  0  0  0
  9 16  1  0  0  0  0
 10 13  1  0  0  0  0
 10 16  2  0  0  0  0
 11 17  1  0  0  0  0
 12 18  1  0  0  0  0
 13 18  2  0  0  0  0
 14 17  2  0  0  0  0
 14 19  1  0  0  0  0
 15 23  1  0  0  0  0
 16 24  1  0  0  0  0
 17 26  1  0  0  0  0
 18 28  1  0  0  0  0
 19 25  2  0  0  0  0
 19 27  1  0  0  0  0
 20 24  1  0  0  0  0
 20 27  1  0  0  0  0
 20 29  2  0  0  0  0
 21 28  1  0  0  0  0
 22 28  1  0  0  0  0
 23 24  1  6  0  0  0
 25 26  1  0  0  0  0
  1 30  1  0  0  0  0
  2 31  1  0  0  0  0
  3 32  1  0  0  0  0
  4 33  1  0  0  0  0
  5 34  1  0  0  0  0
  6 35  1  0  0  0  0
  7 36  1  0  0  0  0
  8 37  1  0  0  0  0
  9 38  1  0  0  0  0
 10 39  1  0  0  0  0
 11 40  1  0  0  0  0
 12 41  1  0  0  0  0
 13 42  1  0  0  0  0
 21 43  1  0  0  0  0
 21 44  1  0  0  0  0
 21 45  1  0  0  0  0
 22 46  1  0  0  0  0
 22 47  1  0  0  0  0
 22 48  1  0  0  0  0
 23 49  1  0  0  0  0
 23 50  1  0  0  0  0
 24 51  1  0  0  0  0
 26 52  1  0  0  0  0
 27 53  1  0  0  0  0
M  END
> <clash_score>
0.6163884981584906

> <docking_score>
-8.734216690063477

> <overlap_score>
0.9613717794418335

$$$$
BENZO_224_1
  -OEChem-08222022183D

 50 53  0     1  0  0  0  0  0999 V2000
    4.2750    1.7050   20.8490 C   0  0  0  0  0  0  0  0  0  0  0  0
    3.9160    2.0630   19.5520 C   0  0  0  0  0  0  0  0  0  0  0  0
    5.4210    0.9600   21.0930 C   0  0  0  0  0  0  0  0  0  0  0  0
    9.0720   -1.1280   24.8640 C   0  0  0  0  0  0  0  0  0  0  0  0
    9.7200   -2.2600   22.8630 C   0  0  0  0  0  0  0  0  0  0  0  0
    4.6890    1.6810   18.4640 C   0  0  0  0  0  0  0  0  0  0  0  0
    8.9960   -2.3380   25.5320 C   0  0  0  0  0  0  0  0  0  0  0  0
    9.6730   -3.4710   23.5300 C   0  0  0  0  0  0  0  0  0  0  0  0
   12.3398    0.5029   23.4216 C   0  0  0  0  0  0  0  0  0  0  0  0
   13.6291    0.9843   23.3622 C   0  0  0  0  0  0  0  0  0  0  0  0
   11.9713    2.7968   23.4917 C   0  0  0  0  0  0  0  0  0  0  0  0
    6.1790    0.5730   19.9990 C   0  0  0  0  0  0  0  0  0  0  0  0
    9.3350   -1.0880   23.5010 C   0  0  0  0  0  0  0  0  0  0  0  0
   11.3794    1.5528   23.4964 C   0  0  0  0  0  0  0  0  0  0  0  0
    5.8300    0.9190   18.6970 C   0  0  0  0  0  0  0  0  0  0  0  0
    9.3070   -3.5340   24.8780 C   0  0  0  0  0  0  0  0  0  0  0  0
    7.3170   -0.1610   19.8550 C   0  0  0  0  0  0  0  0  0  0  0  0
    9.0420    0.3700   21.5280 C   0  0  0  0  0  0  0  0  0  0  0  0
    8.0148   -5.2164   26.1419 C   0  0  0  0  0  0  0  0  0  0  0  0
   10.4390   -5.5857   25.6570 C   0  0  0  0  0  0  0  0  0  0  0  0
    9.8870    1.3260   23.5730 C   0  0  0  0  0  0  0  0  0  0  0  0
    9.4560    0.1560   22.8130 C   0  0  1  0  0  0  0  0  0  0  0  0
    7.6390   -0.2680   18.5410 N   0  0  0  0  0  0  0  0  0  0  0  0
    6.7580    0.3810   17.8350 N   0  0  0  0  0  0  0  0  0  0  0  0
    8.1890   -0.7180   20.8700 N   0  0  0  0  0  0  0  0  0  0  0  0
    9.2556   -4.7554   25.5514 N   0  0  0  0  0  0  0  0  0  0  0  0
    9.2690    1.4140   20.9380 O   0  0  0  0  0  0  0  0  0  0  0  0
   13.6781    2.6957   23.3969 S   0  0  0  0  0  0  0  0  0  0  0  0
    3.6468    2.0173   21.6825 H   0  0  0  0  0  0  0  0  0  0  0  0
    3.0153    2.6527   19.3907 H   0  0  0  0  0  0  0  0  0  0  0  0
    5.7015    0.6980   22.1071 H   0  0  0  0  0  0  0  0  0  0  0  0
    8.9214   -0.1986   25.4206 H   0  0  0  0  0  0  0  0  0  0  0  0
   10.0622   -2.2326   21.8251 H   0  0  0  0  0  0  0  0  0  0  0  0
    4.4064    1.9744   17.4453 H   0  0  0  0  0  0  0  0  0  0  0  0
    8.6882   -2.3542   26.5803 H   0  0  0  0  0  0  0  0  0  0  0  0
    9.9258   -4.3896   22.9914 H   0  0  0  0  0  0  0  0  0  0  0  0
   12.1014   -0.5532   23.4119 H   0  0  0  0  0  0  0  0  0  0  0  0
   14.5445    0.4131   23.3009 H   0  0  0  0  0  0  0  0  0  0  0  0
   11.4871    3.7623   23.5403 H   0  0  0  0  0  0  0  0  0  0  0  0
    8.1775   -6.1919   26.6235 H   0  0  0  0  0  0  0  0  0  0  0  0
    7.6740   -4.4889   26.8933 H   0  0  0  0  0  0  0  0  0  0  0  0
    7.2508   -5.3180   25.3570 H   0  0  0  0  0  0  0  0  0  0  0  0
   10.1974   -6.4996   26.2196 H   0  0  0  0  0  0  0  0  0  0  0  0
   10.7877   -5.8568   24.6496 H   0  0  0  0  0  0  0  0  0  0  0  0
   11.2305   -5.0307   26.1820 H   0  0  0  0  0  0  0  0  0  0  0  0
    9.5854    1.2495   24.6258 H   0  0  0  0  0  0  0  0  0  0  0  0
    9.3886    2.2282   23.1920 H   0  0  0  0  0  0  0  0  0  0  0  0
    8.0686    0.4964   23.2745 H   0  0  0  0  0  0  0  0  0  0  0  0
    6.8044    0.4388   16.8592 H   0  0  0  0  0  0  0  0  0  0  0  0
    8.2434   -1.5614   21.0991 H   0  0  0  0  0  0  0  0  0  0  0  0
  1  2  1  0  0  0  0
  1  3  2  0  0  0  0
  2  6  2  0  0  0  0
  3 12  1  0  0  0  0
  4  7  2  0  0  0  0
  4 13  1  0  0  0  0
  5  8  1  0  0  0  0
  5 13  2  0  0  0  0
  6 15  1  0  0  0  0
  7 16  1  0  0  0  0
  8 16  2  0  0  0  0
  9 10  2  0  0  0  0
  9 14  1  0  0  0  0
 10 28  1  0  0  0  0
 11 14  2  0  0  0  0
 11 28  1  0  0  0  0
 12 15  2  0  0  0  0
 12 17  1  0  0  0  0
 13 22  1  0  0  0  0
 14 21  1  0  0  0  0
 15 24  1  0  0  0  0
 16 26  1  0  0  0  0
 17 23  2  0  0  0  0
 17 25  1  0  0  0  0
 18 22  1  0  0  0  0
 18 25  1  0  0  0  0
 18 27  2  0  0  0  0
 19 26  1  0  0  0  0
 20 26  1  0  0  0  0
 21 22  1  1  0  0  0
 23 24  1  0  0  0  0
  1 29  1  0  0  0  0
  2 30  1  0  0  0  0
  3 31  1  0  0  0  0
  4 32  1  0  0  0  0
  5 33  1  0  0  0  0
  6 34  1  0  0  0  0
  7 35  1  0  0  0  0
  8 36  1  0  0  0  0
  9 37  1  0  0  0  0
 10 38  1  0  0  0  0
 11 39  1  0  0  0  0
 19 40  1  0  0  0  0
 19 41  1  0  0  0  0
 19 42  1  0  0  0  0
 20 43  1  0  0  0  0
 20 44  1  0  0  0  0
 20 45  1  0  0  0  0
 21 46  1  0  0  0  0
 21 47  1  0  0  0  0
 22 48  1  0  0  0  0
 24 49  1  0  0  0  0
 25 50  1  0  0  0  0
M  END
> <clash_score>
0

> <docking_score>
-9.599390029907227

> <overlap_score>
0.9840580821037292

$$$$
BENZO_222_2
  -OEChem-08222022183D

 58 62  0     1  0  0  0  0  0999 V2000
    3.9160    2.0630   19.5520 C   0  0  0  0  0  0  0  0  0  0  0  0
    4.2750    1.7050   20.8490 C   0  0  0  0  0  0  0  0  0  0  0  0
   13.6195    0.6627   23.3152 C   0  0  0  0  0  0  0  0  0  0  0  0
   12.2407    0.4591   23.3700 C   0  0  0  0  0  0  0  0  0  0  0  0
    9.0720   -1.1280   24.8640 C   0  0  0  0  0  0  0  0  0  0  0  0
    9.7200   -2.2600   22.8630 C   0  0  0  0  0  0  0  0  0  0  0  0
    4.6890    1.6810   18.4640 C   0  0  0  0  0  0  0  0  0  0  0  0
    5.4210    0.9600   21.0930 C   0  0  0  0  0  0  0  0  0  0  0  0
    8.9960   -2.3380   25.5320 C   0  0  0  0  0  0  0  0  0  0  0  0
    9.6730   -3.4710   23.5300 C   0  0  0  0  0  0  0  0  0  0  0  0
   14.1378    1.9546   23.4055 C   0  0  0  0  0  0  0  0  0  0  0  0
   11.8985    2.8391   23.6052 C   0  0  0  0  0  0  0  0  0  0  0  0
    7.6390   -0.2680   18.5410 C   0  0  0  0  0  0  0  0  0  0  0  0
    9.3350   -1.0880   23.5010 C   0  0  0  0  0  0  0  0  0  0  0  0
   11.3802    1.5472   23.5150 C   0  0  0  0  0  0  0  0  0  0  0  0
    5.8300    0.9190   18.6970 C   0  0  0  0  0  0  0  0  0  0  0  0
    6.1790    0.5730   19.9990 C   0  0  0  0  0  0  0  0  0  0  0  0
    9.3070   -3.5340   24.8780 C   0  0  0  0  0  0  0  0  0  0  0  0
   13.2773    3.0428   23.5505 C   0  0  0  0  0  0  0  0  0  0  0  0
    9.0420    0.3700   21.5280 C   0  0  0  0  0  0  0  0  0  0  0  0
   10.0772   -5.0257   26.7191 C   0  0  0  0  0  0  0  0  0  0  0  0
    8.0927   -5.6196   25.4069 C   0  0  0  0  0  0  0  0  0  0  0  0
    9.1935   -4.9431   27.9590 C   0  0  0  0  0  0  0  0  0  0  0  0
    7.2758   -5.5292   26.6966 C   0  0  0  0  0  0  0  0  0  0  0  0
    9.8870    1.3260   23.5730 C   0  0  0  0  0  0  0  0  0  0  0  0
    9.4560    0.1560   22.8130 C   0  0  2  0  0  0  0  0  0  0  0  0
    6.7580    0.3810   17.8350 N   0  0  0  0  0  0  0  0  0  0  0  0
    7.3170   -0.1610   19.8550 N   0  0  0  0  0  0  0  0  0  0  0  0
    9.2564   -4.7368   25.5411 N   0  0  0  0  0  0  0  0  0  0  0  0
    8.1890   -0.7180   20.8700 N   0  0  0  0  0  0  0  0  0  0  0  0
    9.2690    1.4140   20.9380 O   0  0  0  0  0  0  0  0  0  0  0  0
    8.0884   -5.8462   27.8322 O   0  0  0  0  0  0  0  0  0  0  0  0
   13.9174    4.6365   23.6606 Cl  0  0  0  0  0  0  0  0  0  0  0  0
    3.0134    2.6521   19.3911 H   0  0  0  0  0  0  0  0  0  0  0  0
    3.6460    2.0127   21.6812 H   0  0  0  0  0  0  0  0  0  0  0  0
   14.2892   -0.1849   23.2021 H   0  0  0  0  0  0  0  0  0  0  0  0
   11.8456   -0.5510   23.2987 H   0  0  0  0  0  0  0  0  0  0  0  0
    8.9214   -0.1986   25.4206 H   0  0  0  0  0  0  0  0  0  0  0  0
   10.0622   -2.2326   21.8251 H   0  0  0  0  0  0  0  0  0  0  0  0
    4.4037    1.9731   17.4543 H   0  0  0  0  0  0  0  0  0  0  0  0
    5.7084    0.6923   22.1132 H   0  0  0  0  0  0  0  0  0  0  0  0
    8.6882   -2.3542   26.5803 H   0  0  0  0  0  0  0  0  0  0  0  0
    9.9258   -4.3896   22.9914 H   0  0  0  0  0  0  0  0  0  0  0  0
   15.2146    2.0984   23.3610 H   0  0  0  0  0  0  0  0  0  0  0  0
   11.2234    3.6842   23.7187 H   0  0  0  0  0  0  0  0  0  0  0  0
    8.4862   -0.8060   18.1787 H   0  0  0  0  0  0  0  0  0  0  0  0
   10.8986   -4.3117   26.8083 H   0  0  0  0  0  0  0  0  0  0  0  0
   10.4916   -6.0336   26.6319 H   0  0  0  0  0  0  0  0  0  0  0  0
    8.4328   -6.6457   25.2617 H   0  0  0  0  0  0  0  0  0  0  0  0
    7.4726   -5.3240   24.5618 H   0  0  0  0  0  0  0  0  0  0  0  0
    9.7638   -5.2402   28.8416 H   0  0  0  0  0  0  0  0  0  0  0  0
    8.8238   -3.9272   28.1248 H   0  0  0  0  0  0  0  0  0  0  0  0
    6.8340   -4.5339   26.8232 H   0  0  0  0  0  0  0  0  0  0  0  0
    6.4551   -6.2523   26.6641 H   0  0  0  0  0  0  0  0  0  0  0  0
    9.6004    1.2281   24.6293 H   0  0  0  0  0  0  0  0  0  0  0  0
    9.3666    2.2262   23.2198 H   0  0  0  0  0  0  0  0  0  0  0  0
    8.0666    0.4961   23.2504 H   0  0  0  0  0  0  0  0  0  0  0  0
    8.2487   -1.5564   21.0972 H   0  0  0  0  0  0  0  0  0  0  0  0
  1  2  1  0  0  0  0
  1  7  2  0  0  0  0
  2  8  2  0  0  0  0
  3  4  2  0  0  0  0
  3 11  1  0  0  0  0
  4 15  1  0  0  0  0
  5  9  2  0  0  0  0
  5 14  1  0  0  0  0
  6 10  1  0  0  0  0
  6 14  2  0  0  0  0
  7 16  1  0  0  0  0
  8 17  1  0  0  0  0
  9 18  1  0  0  0  0
 10 18  2  0  0  0  0
 11 19  2  0  0  0  0
 12 15  2  0  0  0  0
 12 19  1  0  0  0  0
 13 27  2  0  0  0  0
 13 28  1  0  0  0  0
 14 26  1  0  0  0  0
 15 25  1  0  0  0  0
 16 17  2  0  0  0  0
 16 27  1  0  0  0  0
 17 28  1  0  0  0  0
 18 29  1  0  0  0  0
 19 33  1  0  0  0  0
 20 26  1  6  0  0  0
 20 30  1  0  0  0  0
 20 31  2  0  0  0  0
 21 23  1  0  0  0  0
 21 29  1  0  0  0  0
 22 24  1  0  0  0  0
 22 29  1  0  0  0  0
 23 32  1  0  0  0  0
 24 32  1  0  0  0  0
 25 26  1  0  0  0  0
 28 30  1  0  0  0  0
  1 34  1  0  0  0  0
  2 35  1  0  0  0  0
  3 36  1  0  0  0  0
  4 37  1  0  0  0  0
  5 38  1  0  0  0  0
  6 39  1  0  0  0  0
  7 40  1  0  0  0  0
  8 41  1  0  0  0  0
  9 42  1  0  0  0  0
 10 43  1  0  0  0  0
 11 44  1  0  0  0  0
 12 45  1  0  0  0  0
 13 46  1  0  0  0  0
 21 47  1  0  0  0  0
 21 48  1  0  0  0  0
 22 49  1  0  0  0  0
 22 50  1  0  0  0  0
 23 51  1  0  0  0  0
 23 52  1  0  0  0  0
 24 53  1  0  0  0  0
 24 54  1  0  0  0  0
 25 55  1  0  0  0  0
 25 56  1  0  0  0  0
 26 57  1  0  0  0  0
 30 58  1  0  0  0  0
M  END
> <clash_score>
0

> <docking_score>
-8.833921432495117

> <overlap_score>
1.01246178150177

$$$$
BENZO_223_2
  -OEChem-08222022183D

 58 62  0     1  0  0  0  0  0999 V2000
    3.9160    2.0630   19.5520 C   0  0  0  0  0  0  0  0  0  0  0  0
    4.2750    1.7050   20.8490 C   0  0  0  0  0  0  0  0  0  0  0  0
    9.0720   -1.1280   24.8640 C   0  0  0  0  0  0  0  0  0  0  0  0
    9.7200   -2.2600   22.8630 C   0  0  0  0  0  0  0  0  0  0  0  0
    4.6890    1.6810   18.4640 C   0  0  0  0  0  0  0  0  0  0  0  0
    5.4210    0.9600   21.0930 C   0  0  0  0  0  0  0  0  0  0  0  0
    8.9960   -2.3380   25.5320 C   0  0  0  0  0  0  0  0  0  0  0  0
    9.6730   -3.4710   23.5300 C   0  0  0  0  0  0  0  0  0  0  0  0
   12.3465    1.9795   22.9425 C   0  0  0  0  0  0  0  0  0  0  0  0
   10.7668    3.1736   21.9866 C   0  0  0  0  0  0  0  0  0  0  0  0
    7.6390   -0.2680   18.5410 C   0  0  0  0  0  0  0  0  0  0  0  0
    9.3350   -1.0880   23.5010 C   0  0  0  0  0  0  0  0  0  0  0  0
   10.9492    2.1306   22.8614 C   0  0  0  0  0  0  0  0  0  0  0  0
    5.8300    0.9190   18.6970 C   0  0  0  0  0  0  0  0  0  0  0  0
    6.1790    0.5730   19.9990 C   0  0  0  0  0  0  0  0  0  0  0  0
    9.3070   -3.5340   24.8780 C   0  0  0  0  0  0  0  0  0  0  0  0
    9.0420    0.3700   21.5280 C   0  0  0  0  0  0  0  0  0  0  0  0
    9.5176   -4.8600   26.9769 C   0  0  0  0  0  0  0  0  0  0  0  0
    8.5166   -5.8725   24.9805 C   0  0  0  0  0  0  0  0  0  0  0  0
    8.1870   -5.0443   27.6986 C   0  0  0  0  0  0  0  0  0  0  0  0
    7.2201   -6.0348   25.7753 C   0  0  0  0  0  0  0  0  0  0  0  0
   12.3392    4.6377   20.6971 C   0  0  0  0  0  0  0  0  0  0  0  0
    9.8870    1.3260   23.5730 C   0  0  0  0  0  0  0  0  0  0  0  0
    9.4560    0.1560   22.8130 C   0  0  2  0  0  0  0  0  0  0  0  0
   13.0050    2.8562   22.1799 N   0  0  0  0  0  0  0  0  0  0  0  0
    6.7580    0.3810   17.8350 N   0  0  0  0  0  0  0  0  0  0  0  0
   12.0173    3.5683   21.6113 N   0  0  0  0  0  0  0  0  0  0  0  0
    7.3170   -0.1610   19.8550 N   0  0  0  0  0  0  0  0  0  0  0  0
    9.2564   -4.7368   25.5411 N   0  0  0  0  0  0  0  0  0  0  0  0
    8.1890   -0.7180   20.8700 N   0  0  0  0  0  0  0  0  0  0  0  0
    9.2690    1.4140   20.9380 O   0  0  0  0  0  0  0  0  0  0  0  0
    7.4995   -6.1856   27.1717 O   0  0  0  0  0  0  0  0  0  0  0  0
    3.0134    2.6521   19.3911 H   0  0  0  0  0  0  0  0  0  0  0  0
    3.6460    2.0127   21.6812 H   0  0  0  0  0  0  0  0  0  0  0  0
    8.9214   -0.1986   25.4206 H   0  0  0  0  0  0  0  0  0  0  0  0
   10.0622   -2.2326   21.8251 H   0  0  0  0  0  0  0  0  0  0  0  0
    4.4037    1.9731   17.4543 H   0  0  0  0  0  0  0  0  0  0  0  0
    5.7084    0.6923   22.1132 H   0  0  0  0  0  0  0  0  0  0  0  0
    8.6882   -2.3542   26.5803 H   0  0  0  0  0  0  0  0  0  0  0  0
    9.9258   -4.3896   22.9914 H   0  0  0  0  0  0  0  0  0  0  0  0
   12.9145    1.2672   23.5241 H   0  0  0  0  0  0  0  0  0  0  0  0
    9.8759    3.6558   21.6076 H   0  0  0  0  0  0  0  0  0  0  0  0
    8.4862   -0.8060   18.1787 H   0  0  0  0  0  0  0  0  0  0  0  0
   10.0207   -3.9702   27.3608 H   0  0  0  0  0  0  0  0  0  0  0  0
   10.1536   -5.7313   27.1546 H   0  0  0  0  0  0  0  0  0  0  0  0
    9.1181   -6.7774   25.0751 H   0  0  0  0  0  0  0  0  0  0  0  0
    8.2812   -5.7063   23.9302 H   0  0  0  0  0  0  0  0  0  0  0  0
    8.3631   -5.2257   28.7609 H   0  0  0  0  0  0  0  0  0  0  0  0
    7.5532   -4.1574   27.6103 H   0  0  0  0  0  0  0  0  0  0  0  0
    6.5460   -5.1840   25.6220 H   0  0  0  0  0  0  0  0  0  0  0  0
    6.6948   -6.9355   25.4433 H   0  0  0  0  0  0  0  0  0  0  0  0
   12.4412    5.5584   21.2776 H   0  0  0  0  0  0  0  0  0  0  0  0
   13.2748    4.4059   20.1806 H   0  0  0  0  0  0  0  0  0  0  0  0
   11.5379    4.7362   19.9596 H   0  0  0  0  0  0  0  0  0  0  0  0
   10.2886    1.0256   24.5508 H   0  0  0  0  0  0  0  0  0  0  0  0
    9.0288    1.9709   23.8044 H   0  0  0  0  0  0  0  0  0  0  0  0
   10.7829   -0.1040   22.4083 H   0  0  0  0  0  0  0  0  0  0  0  0
    8.2487   -1.5564   21.0972 H   0  0  0  0  0  0  0  0  0  0  0  0
  1  2  1  0  0  0  0
  1  5  2  0  0  0  0
  2  6  2  0  0  0  0
  3  7  2  0  0  0  0
  3 12  1  0  0  0  0
  4  8  1  0  0  0  0
  4 12  2  0  0  0  0
  5 14  1  0  0  0  0
  6 15  1  0  0  0  0
  7 16  1  0  0  0  0
  8 16  2  0  0  0  0
  9 13  1  0  0  0  0
  9 25  2  0  0  0  0
 10 13  2  0  0  0  0
 10 27  1  0  0  0  0
 11 26  2  0  0  0  0
 11 28  1  0  0  0  0
 12 24  1  0  0  0  0
 13 23  1  0  0  0  0
 14 15  2  0  0  0  0
 14 26  1  0  0  0  0
 15 28  1  0  0  0  0
 16 29  1  0  0  0  0
 17 24  1  0  0  0  0
 17 30  1  0  0  0  0
 17 31  2  0  0  0  0
 18 20  1  0  0  0  0
 18 29  1  0  0  0  0
 19 21  1  0  0  0  0
 19 29  1  0  0  0  0
 20 32  1  0  0  0  0
 21 32  1  0  0  0  0
 22 27  1  0  0  0  0
 23 24  1  6  0  0  0
 25 27  1  0  0  0  0
 28 30  1  0  0  0  0
  1 33  1  0  0  0  0
  2 34  1  0  0  0  0
  3 35  1  0  0  0  0
  4 36  1  0  0  0  0
  5 37  1  0  0  0  0
  6 38  1  0  0  0  0
  7 39  1  0  0  0  0
  8 40  1  0  0  0  0
  9 41  1  0  0  0  0
 10 42  1  0  0  0  0
 11 43  1  0  0  0  0
 18 44  1  0  0  0  0
 18 45  1  0  0  0  0
 19 46  1  0  0  0  0
 19 47  1  0  0  0  0
 20 48  1  0  0  0  0
 20 49  1  0  0  0  0
 21 50  1  0  0  0  0
 21 51  1  0  0  0  0
 22 52  1  0  0  0  0
 22 53  1  0  0  0  0
 22 54  1  0  0  0  0
 23 55  1  0  0  0  0
 23 56  1  0  0  0  0
 24 57  1  0  0  0  0
 30 58  1  0  0  0  0
M  END
> <clash_score>
0

> <docking_score>
-7.911252021789551

> <overlap_score>
0.9632830619812012

$$$$
BENZO_224_2
  -OEChem-08222022183D

 50 53  0     1  0  0  0  0  0999 V2000
    4.2750    1.7050   20.8490 C   0  0  0  0  0  0  0  0  0  0  0  0
    3.9160    2.0630   19.5520 C   0  0  0  0  0  0  0  0  0  0  0  0
    5.4210    0.9600   21.0930 C   0  0  0  0  0  0  0  0  0  0  0  0
    9.0720   -1.1280   24.8640 C   0  0  0  0  0  0  0  0  0  0  0  0
    9.7200   -2.2600   22.8630 C   0  0  0  0  0  0  0  0  0  0  0  0
    4.6890    1.6810   18.4640 C   0  0  0  0  0  0  0  0  0  0  0  0
    8.9960   -2.3380   25.5320 C   0  0  0  0  0  0  0  0  0  0  0  0
    9.6730   -3.4710   23.5300 C   0  0  0  0  0  0  0  0  0  0  0  0
   12.3907    0.6679   23.6950 C   0  0  0  0  0  0  0  0  0  0  0  0
   13.4189    0.5308   24.6014 C   0  0  0  0  0  0  0  0  0  0  0  0
   11.3314    1.2632   25.6763 C   0  0  0  0  0  0  0  0  0  0  0  0
    6.1790    0.5730   19.9990 C   0  0  0  0  0  0  0  0  0  0  0  0
    9.3350   -1.0880   23.5010 C   0  0  0  0  0  0  0  0  0  0  0  0
   11.1814    1.0923   24.3176 C   0  0  0  0  0  0  0  0  0  0  0  0
    5.8300    0.9190   18.6970 C   0  0  0  0  0  0  0  0  0  0  0  0
    9.3070   -3.5340   24.8780 C   0  0  0  0  0  0  0  0  0  0  0  0
    7.3170   -0.1610   19.8550 C   0  0  0  0  0  0  0  0  0  0  0  0
    9.0420    0.3700   21.5280 C   0  0  0  0  0  0  0  0  0  0  0  0
    8.0148   -5.2164   26.1419 C   0  0  0  0  0  0  0  0  0  0  0  0
   10.4390   -5.5857   25.6570 C   0  0  0  0  0  0  0  0  0  0  0  0
    9.8870    1.3260   23.5730 C   0  0  0  0  0  0  0  0  0  0  0  0
    9.4560    0.1560   22.8130 C   0  0  2  0  0  0  0  0  0  0  0  0
    7.6390   -0.2680   18.5410 N   0  0  0  0  0  0  0  0  0  0  0  0
    6.7580    0.3810   17.8350 N   0  0  0  0  0  0  0  0  0  0  0  0
    8.1890   -0.7180   20.8700 N   0  0  0  0  0  0  0  0  0  0  0  0
    9.2556   -4.7554   25.5514 N   0  0  0  0  0  0  0  0  0  0  0  0
    9.2690    1.4140   20.9380 O   0  0  0  0  0  0  0  0  0  0  0  0
   12.9250    0.9128   26.1959 S   0  0  0  0  0  0  0  0  0  0  0  0
    3.6468    2.0173   21.6825 H   0  0  0  0  0  0  0  0  0  0  0  0
    3.0153    2.6527   19.3907 H   0  0  0  0  0  0  0  0  0  0  0  0
    5.7015    0.6980   22.1071 H   0  0  0  0  0  0  0  0  0  0  0  0
    8.9214   -0.1986   25.4206 H   0  0  0  0  0  0  0  0  0  0  0  0
   10.0622   -2.2326   21.8251 H   0  0  0  0  0  0  0  0  0  0  0  0
    4.4064    1.9744   17.4453 H   0  0  0  0  0  0  0  0  0  0  0  0
    8.6882   -2.3542   26.5803 H   0  0  0  0  0  0  0  0  0  0  0  0
    9.9258   -4.3896   22.9914 H   0  0  0  0  0  0  0  0  0  0  0  0
   12.5049    0.4716   22.6364 H   0  0  0  0  0  0  0  0  0  0  0  0
   14.4362    0.2239   24.4037 H   0  0  0  0  0  0  0  0  0  0  0  0
   10.5839    1.5757   26.3924 H   0  0  0  0  0  0  0  0  0  0  0  0
    8.1775   -6.1919   26.6235 H   0  0  0  0  0  0  0  0  0  0  0  0
    7.6740   -4.4889   26.8933 H   0  0  0  0  0  0  0  0  0  0  0  0
    7.2508   -5.3180   25.3570 H   0  0  0  0  0  0  0  0  0  0  0  0
   10.1974   -6.4996   26.2196 H   0  0  0  0  0  0  0  0  0  0  0  0
   10.7877   -5.8568   24.6496 H   0  0  0  0  0  0  0  0  0  0  0  0
   11.2305   -5.0307   26.1820 H   0  0  0  0  0  0  0  0  0  0  0  0
    9.1131    1.6463   24.2828 H   0  0  0  0  0  0  0  0  0  0  0  0
   10.0354    2.1807   22.8984 H   0  0  0  0  0  0  0  0  0  0  0  0
   10.7927   -0.1029   22.4279 H   0  0  0  0  0  0  0  0  0  0  0  0
    6.8044    0.4388   16.8592 H   0  0  0  0  0  0  0  0  0  0  0  0
    8.2434   -1.5614   21.0991 H   0  0  0  0  0  0  0  0  0  0  0  0
  1  2  1  0  0  0  0
  1  3  2  0  0  0  0
  2  6  2  0  0  0  0
  3 12  1  0  0  0  0
  4  7  2  0  0  0  0
  4 13  1  0  0  0  0
  5  8  1  0  0  0  0
  5 13  2  0  0  0  0
  6 15  1  0  0  0  0
  7 16  1  0  0  0  0
  8 16  2  0  0  0  0
  9 10  2  0  0  0  0
  9 14  1  0  0  0  0
 10 28  1  0  0  0  0
 11 14  2  0  0  0  0
 11 28  1  0  0  0  0
 12 15  2  0  0  0  0
 12 17  1  0  0  0  0
 13 22  1  0  0  0  0
 14 21  1  0  0  0  0
 15 24  1  0  0  0  0
 16 26  1  0  0  0  0
 17 23  2  0  0  0  0
 17 25  1  0  0  0  0
 18 22  1  0  0  0  0
 18 25  1  0  0  0  0
 18 27  2  0  0  0  0
 19 26  1  0  0  0  0
 20 26  1  0  0  0  0
 21 22  1  6  0  0  0
 23 24  1  0  0  0  0
  1 29  1  0  0  0  0
  2 30  1  0  0  0  0
  3 31  1  0  0  0  0
  4 32  1  0  0  0  0
  5 33  1  0  0  0  0
  6 34  1  0  0  0  0
  7 35  1  0  0  0  0
  8 36  1  0  0  0  0
  9 37  1  0  0  0  0
 10 38  1  0  0  0  0
 11 39  1  0  0  0  0
 19 40  1  0  0  0  0
 19 41  1  0  0  0  0
 19 42  1  0  0  0  0
 20 43  1  0  0  0  0
 20 44  1  0  0  0  0
 20 45  1  0  0  0  0
 21 46  1  0  0  0  0
 21 47  1  0  0  0  0
 22 48  1  0  0  0  0
 24 49  1  0  0  0  0
 25 50  1  0  0  0  0
M  END
> <clash_score>
0.6216896927623251

> <docking_score>
-7.485256195068359

> <overlap_score>
0.9070503115653992

$$$$
BENZO_223_1
  -OEChem-08222022183D

 58 62  0     1  0  0  0  0  0999 V2000
    3.9160    2.0630   19.5520 C   0  0  0  0  0  0  0  0  0  0  0  0
    4.2750    1.7050   20.8490 C   0  0  0  0  0  0  0  0  0  0  0  0
    9.0720   -1.1280   24.8640 C   0  0  0  0  0  0  0  0  0  0  0  0
    9.7200   -2.2600   22.8630 C   0  0  0  0  0  0  0  0  0  0  0  0
    4.6890    1.6810   18.4640 C   0  0  0  0  0  0  0  0  0  0  0  0
    5.4210    0.9600   21.0930 C   0  0  0  0  0  0  0  0  0  0  0  0
    8.9960   -2.3380   25.5320 C   0  0  0  0  0  0  0  0  0  0  0  0
    9.6730   -3.4710   23.5300 C   0  0  0  0  0  0  0  0  0  0  0  0
   12.0761    2.7685   23.5923 C   0  0  0  0  0  0  0  0  0  0  0  0
   12.3645    0.5993   23.3773 C   0  0  0  0  0  0  0  0  0  0  0  0
    7.6390   -0.2680   18.5410 C   0  0  0  0  0  0  0  0  0  0  0  0
    9.3350   -1.0880   23.5010 C   0  0  0  0  0  0  0  0  0  0  0  0
   11.3802    1.5472   23.5150 C   0  0  0  0  0  0  0  0  0  0  0  0
    5.8300    0.9190   18.6970 C   0  0  0  0  0  0  0  0  0  0  0  0
    6.1790    0.5730   19.9990 C   0  0  0  0  0  0  0  0  0  0  0  0
    9.3070   -3.5340   24.8780 C   0  0  0  0  0  0  0  0  0  0  0  0
    9.0420    0.3700   21.5280 C   0  0  0  0  0  0  0  0  0  0  0  0
   10.0772   -5.0257   26.7191 C   0  0  0  0  0  0  0  0  0  0  0  0
    8.0927   -5.6196   25.4069 C   0  0  0  0  0  0  0  0  0  0  0  0
    9.1935   -4.9431   27.9590 C   0  0  0  0  0  0  0  0  0  0  0  0
    7.2758   -5.5292   26.6966 C   0  0  0  0  0  0  0  0  0  0  0  0
   14.8649    0.7140   23.2612 C   0  0  0  0  0  0  0  0  0  0  0  0
    9.8870    1.3260   23.5730 C   0  0  0  0  0  0  0  0  0  0  0  0
    9.4560    0.1560   22.8130 C   0  0  1  0  0  0  0  0  0  0  0  0
   13.4003    2.6135   23.5107 N   0  0  0  0  0  0  0  0  0  0  0  0
    6.7580    0.3810   17.8350 N   0  0  0  0  0  0  0  0  0  0  0  0
   13.5442    1.2836   23.3808 N   0  0  0  0  0  0  0  0  0  0  0  0
    7.3170   -0.1610   19.8550 N   0  0  0  0  0  0  0  0  0  0  0  0
    9.2564   -4.7368   25.5411 N   0  0  0  0  0  0  0  0  0  0  0  0
    8.1890   -0.7180   20.8700 N   0  0  0  0  0  0  0  0  0  0  0  0
    9.2690    1.4140   20.9380 O   0  0  0  0  0  0  0  0  0  0  0  0
    8.0884   -5.8462   27.8322 O   0  0  0  0  0  0  0  0  0  0  0  0
    3.0134    2.6521   19.3911 H   0  0  0  0  0  0  0  0  0  0  0  0
    3.6460    2.0127   21.6812 H   0  0  0  0  0  0  0  0  0  0  0  0
    8.9214   -0.1986   25.4206 H   0  0  0  0  0  0  0  0  0  0  0  0
   10.0622   -2.2326   21.8251 H   0  0  0  0  0  0  0  0  0  0  0  0
    4.4037    1.9731   17.4543 H   0  0  0  0  0  0  0  0  0  0  0  0
    5.7084    0.6923   22.1132 H   0  0  0  0  0  0  0  0  0  0  0  0
    8.6882   -2.3542   26.5803 H   0  0  0  0  0  0  0  0  0  0  0  0
    9.9258   -4.3896   22.9914 H   0  0  0  0  0  0  0  0  0  0  0  0
   11.6759    3.7661   23.7056 H   0  0  0  0  0  0  0  0  0  0  0  0
   12.3269   -0.4774   23.2810 H   0  0  0  0  0  0  0  0  0  0  0  0
    8.4862   -0.8060   18.1787 H   0  0  0  0  0  0  0  0  0  0  0  0
   10.8986   -4.3117   26.8083 H   0  0  0  0  0  0  0  0  0  0  0  0
   10.4916   -6.0336   26.6319 H   0  0  0  0  0  0  0  0  0  0  0  0
    8.4328   -6.6457   25.2617 H   0  0  0  0  0  0  0  0  0  0  0  0
    7.4726   -5.3240   24.5618 H   0  0  0  0  0  0  0  0  0  0  0  0
    9.7638   -5.2402   28.8416 H   0  0  0  0  0  0  0  0  0  0  0  0
    8.8238   -3.9272   28.1248 H   0  0  0  0  0  0  0  0  0  0  0  0
    6.8340   -4.5339   26.8232 H   0  0  0  0  0  0  0  0  0  0  0  0
    6.4551   -6.2523   26.6641 H   0  0  0  0  0  0  0  0  0  0  0  0
   15.1211    0.6764   22.1991 H   0  0  0  0  0  0  0  0  0  0  0  0
   15.5806    1.3365   23.8054 H   0  0  0  0  0  0  0  0  0  0  0  0
   14.8651   -0.2914   23.6914 H   0  0  0  0  0  0  0  0  0  0  0  0
    9.6004    1.2281   24.6293 H   0  0  0  0  0  0  0  0  0  0  0  0
    9.3666    2.2262   23.2198 H   0  0  0  0  0  0  0  0  0  0  0  0
    8.0666    0.4961   23.2504 H   0  0  0  0  0  0  0  0  0  0  0  0
    8.2487   -1.5564   21.0972 H   0  0  0  0  0  0  0  0  0  0  0  0
  1  2  1  0  0  0  0
  1  5  2  0  0  0  0
  2  6  2  0  0  0  0
  3  7  2  0  0  0  0
  3 12  1  0  0  0  0
  4  8  1  0  0  0  0
  4 12  2  0  0  0  0
  5 14  1  0  0  0  0
  6 15  1  0  0  0  0
  7 16  1  0  0  0  0
  8 16  2  0  0  0  0
  9 13  1  0  0  0  0
  9 25  2  0  0  0  0
 10 13  2  0  0  0  0
 10 27  1  0  0  0  0
 11 26  2  0  0  0  0
 11 28  1  0  0  0  0
 12 24  1  0  0  0  0
 13 23  1  0  0  0  0
 14 15  2  0  0  0  0
 14 26  1  0  0  0  0
 15 28  1  0  0  0  0
 16 29  1  0  0  0  0
 17 24  1  0  0  0  0
 17 30  1  0  0  0  0
 17 31  2  0  0  0  0
 18 20  1  0  0  0  0
 18 29  1  0  0  0  0
 19 21  1  0  0  0  0
 19 29  1  0  0  0  0
 20 32  1  0  0  0  0
 21 32  1  0  0  0  0
 22 27  1  0  0  0  0
 23 24  1  1  0  0  0
 25 27  1  0  0  0  0
 28 30  1  0  0  0  0
  1 33  1  0  0  0  0
  2 34  1  0  0  0  0
  3 35  1  0  0  0  0
  4 36  1  0  0  0  0
  5 37  1  0  0  0  0
  6 38  1  0  0  0  0
  7 39  1  0  0  0  0
  8 40  1  0  0  0  0
  9 41  1  0  0  0  0
 10 42  1  0  0  0  0
 11 43  1  0  0  0  0
 18 44  1  0  0  0  0
 18 45  1  0  0  0  0
 19 46  1  0  0  0  0
 19 47  1  0  0  0  0
 20 48  1  0  0  0  0
 20 49  1  0  0  0  0
 21 50  1  0  0  0  0
 21 51  1  0  0  0  0
 22 52  1  0  0  0  0
 22 53  1  0  0  0  0
 22 54  1  0  0  0  0
 23 55  1  0  0  0  0
 23 56  1  0  0  0  0
 24 57  1  0  0  0  0
 30 58  1  0  0  0  0
M  END
> <clash_score>
0

> <docking_score>
-9.261150360107422

> <overlap_score>
1.0112919807434082

$$$$
BENZO_226_1
  -OEChem-08222022183D

 53 56  0     1  0  0  0  0  0999 V2000
    4.2750    1.7050   20.8490 C   0  0  0  0  0  0  0  0  0  0  0  0
    3.9160    2.0630   19.5520 C   0  0  0  0  0  0  0  0  0  0  0  0
   13.6189    0.6768   23.2648 C   0  0  0  0  0  0  0  0  0  0  0  0
    5.4210    0.9600   21.0930 C   0  0  0  0  0  0  0  0  0  0  0  0
   12.2417    0.4681   23.3366 C   0  0  0  0  0  0  0  0  0  0  0  0
    9.0720   -1.1280   24.8640 C   0  0  0  0  0  0  0  0  0  0  0  0
    9.7200   -2.2600   22.8630 C   0  0  0  0  0  0  0  0  0  0  0  0
    4.6890    1.6810   18.4640 C   0  0  0  0  0  0  0  0  0  0  0  0
    8.9960   -2.3380   25.5320 C   0  0  0  0  0  0  0  0  0  0  0  0
    9.6730   -3.4710   23.5300 C   0  0  0  0  0  0  0  0  0  0  0  0
   14.1339    1.9702   23.3527 C   0  0  0  0  0  0  0  0  0  0  0  0
   11.8943    2.8462   23.5844 C   0  0  0  0  0  0  0  0  0  0  0  0
    6.1790    0.5730   19.9990 C   0  0  0  0  0  0  0  0  0  0  0  0
    9.3350   -1.0880   23.5010 C   0  0  0  0  0  0  0  0  0  0  0  0
   11.3794    1.5528   23.4964 C   0  0  0  0  0  0  0  0  0  0  0  0
    5.8300    0.9190   18.6970 C   0  0  0  0  0  0  0  0  0  0  0  0
    9.3070   -3.5340   24.8780 C   0  0  0  0  0  0  0  0  0  0  0  0
   13.2716    3.0548   23.5125 C   0  0  0  0  0  0  0  0  0  0  0  0
    7.3170   -0.1610   19.8550 C   0  0  0  0  0  0  0  0  0  0  0  0
    9.0420    0.3700   21.5280 C   0  0  0  0  0  0  0  0  0  0  0  0
    8.0148   -5.2164   26.1419 C   0  0  0  0  0  0  0  0  0  0  0  0
   10.4390   -5.5857   25.6570 C   0  0  0  0  0  0  0  0  0  0  0  0
    9.8870    1.3260   23.5730 C   0  0  0  0  0  0  0  0  0  0  0  0
    9.4560    0.1560   22.8130 C   0  0  1  0  0  0  0  0  0  0  0  0
    7.6390   -0.2680   18.5410 N   0  0  0  0  0  0  0  0  0  0  0  0
    6.7580    0.3810   17.8350 N   0  0  0  0  0  0  0  0  0  0  0  0
    8.1890   -0.7180   20.8700 N   0  0  0  0  0  0  0  0  0  0  0  0
    9.2556   -4.7554   25.5514 N   0  0  0  0  0  0  0  0  0  0  0  0
    9.2690    1.4140   20.9380 O   0  0  0  0  0  0  0  0  0  0  0  0
   13.9075    4.6504   23.6198 Cl  0  0  0  0  0  0  0  0  0  0  0  0
    3.6468    2.0173   21.6825 H   0  0  0  0  0  0  0  0  0  0  0  0
    3.0153    2.6527   19.3907 H   0  0  0  0  0  0  0  0  0  0  0  0
   14.2901   -0.1681   23.1402 H   0  0  0  0  0  0  0  0  0  0  0  0
    5.7015    0.6980   22.1071 H   0  0  0  0  0  0  0  0  0  0  0  0
   11.8492   -0.5431   23.2671 H   0  0  0  0  0  0  0  0  0  0  0  0
    8.9214   -0.1986   25.4206 H   0  0  0  0  0  0  0  0  0  0  0  0
   10.0622   -2.2326   21.8251 H   0  0  0  0  0  0  0  0  0  0  0  0
    4.4064    1.9744   17.4453 H   0  0  0  0  0  0  0  0  0  0  0  0
    8.6882   -2.3542   26.5803 H   0  0  0  0  0  0  0  0  0  0  0  0
    9.9258   -4.3896   22.9914 H   0  0  0  0  0  0  0  0  0  0  0  0
   15.2095    2.1179   23.2949 H   0  0  0  0  0  0  0  0  0  0  0  0
   11.2178    3.6885   23.7094 H   0  0  0  0  0  0  0  0  0  0  0  0
    8.1775   -6.1919   26.6235 H   0  0  0  0  0  0  0  0  0  0  0  0
    7.6740   -4.4889   26.8933 H   0  0  0  0  0  0  0  0  0  0  0  0
    7.2508   -5.3180   25.3570 H   0  0  0  0  0  0  0  0  0  0  0  0
   10.1974   -6.4996   26.2196 H   0  0  0  0  0  0  0  0  0  0  0  0
   10.7877   -5.8568   24.6496 H   0  0  0  0  0  0  0  0  0  0  0  0
   11.2305   -5.0307   26.1820 H   0  0  0  0  0  0  0  0  0  0  0  0
    9.5854    1.2495   24.6258 H   0  0  0  0  0  0  0  0  0  0  0  0
    9.3886    2.2282   23.1920 H   0  0  0  0  0  0  0  0  0  0  0  0
    8.0686    0.4964   23.2745 H   0  0  0  0  0  0  0  0  0  0  0  0
    6.8044    0.4388   16.8592 H   0  0  0  0  0  0  0  0  0  0  0  0
    8.2434   -1.5614   21.0991 H   0  0  0  0  0  0  0  0  0  0  0  0
  1  2  1  0  0  0  0
  1  4  2  0  0  0  0
  2  8  2  0  0  0  0
  3  5  2  0  0  0  0
  3 11  1  0  0  0  0
  4 13  1  0  0  0  0
  5 15  1  0  0  0  0
  6  9  2  0  0  0  0
  6 14  1  0  0  0  0
  7 10  1  0  0  0  0
  7 14  2  0  0  0  0
  8 16  1  0  0  0  0
  9 17  1  0  0  0  0
 10 17  2  0  0  0  0
 11 18  2  0  0  0  0
 12 15  2  0  0  0  0
 12 18  1  0  0  0  0
 13 16  2  0  0  0  0
 13 19  1  0  0  0  0
 14 24  1  0  0  0  0
 15 23  1  0  0  0  0
 16 26  1  0  0  0  0
 17 28  1  0  0  0  0
 18 30  1  0  0  0  0
 19 25  2  0  0  0  0
 19 27  1  0  0  0  0
 20 24  1  0  0  0  0
 20 27  1  0  0  0  0
 20 29  2  0  0  0  0
 21 28  1  0  0  0  0
 22 28  1  0  0  0  0
 23 24  1  1  0  0  0
 25 26  1  0  0  0  0
  1 31  1  0  0  0  0
  2 32  1  0  0  0  0
  3 33  1  0  0  0  0
  4 34  1  0  0  0  0
  5 35  1  0  0  0  0
  6 36  1  0  0  0  0
  7 37  1  0  0  0  0
  8 38  1  0  0  0  0
  9 39  1  0  0  0  0
 10 40  1  0  0  0  0
 11 41  1  0  0  0  0
 12 42  1  0  0  0  0
 21 43  1  0  0  0  0
 21 44  1  0  0  0  0
 21 45  1  0  0  0  0
 22 46  1  0  0  0  0
 22 47  1  0  0  0  0
 22 48  1  0  0  0  0
 23 49  1  0  0  0  0
 23 50  1  0  0  0  0
 24 51  1  0  0  0  0
 26 52  1  0  0  0  0
 27 53  1  0  0  0  0
M  END
> <clash_score>
0

> <docking_score>
-8.844578742980957

> <overlap_score>
1.001389980316162

$$$$
BENZO_227_2
  -OEChem-08222022183D

 53 56  0     1  0  0  0  0  0999 V2000
    4.2750    1.7050   20.8490 C   0  0  0  0  0  0  0  0  0  0  0  0
    3.9160    2.0630   19.5520 C   0  0  0  0  0  0  0  0  0  0  0  0
    5.4210    0.9600   21.0930 C   0  0  0  0  0  0  0  0  0  0  0  0
    9.0720   -1.1280   24.8640 C   0  0  0  0  0  0  0  0  0  0  0  0
    9.7200   -2.2600   22.8630 C   0  0  0  0  0  0  0  0  0  0  0  0
    4.6890    1.6810   18.4640 C   0  0  0  0  0  0  0  0  0  0  0  0
    8.9960   -2.3380   25.5320 C   0  0  0  0  0  0  0  0  0  0  0  0
    9.6730   -3.4710   23.5300 C   0  0  0  0  0  0  0  0  0  0  0  0
   12.3565    1.9564   22.9554 C   0  0  0  0  0  0  0  0  0  0  0  0
   10.7932    3.1569   21.9808 C   0  0  0  0  0  0  0  0  0  0  0  0
    6.1790    0.5730   19.9990 C   0  0  0  0  0  0  0  0  0  0  0  0
    9.3350   -1.0880   23.5010 C   0  0  0  0  0  0  0  0  0  0  0  0
   10.9611    2.1180   22.8635 C   0  0  0  0  0  0  0  0  0  0  0  0
    5.8300    0.9190   18.6970 C   0  0  0  0  0  0  0  0  0  0  0  0
    9.3070   -3.5340   24.8780 C   0  0  0  0  0  0  0  0  0  0  0  0
    7.3170   -0.1610   19.8550 C   0  0  0  0  0  0  0  0  0  0  0  0
    9.0420    0.3700   21.5280 C   0  0  0  0  0  0  0  0  0  0  0  0
   12.3862    4.6002   20.6933 C   0  0  0  0  0  0  0  0  0  0  0  0
    8.8766   -4.8075   26.9494 C   0  0  0  0  0  0  0  0  0  0  0  0
    9.5670   -5.9896   24.8578 C   0  0  0  0  0  0  0  0  0  0  0  0
    9.8870    1.3260   23.5730 C   0  0  0  0  0  0  0  0  0  0  0  0
    9.4560    0.1560   22.8130 C   0  0  2  0  0  0  0  0  0  0  0  0
   13.0274    2.8231   22.1920 N   0  0  0  0  0  0  0  0  0  0  0  0
    7.6390   -0.2680   18.5410 N   0  0  0  0  0  0  0  0  0  0  0  0
    6.7580    0.3810   17.8350 N   0  0  0  0  0  0  0  0  0  0  0  0
   12.0493    3.5392   21.6118 N   0  0  0  0  0  0  0  0  0  0  0  0
    8.1890   -0.7180   20.8700 N   0  0  0  0  0  0  0  0  0  0  0  0
    9.2556   -4.7554   25.5514 N   0  0  0  0  0  0  0  0  0  0  0  0
    9.2690    1.4140   20.9380 O   0  0  0  0  0  0  0  0  0  0  0  0
    3.6468    2.0173   21.6825 H   0  0  0  0  0  0  0  0  0  0  0  0
    3.0153    2.6527   19.3907 H   0  0  0  0  0  0  0  0  0  0  0  0
    5.7015    0.6980   22.1071 H   0  0  0  0  0  0  0  0  0  0  0  0
    8.9214   -0.1986   25.4206 H   0  0  0  0  0  0  0  0  0  0  0  0
   10.0622   -2.2326   21.8251 H   0  0  0  0  0  0  0  0  0  0  0  0
    4.4064    1.9744   17.4453 H   0  0  0  0  0  0  0  0  0  0  0  0
    8.6882   -2.3542   26.5803 H   0  0  0  0  0  0  0  0  0  0  0  0
    9.9258   -4.3896   22.9914 H   0  0  0  0  0  0  0  0  0  0  0  0
   12.9148    1.2434   23.5455 H   0  0  0  0  0  0  0  0  0  0  0  0
    9.9088    3.6436   21.5925 H   0  0  0  0  0  0  0  0  0  0  0  0
   12.4913    5.5238   21.2686 H   0  0  0  0  0  0  0  0  0  0  0  0
   13.3235    4.3577   20.1848 H   0  0  0  0  0  0  0  0  0  0  0  0
   11.5908    4.7003   19.9494 H   0  0  0  0  0  0  0  0  0  0  0  0
    8.8956   -5.8512   27.2963 H   0  0  0  0  0  0  0  0  0  0  0  0
    9.5845   -4.2109   27.5435 H   0  0  0  0  0  0  0  0  0  0  0  0
    7.8621   -4.3997   27.0696 H   0  0  0  0  0  0  0  0  0  0  0  0
    9.4707   -6.8361   25.5536 H   0  0  0  0  0  0  0  0  0  0  0  0
    8.8693   -6.1242   24.0181 H   0  0  0  0  0  0  0  0  0  0  0  0
   10.5972   -5.9450   24.4750 H   0  0  0  0  0  0  0  0  0  0  0  0
   10.2455    1.0419   24.5710 H   0  0  0  0  0  0  0  0  0  0  0  0
    9.0345    1.9965   23.7496 H   0  0  0  0  0  0  0  0  0  0  0  0
   10.7927   -0.1029   22.4279 H   0  0  0  0  0  0  0  0  0  0  0  0
    6.8044    0.4388   16.8592 H   0  0  0  0  0  0  0  0  0  0  0  0
    8.2434   -1.5614   21.0991 H   0  0  0  0  0  0  0  0  0  0  0  0
  1  2  1  0  0  0  0
  1  3  2  0  0  0  0
  2  6  2  0  0  0  0
  3 11  1  0  0  0  0
  4  7  2  0  0  0  0
  4 12  1  0  0  0  0
  5  8  1  0  0  0  0
  5 12  2  0  0  0  0
  6 14  1  0  0  0  0
  7 15  1  0  0  0  0
  8 15  2  0  0  0  0
  9 13  1  0  0  0  0
  9 23  2  0  0  0  0
 10 13  2  0  0  0  0
 10 26  1  0  0  0  0
 11 14  2  0  0  0  0
 11 16  1  0  0  0  0
 12 22  1  0  0  0  0
 13 21  1  0  0  0  0
 14 25  1  0  0  0  0
 15 28  1  0  0  0  0
 16 24  2  0  0  0  0
 16 27  1  0  0  0  0
 17 22  1  0  0  0  0
 17 27  1  0  0  0  0
 17 29  2  0  0  0  0
 18 26  1  0  0  0  0
 19 28  1  0  0  0  0
 20 28  1  0  0  0  0
 21 22  1  6  0  0  0
 23 26  1  0  0  0  0
 24 25  1  0  0  0  0
  1 30  1  0  0  0  0
  2 31  1  0  0  0  0
  3 32  1  0  0  0  0
  4 33  1  0  0  0  0
  5 34  1  0  0  0  0
  6 35  1  0  0  0  0
  7 36  1  0  0  0  0
  8 37  1  0  0  0  0
  9 38  1  0  0  0  0
 10 39  1  0  0  0  0
 18 40  1  0  0  0  0
 18 41  1  0  0  0  0
 18 42  1  0  0  0  0
 19 43  1  0  0  0  0
 19 44  1  0  0  0  0
 19 45  1  0  0  0  0
 20 46  1  0  0  0  0
 20 47  1  0  0  0  0
 20 48  1  0  0  0  0
 21 49  1  0  0  0  0
 21 50  1  0  0  0  0
 22 51  1  0  0  0  0
 25 52  1  0  0  0  0
 27 53  1  0  0  0  0
M  END
> <clash_score>
0

> <docking_score>
-7.490056991577148

> <overlap_score>
0.9546347260475159

$$$$
BENZO_227_1
  -OEChem-08222022183D

 53 56  0     1  0  0  0  0  0999 V2000
    4.2750    1.7050   20.8490 C   0  0  0  0  0  0  0  0  0  0  0  0
    3.9160    2.0630   19.5520 C   0  0  0  0  0  0  0  0  0  0  0  0
    5.4210    0.9600   21.0930 C   0  0  0  0  0  0  0  0  0  0  0  0
    9.0720   -1.1280   24.8640 C   0  0  0  0  0  0  0  0  0  0  0  0
    9.7200   -2.2600   22.8630 C   0  0  0  0  0  0  0  0  0  0  0  0
    4.6890    1.6810   18.4640 C   0  0  0  0  0  0  0  0  0  0  0  0
    8.9960   -2.3380   25.5320 C   0  0  0  0  0  0  0  0  0  0  0  0
    9.6730   -3.4710   23.5300 C   0  0  0  0  0  0  0  0  0  0  0  0
   12.0720    2.7762   23.5689 C   0  0  0  0  0  0  0  0  0  0  0  0
   12.3651    0.6087   23.3429 C   0  0  0  0  0  0  0  0  0  0  0  0
    6.1790    0.5730   19.9990 C   0  0  0  0  0  0  0  0  0  0  0  0
    9.3350   -1.0880   23.5010 C   0  0  0  0  0  0  0  0  0  0  0  0
   11.3794    1.5528   23.4964 C   0  0  0  0  0  0  0  0  0  0  0  0
    5.8300    0.9190   18.6970 C   0  0  0  0  0  0  0  0  0  0  0  0
    9.3070   -3.5340   24.8780 C   0  0  0  0  0  0  0  0  0  0  0  0
    7.3170   -0.1610   19.8550 C   0  0  0  0  0  0  0  0  0  0  0  0
    9.0420    0.3700   21.5280 C   0  0  0  0  0  0  0  0  0  0  0  0
   14.8634    0.7326   23.1949 C   0  0  0  0  0  0  0  0  0  0  0  0
    8.0148   -5.2164   26.1419 C   0  0  0  0  0  0  0  0  0  0  0  0
   10.4390   -5.5857   25.6570 C   0  0  0  0  0  0  0  0  0  0  0  0
    9.8870    1.3260   23.5730 C   0  0  0  0  0  0  0  0  0  0  0  0
    9.4560    0.1560   22.8130 C   0  0  1  0  0  0  0  0  0  0  0  0
   13.3955    2.6261   23.4698 N   0  0  0  0  0  0  0  0  0  0  0  0
    7.6390   -0.2680   18.5410 N   0  0  0  0  0  0  0  0  0  0  0  0
    6.7580    0.3810   17.8350 N   0  0  0  0  0  0  0  0  0  0  0  0
   13.5424    1.2972   23.3335 N   0  0  0  0  0  0  0  0  0  0  0  0
    8.1890   -0.7180   20.8700 N   0  0  0  0  0  0  0  0  0  0  0  0
    9.2556   -4.7554   25.5514 N   0  0  0  0  0  0  0  0  0  0  0  0
    9.2690    1.4140   20.9380 O   0  0  0  0  0  0  0  0  0  0  0  0
    3.6468    2.0173   21.6825 H   0  0  0  0  0  0  0  0  0  0  0  0
    3.0153    2.6527   19.3907 H   0  0  0  0  0  0  0  0  0  0  0  0
    5.7015    0.6980   22.1071 H   0  0  0  0  0  0  0  0  0  0  0  0
    8.9214   -0.1986   25.4206 H   0  0  0  0  0  0  0  0  0  0  0  0
   10.0622   -2.2326   21.8251 H   0  0  0  0  0  0  0  0  0  0  0  0
    4.4064    1.9744   17.4453 H   0  0  0  0  0  0  0  0  0  0  0  0
    8.6882   -2.3542   26.5803 H   0  0  0  0  0  0  0  0  0  0  0  0
    9.9258   -4.3896   22.9914 H   0  0  0  0  0  0  0  0  0  0  0  0
   11.6698    3.7720   23.6907 H   0  0  0  0  0  0  0  0  0  0  0  0
   12.3300   -0.4677   23.2433 H   0  0  0  0  0  0  0  0  0  0  0  0
   15.1060    0.6995   22.1295 H   0  0  0  0  0  0  0  0  0  0  0  0
   15.5839    1.3558   23.7319 H   0  0  0  0  0  0  0  0  0  0  0  0
   14.8726   -0.2742   23.6217 H   0  0  0  0  0  0  0  0  0  0  0  0
    8.1775   -6.1919   26.6235 H   0  0  0  0  0  0  0  0  0  0  0  0
    7.6740   -4.4889   26.8933 H   0  0  0  0  0  0  0  0  0  0  0  0
    7.2508   -5.3180   25.3570 H   0  0  0  0  0  0  0  0  0  0  0  0
   10.1974   -6.4996   26.2196 H   0  0  0  0  0  0  0  0  0  0  0  0
   10.7877   -5.8568   24.6496 H   0  0  0  0  0  0  0  0  0  0  0  0
   11.2305   -5.0307   26.1820 H   0  0  0  0  0  0  0  0  0  0  0  0
    9.5854    1.2495   24.6258 H   0  0  0  0  0  0  0  0  0  0  0  0
    9.3886    2.2282   23.1920 H   0  0  0  0  0  0  0  0  0  0  0  0
    8.0686    0.4964   23.2745 H   0  0  0  0  0  0  0  0  0  0  0  0
    6.8044    0.4388   16.8592 H   0  0  0  0  0  0  0  0  0  0  0  0
    8.2434   -1.5614   21.0991 H   0  0  0  0  0  0  0  0  0  0  0  0
  1  2  1  0  0  0  0
  1  3  2  0  0  0  0
  2  6  2  0  0  0  0
  3 11  1  0  0  0  0
  4  7  2  0  0  0  0
  4 12  1  0  0  0  0
  5  8  1  0  0  0  0
  5 12  2  0  0  0  0
  6 14  1  0  0  0  0
  7 15  1  0  0  0  0
  8 15  2  0  0  0  0
  9 13  1  0  0  0  0
  9 23  2  0  0  0  0
 10 13  2  0  0  0  0
 10 26  1  0  0  0  0
 11 14  2  0  0  0  0
 11 16  1  0  0  0  0
 12 22  1  0  0  0  0
 13 21  1  0  0  0  0
 14 25  1  0  0  0  0
 15 28  1  0  0  0  0
 16 24  2  0  0  0  0
 16 27  1  0  0  0  0
 17 22  1  0  0  0  0
 17 27  1  0  0  0  0
 17 29  2  0  0  0  0
 18 26  1  0  0  0  0
 19 28  1  0  0  0  0
 20 28  1  0  0  0  0
 21 22  1  1  0  0  0
 23 26  1  0  0  0  0
 24 25  1  0  0  0  0
  1 30  1  0  0  0  0
  2 31  1  0  0  0  0
  3 32  1  0  0  0  0
  4 33  1  0  0  0  0
  5 34  1  0  0  0  0
  6 35  1  0  0  0  0
  7 36  1  0  0  0  0
  8 37  1  0  0  0  0
  9 38  1  0  0  0  0
 10 39  1  0  0  0  0
 18 40  1  0  0  0  0
 18 41  1  0  0  0  0
 18 42  1  0  0  0  0
 19 43  1  0  0  0  0
 19 44  1  0  0  0  0
 19 45  1  0  0  0  0
 20 46  1  0  0  0  0
 20 47  1  0  0  0  0
 20 48  1  0  0  0  0
 21 49  1  0  0  0  0
 21 50  1  0  0  0  0
 22 51  1  0  0  0  0
 25 52  1  0  0  0  0
 27 53  1  0  0  0  0
M  END
> <clash_score>
0

> <docking_score>
-9.175835609436035

> <overlap_score>
1.0001940727233887

$$$$
BENZO_226_2
  -OEChem-08222022183D

 53 56  0     1  0  0  0  0  0999 V2000
    4.2750    1.7050   20.8490 C   0  0  0  0  0  0  0  0  0  0  0  0
    3.9160    2.0630   19.5520 C   0  0  0  0  0  0  0  0  0  0  0  0
   13.2976    2.5464   22.4233 C   0  0  0  0  0  0  0  0  0  0  0  0
    5.4210    0.9600   21.0930 C   0  0  0  0  0  0  0  0  0  0  0  0
   12.3059    1.8167   23.0786 C   0  0  0  0  0  0  0  0  0  0  0  0
    9.0720   -1.1280   24.8640 C   0  0  0  0  0  0  0  0  0  0  0  0
    9.7200   -2.2600   22.8630 C   0  0  0  0  0  0  0  0  0  0  0  0
    4.6890    1.6810   18.4640 C   0  0  0  0  0  0  0  0  0  0  0  0
    8.9960   -2.3380   25.5320 C   0  0  0  0  0  0  0  0  0  0  0  0
    9.6730   -3.4710   23.5300 C   0  0  0  0  0  0  0  0  0  0  0  0
   12.9446    3.5777   21.5528 C   0  0  0  0  0  0  0  0  0  0  0  0
   10.6080    3.1492   21.9930 C   0  0  0  0  0  0  0  0  0  0  0  0
    6.1790    0.5730   19.9990 C   0  0  0  0  0  0  0  0  0  0  0  0
    9.3350   -1.0880   23.5010 C   0  0  0  0  0  0  0  0  0  0  0  0
   10.9611    2.1180   22.8635 C   0  0  0  0  0  0  0  0  0  0  0  0
    5.8300    0.9190   18.6970 C   0  0  0  0  0  0  0  0  0  0  0  0
    9.3070   -3.5340   24.8780 C   0  0  0  0  0  0  0  0  0  0  0  0
   11.5998    3.8790   21.3377 C   0  0  0  0  0  0  0  0  0  0  0  0
    7.3170   -0.1610   19.8550 C   0  0  0  0  0  0  0  0  0  0  0  0
    9.0420    0.3700   21.5280 C   0  0  0  0  0  0  0  0  0  0  0  0
    8.8766   -4.8075   26.9494 C   0  0  0  0  0  0  0  0  0  0  0  0
    9.5670   -5.9896   24.8578 C   0  0  0  0  0  0  0  0  0  0  0  0
    9.8870    1.3260   23.5730 C   0  0  0  0  0  0  0  0  0  0  0  0
    9.4560    0.1560   22.8130 C   0  0  2  0  0  0  0  0  0  0  0  0
    7.6390   -0.2680   18.5410 N   0  0  0  0  0  0  0  0  0  0  0  0
    6.7580    0.3810   17.8350 N   0  0  0  0  0  0  0  0  0  0  0  0
    8.1890   -0.7180   20.8700 N   0  0  0  0  0  0  0  0  0  0  0  0
    9.2556   -4.7554   25.5514 N   0  0  0  0  0  0  0  0  0  0  0  0
    9.2690    1.4140   20.9380 O   0  0  0  0  0  0  0  0  0  0  0  0
   11.1647    5.1506   20.2627 Cl  0  0  0  0  0  0  0  0  0  0  0  0
    3.6468    2.0173   21.6825 H   0  0  0  0  0  0  0  0  0  0  0  0
    3.0153    2.6527   19.3907 H   0  0  0  0  0  0  0  0  0  0  0  0
   14.3448    2.3114   22.5909 H   0  0  0  0  0  0  0  0  0  0  0  0
    5.7015    0.6980   22.1071 H   0  0  0  0  0  0  0  0  0  0  0  0
   12.5902    1.0148   23.7550 H   0  0  0  0  0  0  0  0  0  0  0  0
    8.9214   -0.1986   25.4206 H   0  0  0  0  0  0  0  0  0  0  0  0
   10.0622   -2.2326   21.8251 H   0  0  0  0  0  0  0  0  0  0  0  0
    4.4064    1.9744   17.4453 H   0  0  0  0  0  0  0  0  0  0  0  0
    8.6882   -2.3542   26.5803 H   0  0  0  0  0  0  0  0  0  0  0  0
    9.9258   -4.3896   22.9914 H   0  0  0  0  0  0  0  0  0  0  0  0
   13.7282    4.1379   21.0487 H   0  0  0  0  0  0  0  0  0  0  0  0
    9.5581    3.3806   21.8290 H   0  0  0  0  0  0  0  0  0  0  0  0
    8.8956   -5.8512   27.2963 H   0  0  0  0  0  0  0  0  0  0  0  0
    9.5845   -4.2109   27.5435 H   0  0  0  0  0  0  0  0  0  0  0  0
    7.8621   -4.3997   27.0696 H   0  0  0  0  0  0  0  0  0  0  0  0
    9.4707   -6.8361   25.5536 H   0  0  0  0  0  0  0  0  0  0  0  0
    8.8693   -6.1242   24.0181 H   0  0  0  0  0  0  0  0  0  0  0  0
   10.5972   -5.9450   24.4750 H   0  0  0  0  0  0  0  0  0  0  0  0
   10.2455    1.0419   24.5710 H   0  0  0  0  0  0  0  0  0  0  0  0
    9.0345    1.9965   23.7496 H   0  0  0  0  0  0  0  0  0  0  0  0
   10.7927   -0.1029   22.4279 H   0  0  0  0  0  0  0  0  0  0  0  0
    6.8044    0.4388   16.8592 H   0  0  0  0  0  0  0  0  0  0  0  0
    8.2434   -1.5614   21.0991 H   0  0  0  0  0  0  0  0  0  0  0  0
  1  2  1  0  0  0  0
  1  4  2  0  0  0  0
  2  8  2  0  0  0  0
  3  5  2  0  0  0  0
  3 11  1  0  0  0  0
  4 13  1  0  0  0  0
  5 15  1  0  0  0  0
  6  9  2  0  0  0  0
  6 14  1  0  0  0  0
  7 10  1  0  0  0  0
  7 14  2  0  0  0  0
  8 16  1  0  0  0  0
  9 17  1  0  0  0  0
 10 17  2  0  0  0  0
 11 18  2  0  0  0  0
 12 15  2  0  0  0  0
 12 18  1  0  0  0  0
 13 16  2  0  0  0  0
 13 19  1  0  0  0  0
 14 24  1  0  0  0  0
 15 23  1  0  0  0  0
 16 26  1  0  0  0  0
 17 28  1  0  0  0  0
 18 30  1  0  0  0  0
 19 25  2  0  0  0  0
 19 27  1  0  0  0  0
 20 24  1  0  0  0  0
 20 27  1  0  0  0  0
 20 29  2  0  0  0  0
 21 28  1  0  0  0  0
 22 28  1  0  0  0  0
 23 24  1  6  0  0  0
 25 26  1  0  0  0  0
  1 31  1  0  0  0  0
  2 32  1  0  0  0  0
  3 33  1  0  0  0  0
  4 34  1  0  0  0  0
  5 35  1  0  0  0  0
  6 36  1  0  0  0  0
  7 37  1  0  0  0  0
  8 38  1  0  0  0  0
  9 39  1  0  0  0  0
 10 40  1  0  0  0  0
 11 41  1  0  0  0  0
 12 42  1  0  0  0  0
 21 43  1  0  0  0  0
 21 44  1  0  0  0  0
 21 45  1  0  0  0  0
 22 46  1  0  0  0  0
 22 47  1  0  0  0  0
 22 48  1  0  0  0  0
 23 49  1  0  0  0  0
 23 50  1  0  0  0  0
 24 51  1  0  0  0  0
 26 52  1  0  0  0  0
 27 53  1  0  0  0  0
M  END
> <clash_score>
2.210296696509743

> <docking_score>
-8.025245666503906

> <overlap_score>
0.9601876735687256

$$$$
BENZO_229_1
  -OEChem-08222022183D

 55 58  0     1  0  0  0  0  0999 V2000
   14.1338    1.9717   23.3537 C   0  0  0  0  0  0  0  0  0  0  0  0
    4.2750    1.7050   20.8490 C   0  0  0  0  0  0  0  0  0  0  0  0
   13.6012    1.1747   24.3670 C   0  0  0  0  0  0  0  0  0  0  0  0
   13.2892    2.5593   22.4118 C   0  0  0  0  0  0  0  0  0  0  0  0
    3.9160    2.0630   19.5520 C   0  0  0  0  0  0  0  0  0  0  0  0
    5.4210    0.9600   21.0930 C   0  0  0  0  0  0  0  0  0  0  0  0
   12.2240    0.9652   24.4383 C   0  0  0  0  0  0  0  0  0  0  0  0
   11.9120    2.3498   22.4832 C   0  0  0  0  0  0  0  0  0  0  0  0
    9.0720   -1.1280   24.8640 C   0  0  0  0  0  0  0  0  0  0  0  0
    9.7200   -2.2600   22.8630 C   0  0  0  0  0  0  0  0  0  0  0  0
    4.6890    1.6810   18.4640 C   0  0  0  0  0  0  0  0  0  0  0  0
    8.9960   -2.3380   25.5320 C   0  0  0  0  0  0  0  0  0  0  0  0
    9.6730   -3.4710   23.5300 C   0  0  0  0  0  0  0  0  0  0  0  0
    6.1790    0.5730   19.9990 C   0  0  0  0  0  0  0  0  0  0  0  0
   11.3794    1.5528   23.4964 C   0  0  0  0  0  0  0  0  0  0  0  0
    9.3350   -1.0880   23.5010 C   0  0  0  0  0  0  0  0  0  0  0  0
    5.8300    0.9190   18.6970 C   0  0  0  0  0  0  0  0  0  0  0  0
    9.3070   -3.5340   24.8780 C   0  0  0  0  0  0  0  0  0  0  0  0
    7.3170   -0.1610   19.8550 C   0  0  0  0  0  0  0  0  0  0  0  0
    8.4227   -5.1089   26.6141 C   0  0  0  0  0  0  0  0  0  0  0  0
    9.0420    0.3700   21.5280 C   0  0  0  0  0  0  0  0  0  0  0  0
    8.4173   -7.5520   25.9532 C   0  0  0  0  0  0  0  0  0  0  0  0
    9.8870    1.3260   23.5730 C   0  0  0  0  0  0  0  0  0  0  0  0
    8.6900   -6.5411   27.0525 C   0  0  0  0  0  0  0  0  0  0  0  0
    9.4560    0.1560   22.8130 C   0  0  1  0  0  0  0  0  0  0  0  0
    7.6390   -0.2680   18.5410 N   0  0  0  0  0  0  0  0  0  0  0  0
    6.7580    0.3810   17.8350 N   0  0  0  0  0  0  0  0  0  0  0  0
    9.2546   -4.7423   25.5437 N   0  0  0  0  0  0  0  0  0  0  0  0
    8.1890   -0.7180   20.8700 N   0  0  0  0  0  0  0  0  0  0  0  0
    7.5768   -4.4085   27.1602 O   0  0  0  0  0  0  0  0  0  0  0  0
    9.2690    1.4140   20.9380 O   0  0  0  0  0  0  0  0  0  0  0  0
   15.2060    2.1359   23.2991 H   0  0  0  0  0  0  0  0  0  0  0  0
    3.6468    2.0173   21.6825 H   0  0  0  0  0  0  0  0  0  0  0  0
   14.2585    0.7180   25.1011 H   0  0  0  0  0  0  0  0  0  0  0  0
   13.7034    3.1808   21.6235 H   0  0  0  0  0  0  0  0  0  0  0  0
    3.0153    2.6527   19.3907 H   0  0  0  0  0  0  0  0  0  0  0  0
    5.7015    0.6980   22.1071 H   0  0  0  0  0  0  0  0  0  0  0  0
   11.8179    0.3426   25.2312 H   0  0  0  0  0  0  0  0  0  0  0  0
   11.2617    2.8116   21.7449 H   0  0  0  0  0  0  0  0  0  0  0  0
    8.9202   -0.1986   25.4206 H   0  0  0  0  0  0  0  0  0  0  0  0
   10.0631   -2.2319   21.8252 H   0  0  0  0  0  0  0  0  0  0  0  0
    4.4064    1.9744   17.4453 H   0  0  0  0  0  0  0  0  0  0  0  0
    8.6898   -2.3534   26.5810 H   0  0  0  0  0  0  0  0  0  0  0  0
    9.9254   -4.3899   22.9914 H   0  0  0  0  0  0  0  0  0  0  0  0
    7.3765   -7.4970   25.6176 H   0  0  0  0  0  0  0  0  0  0  0  0
    8.6071   -8.5677   26.3138 H   0  0  0  0  0  0  0  0  0  0  0  0
    9.0599   -7.3717   25.0851 H   0  0  0  0  0  0  0  0  0  0  0  0
    9.5854    1.2495   24.6258 H   0  0  0  0  0  0  0  0  0  0  0  0
    9.3886    2.2282   23.1920 H   0  0  0  0  0  0  0  0  0  0  0  0
    9.7367   -6.6182   27.3685 H   0  0  0  0  0  0  0  0  0  0  0  0
    8.0564   -6.7633   27.9189 H   0  0  0  0  0  0  0  0  0  0  0  0
    8.0686    0.4964   23.2745 H   0  0  0  0  0  0  0  0  0  0  0  0
    6.8044    0.4388   16.8592 H   0  0  0  0  0  0  0  0  0  0  0  0
    9.9034   -5.4689   25.2194 H   0  0  0  0  0  0  0  0  0  0  0  0
    8.2434   -1.5614   21.0991 H   0  0  0  0  0  0  0  0  0  0  0  0
  1  3  1  0  0  0  0
  1  4  2  0  0  0  0
  2  5  1  0  0  0  0
  2  6  2  0  0  0  0
  3  7  2  0  0  0  0
  4  8  1  0  0  0  0
  5 11  2  0  0  0  0
  6 14  1  0  0  0  0
  7 15  1  0  0  0  0
  8 15  2  0  0  0  0
  9 12  2  0  0  0  0
  9 16  1  0  0  0  0
 10 13  1  0  0  0  0
 10 16  2  0  0  0  0
 11 17  1  0  0  0  0
 12 18  1  0  0  0  0
 13 18  2  0  0  0  0
 14 17  2  0  0  0  0
 14 19  1  0  0  0  0
 15 23  1  0  0  0  0
 16 25  1  0  0  0  0
 17 27  1  0  0  0  0
 18 28  1  0  0  0  0
 19 26  2  0  0  0  0
 19 29  1  0  0  0  0
 20 24  1  0  0  0  0
 20 28  1  0  0  0  0
 20 30  2  0  0  0  0
 21 25  1  0  0  0  0
 21 29  1  0  0  0  0
 21 31  2  0  0  0  0
 22 24  1  0  0  0  0
 23 25  1  1  0  0  0
 26 27  1  0  0  0  0
  1 32  1  0  0  0  0
  2 33  1  0  0  0  0
  3 34  1  0  0  0  0
  4 35  1  0  0  0  0
  5 36  1  0  0  0  0
  6 37  1  0  0  0  0
  7 38  1  0  0  0  0
  8 39  1  0  0  0  0
  9 40  1  0  0  0  0
 10 41  1  0  0  0  0
 11 42  1  0  0  0  0
 12 43  1  0  0  0  0
 13 44  1  0  0  0  0
 22 45  1  0  0  0  0
 22 46  1  0  0  0  0
 22 47  1  0  0  0  0
 23 48  1  0  0  0  0
 23 49  1  0  0  0  0
 24 50  1  0  0  0  0
 24 51  1  0  0  0  0
 25 52  1  0  0  0  0
 27 53  1  0  0  0  0
 28 54  1  0  0  0  0
 29 55  1  0  0  0  0
M  END
> <clash_score>
0.6426261285623064

> <docking_score>
-7.573564529418945

> <overlap_score>
0.9959042072296143

$$$$
BENZO_229_2
  -OEChem-08222022183D

 55 58  0     1  0  0  0  0  0999 V2000
    6.6146    3.3501   25.4951 C   0  0  0  0  0  0  0  0  0  0  0  0
    4.2750    1.7050   20.8490 C   0  0  0  0  0  0  0  0  0  0  0  0
    7.8859    3.3796   26.0683 C   0  0  0  0  0  0  0  0  0  0  0  0
    6.4047    2.6642   24.2988 C   0  0  0  0  0  0  0  0  0  0  0  0
    3.9160    2.0630   19.5520 C   0  0  0  0  0  0  0  0  0  0  0  0
    5.4210    0.9600   21.0930 C   0  0  0  0  0  0  0  0  0  0  0  0
    8.9473    2.7232   25.4452 C   0  0  0  0  0  0  0  0  0  0  0  0
    7.4660    2.0078   23.6757 C   0  0  0  0  0  0  0  0  0  0  0  0
    9.0720   -1.1280   24.8640 C   0  0  0  0  0  0  0  0  0  0  0  0
    9.7200   -2.2600   22.8630 C   0  0  0  0  0  0  0  0  0  0  0  0
    4.6890    1.6810   18.4640 C   0  0  0  0  0  0  0  0  0  0  0  0
    8.9960   -2.3380   25.5320 C   0  0  0  0  0  0  0  0  0  0  0  0
    9.6730   -3.4710   23.5300 C   0  0  0  0  0  0  0  0  0  0  0  0
    6.1790    0.5730   19.9990 C   0  0  0  0  0  0  0  0  0  0  0  0
    8.7373    2.0373   24.2489 C   0  0  0  0  0  0  0  0  0  0  0  0
    9.3350   -1.0880   23.5010 C   0  0  0  0  0  0  0  0  0  0  0  0
    5.8300    0.9190   18.6970 C   0  0  0  0  0  0  0  0  0  0  0  0
    9.3070   -3.5340   24.8780 C   0  0  0  0  0  0  0  0  0  0  0  0
    7.3170   -0.1610   19.8550 C   0  0  0  0  0  0  0  0  0  0  0  0
    8.4227   -5.1089   26.6141 C   0  0  0  0  0  0  0  0  0  0  0  0
    9.0420    0.3700   21.5280 C   0  0  0  0  0  0  0  0  0  0  0  0
    8.4173   -7.5520   25.9532 C   0  0  0  0  0  0  0  0  0  0  0  0
    9.8870    1.3260   23.5730 C   0  0  0  0  0  0  0  0  0  0  0  0
    8.6900   -6.5411   27.0525 C   0  0  0  0  0  0  0  0  0  0  0  0
    9.4560    0.1560   22.8130 C   0  0  2  0  0  0  0  0  0  0  0  0
    7.6390   -0.2680   18.5410 N   0  0  0  0  0  0  0  0  0  0  0  0
    6.7580    0.3810   17.8350 N   0  0  0  0  0  0  0  0  0  0  0  0
    9.2546   -4.7423   25.5437 N   0  0  0  0  0  0  0  0  0  0  0  0
    8.1890   -0.7180   20.8700 N   0  0  0  0  0  0  0  0  0  0  0  0
    7.5768   -4.4085   27.1602 O   0  0  0  0  0  0  0  0  0  0  0  0
    9.2690    1.4140   20.9380 O   0  0  0  0  0  0  0  0  0  0  0  0
    5.7880    3.8602   25.9812 H   0  0  0  0  0  0  0  0  0  0  0  0
    3.6468    2.0173   21.6825 H   0  0  0  0  0  0  0  0  0  0  0  0
    8.0494    3.9127   27.0004 H   0  0  0  0  0  0  0  0  0  0  0  0
    5.4148    2.6402   23.8529 H   0  0  0  0  0  0  0  0  0  0  0  0
    3.0153    2.6527   19.3907 H   0  0  0  0  0  0  0  0  0  0  0  0
    5.7015    0.6980   22.1071 H   0  0  0  0  0  0  0  0  0  0  0  0
    9.9345    2.7516   25.8990 H   0  0  0  0  0  0  0  0  0  0  0  0
    7.2931    1.4761   22.7438 H   0  0  0  0  0  0  0  0  0  0  0  0
    8.9202   -0.1986   25.4206 H   0  0  0  0  0  0  0  0  0  0  0  0
   10.0631   -2.2319   21.8252 H   0  0  0  0  0  0  0  0  0  0  0  0
    4.4064    1.9744   17.4453 H   0  0  0  0  0  0  0  0  0  0  0  0
    8.6898   -2.3534   26.5810 H   0  0  0  0  0  0  0  0  0  0  0  0
    9.9254   -4.3899   22.9914 H   0  0  0  0  0  0  0  0  0  0  0  0
    7.3765   -7.4970   25.6176 H   0  0  0  0  0  0  0  0  0  0  0  0
    8.6071   -8.5677   26.3138 H   0  0  0  0  0  0  0  0  0  0  0  0
    9.0599   -7.3717   25.0851 H   0  0  0  0  0  0  0  0  0  0  0  0
   10.4287    2.0368   22.9354 H   0  0  0  0  0  0  0  0  0  0  0  0
   10.6035    1.0279   24.3510 H   0  0  0  0  0  0  0  0  0  0  0  0
    9.7367   -6.6182   27.3685 H   0  0  0  0  0  0  0  0  0  0  0  0
    8.0564   -6.7633   27.9189 H   0  0  0  0  0  0  0  0  0  0  0  0
   10.7927   -0.1029   22.4279 H   0  0  0  0  0  0  0  0  0  0  0  0
    6.8044    0.4388   16.8592 H   0  0  0  0  0  0  0  0  0  0  0  0
    9.9034   -5.4689   25.2194 H   0  0  0  0  0  0  0  0  0  0  0  0
    8.2434   -1.5614   21.0991 H   0  0  0  0  0  0  0  0  0  0  0  0
  1  3  1  0  0  0  0
  1  4  2  0  0  0  0
  2  5  1  0  0  0  0
  2  6  2  0  0  0  0
  3  7  2  0  0  0  0
  4  8  1  0  0  0  0
  5 11  2  0  0  0  0
  6 14  1  0  0  0  0
  7 15  1  0  0  0  0
  8 15  2  0  0  0  0
  9 12  2  0  0  0  0
  9 16  1  0  0  0  0
 10 13  1  0  0  0  0
 10 16  2  0  0  0  0
 11 17  1  0  0  0  0
 12 18  1  0  0  0  0
 13 18  2  0  0  0  0
 14 17  2  0  0  0  0
 14 19  1  0  0  0  0
 15 23  1  0  0  0  0
 16 25  1  0  0  0  0
 17 27  1  0  0  0  0
 18 28  1  0  0  0  0
 19 26  2  0  0  0  0
 19 29  1  0  0  0  0
 20 24  1  0  0  0  0
 20 28  1  0  0  0  0
 20 30  2  0  0  0  0
 21 25  1  0  0  0  0
 21 29  1  0  0  0  0
 21 31  2  0  0  0  0
 22 24  1  0  0  0  0
 23 25  1  6  0  0  0
 26 27  1  0  0  0  0
  1 32  1  0  0  0  0
  2 33  1  0  0  0  0
  3 34  1  0  0  0  0
  4 35  1  0  0  0  0
  5 36  1  0  0  0  0
  6 37  1  0  0  0  0
  7 38  1  0  0  0  0
  8 39  1  0  0  0  0
  9 40  1  0  0  0  0
 10 41  1  0  0  0  0
 11 42  1  0  0  0  0
 12 43  1  0  0  0  0
 13 44  1  0  0  0  0
 22 45  1  0  0  0  0
 22 46  1  0  0  0  0
 22 47  1  0  0  0  0
 23 48  1  0  0  0  0
 23 49  1  0  0  0  0
 24 50  1  0  0  0  0
 24 51  1  0  0  0  0
 25 52  1  0  0  0  0
 27 53  1  0  0  0  0
 28 54  1  0  0  0  0
 29 55  1  0  0  0  0
M  END
> <clash_score>
0.6426261285623064

> <docking_score>
-6.702363014221191

> <overlap_score>
0.844518780708313

$$$$
BENZO_228_2
  -OEChem-08222022183D

 52 55  0     1  0  0  0  0  0999 V2000
    4.2750    1.7050   20.8490 C   0  0  0  0  0  0  0  0  0  0  0  0
    3.9160    2.0630   19.5520 C   0  0  0  0  0  0  0  0  0  0  0  0
    5.4210    0.9600   21.0930 C   0  0  0  0  0  0  0  0  0  0  0  0
    9.0720   -1.1280   24.8640 C   0  0  0  0  0  0  0  0  0  0  0  0
    9.7200   -2.2600   22.8630 C   0  0  0  0  0  0  0  0  0  0  0  0
    4.6890    1.6810   18.4640 C   0  0  0  0  0  0  0  0  0  0  0  0
    8.9960   -2.3380   25.5320 C   0  0  0  0  0  0  0  0  0  0  0  0
    9.6730   -3.4710   23.5300 C   0  0  0  0  0  0  0  0  0  0  0  0
   12.3907    0.6679   23.6950 C   0  0  0  0  0  0  0  0  0  0  0  0
   13.4189    0.5308   24.6014 C   0  0  0  0  0  0  0  0  0  0  0  0
   11.3314    1.2632   25.6763 C   0  0  0  0  0  0  0  0  0  0  0  0
    6.1790    0.5730   19.9990 C   0  0  0  0  0  0  0  0  0  0  0  0
    9.3350   -1.0880   23.5010 C   0  0  0  0  0  0  0  0  0  0  0  0
   11.1814    1.0923   24.3176 C   0  0  0  0  0  0  0  0  0  0  0  0
    5.8300    0.9190   18.6970 C   0  0  0  0  0  0  0  0  0  0  0  0
    9.3070   -3.5340   24.8780 C   0  0  0  0  0  0  0  0  0  0  0  0
    7.3170   -0.1610   19.8550 C   0  0  0  0  0  0  0  0  0  0  0  0
    8.4227   -5.1089   26.6141 C   0  0  0  0  0  0  0  0  0  0  0  0
    9.0420    0.3700   21.5280 C   0  0  0  0  0  0  0  0  0  0  0  0
    8.4173   -7.5520   25.9532 C   0  0  0  0  0  0  0  0  0  0  0  0
    9.8870    1.3260   23.5730 C   0  0  0  0  0  0  0  0  0  0  0  0
    8.6900   -6.5411   27.0525 C   0  0  0  0  0  0  0  0  0  0  0  0
    9.4560    0.1560   22.8130 C   0  0  2  0  0  0  0  0  0  0  0  0
    7.6390   -0.2680   18.5410 N   0  0  0  0  0  0  0  0  0  0  0  0
    6.7580    0.3810   17.8350 N   0  0  0  0  0  0  0  0  0  0  0  0
    9.2546   -4.7423   25.5437 N   0  0  0  0  0  0  0  0  0  0  0  0
    8.1890   -0.7180   20.8700 N   0  0  0  0  0  0  0  0  0  0  0  0
    7.5768   -4.4085   27.1602 O   0  0  0  0  0  0  0  0  0  0  0  0
    9.2690    1.4140   20.9380 O   0  0  0  0  0  0  0  0  0  0  0  0
   12.9250    0.9128   26.1959 S   0  0  0  0  0  0  0  0  0  0  0  0
    3.6468    2.0173   21.6825 H   0  0  0  0  0  0  0  0  0  0  0  0
    3.0153    2.6527   19.3907 H   0  0  0  0  0  0  0  0  0  0  0  0
    5.7015    0.6980   22.1071 H   0  0  0  0  0  0  0  0  0  0  0  0
    8.9202   -0.1986   25.4206 H   0  0  0  0  0  0  0  0  0  0  0  0
   10.0631   -2.2319   21.8252 H   0  0  0  0  0  0  0  0  0  0  0  0
    4.4064    1.9744   17.4453 H   0  0  0  0  0  0  0  0  0  0  0  0
    8.6898   -2.3534   26.5810 H   0  0  0  0  0  0  0  0  0  0  0  0
    9.9254   -4.3899   22.9914 H   0  0  0  0  0  0  0  0  0  0  0  0
   12.5049    0.4716   22.6364 H   0  0  0  0  0  0  0  0  0  0  0  0
   14.4362    0.2239   24.4037 H   0  0  0  0  0  0  0  0  0  0  0  0
   10.5839    1.5757   26.3924 H   0  0  0  0  0  0  0  0  0  0  0  0
    7.3765   -7.4970   25.6176 H   0  0  0  0  0  0  0  0  0  0  0  0
    8.6071   -8.5677   26.3138 H   0  0  0  0  0  0  0  0  0  0  0  0
    9.0599   -7.3717   25.0851 H   0  0  0  0  0  0  0  0  0  0  0  0
    9.1131    1.6463   24.2828 H   0  0  0  0  0  0  0  0  0  0  0  0
   10.0354    2.1807   22.8984 H   0  0  0  0  0  0  0  0  0  0  0  0
    9.7367   -6.6182   27.3685 H   0  0  0  0  0  0  0  0  0  0  0  0
    8.0564   -6.7633   27.9189 H   0  0  0  0  0  0  0  0  0  0  0  0
   10.7927   -0.1029   22.4279 H   0  0  0  0  0  0  0  0  0  0  0  0
    6.8044    0.4388   16.8592 H   0  0  0  0  0  0  0  0  0  0  0  0
    9.9034   -5.4689   25.2194 H   0  0  0  0  0  0  0  0  0  0  0  0
    8.2434   -1.5614   21.0991 H   0  0  0  0  0  0  0  0  0  0  0  0
  1  2  1  0  0  0  0
  1  3  2  0  0  0  0
  2  6  2  0  0  0  0
  3 12  1  0  0  0  0
  4  7  2  0  0  0  0
  4 13  1  0  0  0  0
  5  8  1  0  0  0  0
  5 13  2  0  0  0  0
  6 15  1  0  0  0  0
  7 16  1  0  0  0  0
  8 16  2  0  0  0  0
  9 10  2  0  0  0  0
  9 14  1  0  0  0  0
 10 30  1  0  0  0  0
 11 14  2  0  0  0  0
 11 30  1  0  0  0  0
 12 15  2  0  0  0  0
 12 17  1  0  0  0  0
 13 23  1  0  0  0  0
 14 21  1  0  0  0  0
 15 25  1  0  0  0  0
 16 26  1  0  0  0  0
 17 24  2  0  0  0  0
 17 27  1  0  0  0  0
 18 22  1  0  0  0  0
 18 26  1  0  0  0  0
 18 28  2  0  0  0  0
 19 23  1  0  0  0  0
 19 27  1  0  0  0  0
 19 29  2  0  0  0  0
 20 22  1  0  0  0  0
 21 23  1  6  0  0  0
 24 25  1  0  0  0  0
  1 31  1  0  0  0  0
  2 32  1  0  0  0  0
  3 33  1  0  0  0  0
  4 34  1  0  0  0  0
  5 35  1  0  0  0  0
  6 36  1  0  0  0  0
  7 37  1  0  0  0  0
  8 38  1  0  0  0  0
  9 39  1  0  0  0  0
 10 40  1  0  0  0  0
 11 41  1  0  0  0  0
 20 42  1  0  0  0  0
 20 43  1  0  0  0  0
 20 44  1  0  0  0  0
 21 45  1  0  0  0  0
 21 46  1  0  0  0  0
 22 47  1  0  0  0  0
 22 48  1  0  0  0  0
 23 49  1  0  0  0  0
 25 50  1  0  0  0  0
 26 51  1  0  0  0  0
 27 52  1  0  0  0  0
M  END
> <clash_score>
1.2643158213246315

> <docking_score>
-5.809039115905762

> <overlap_score>
0.9106771349906921

$$$$
BENZO_228_1
  -OEChem-08222022183D

 52 55  0     1  0  0  0  0  0999 V2000
    4.2750    1.7050   20.8490 C   0  0  0  0  0  0  0  0  0  0  0  0
    3.9160    2.0630   19.5520 C   0  0  0  0  0  0  0  0  0  0  0  0
    5.4210    0.9600   21.0930 C   0  0  0  0  0  0  0  0  0  0  0  0
    9.0720   -1.1280   24.8640 C   0  0  0  0  0  0  0  0  0  0  0  0
    9.7200   -2.2600   22.8630 C   0  0  0  0  0  0  0  0  0  0  0  0
    4.6890    1.6810   18.4640 C   0  0  0  0  0  0  0  0  0  0  0  0
    8.9960   -2.3380   25.5320 C   0  0  0  0  0  0  0  0  0  0  0  0
    9.6730   -3.4710   23.5300 C   0  0  0  0  0  0  0  0  0  0  0  0
   12.3398    0.5029   23.4216 C   0  0  0  0  0  0  0  0  0  0  0  0
   13.6291    0.9843   23.3622 C   0  0  0  0  0  0  0  0  0  0  0  0
   11.9713    2.7968   23.4917 C   0  0  0  0  0  0  0  0  0  0  0  0
    6.1790    0.5730   19.9990 C   0  0  0  0  0  0  0  0  0  0  0  0
    9.3350   -1.0880   23.5010 C   0  0  0  0  0  0  0  0  0  0  0  0
   11.3794    1.5528   23.4964 C   0  0  0  0  0  0  0  0  0  0  0  0
    5.8300    0.9190   18.6970 C   0  0  0  0  0  0  0  0  0  0  0  0
    9.3070   -3.5340   24.8780 C   0  0  0  0  0  0  0  0  0  0  0  0
    7.3170   -0.1610   19.8550 C   0  0  0  0  0  0  0  0  0  0  0  0
    8.4227   -5.1089   26.6141 C   0  0  0  0  0  0  0  0  0  0  0  0
    9.0420    0.3700   21.5280 C   0  0  0  0  0  0  0  0  0  0  0  0
    8.4173   -7.5520   25.9532 C   0  0  0  0  0  0  0  0  0  0  0  0
    9.8870    1.3260   23.5730 C   0  0  0  0  0  0  0  0  0  0  0  0
    8.6900   -6.5411   27.0525 C   0  0  0  0  0  0  0  0  0  0  0  0
    9.4560    0.1560   22.8130 C   0  0  1  0  0  0  0  0  0  0  0  0
    7.6390   -0.2680   18.5410 N   0  0  0  0  0  0  0  0  0  0  0  0
    6.7580    0.3810   17.8350 N   0  0  0  0  0  0  0  0  0  0  0  0
    9.2546   -4.7423   25.5437 N   0  0  0  0  0  0  0  0  0  0  0  0
    8.1890   -0.7180   20.8700 N   0  0  0  0  0  0  0  0  0  0  0  0
    7.5768   -4.4085   27.1602 O   0  0  0  0  0  0  0  0  0  0  0  0
    9.2690    1.4140   20.9380 O   0  0  0  0  0  0  0  0  0  0  0  0
   13.6781    2.6957   23.3969 S   0  0  0  0  0  0  0  0  0  0  0  0
    3.6468    2.0173   21.6825 H   0  0  0  0  0  0  0  0  0  0  0  0
    3.0153    2.6527   19.3907 H   0  0  0  0  0  0  0  0  0  0  0  0
    5.7015    0.6980   22.1071 H   0  0  0  0  0  0  0  0  0  0  0  0
    8.9202   -0.1986   25.4206 H   0  0  0  0  0  0  0  0  0  0  0  0
   10.0631   -2.2319   21.8252 H   0  0  0  0  0  0  0  0  0  0  0  0
    4.4064    1.9744   17.4453 H   0  0  0  0  0  0  0  0  0  0  0  0
    8.6898   -2.3534   26.5810 H   0  0  0  0  0  0  0  0  0  0  0  0
    9.9254   -4.3899   22.9914 H   0  0  0  0  0  0  0  0  0  0  0  0
   12.1014   -0.5532   23.4119 H   0  0  0  0  0  0  0  0  0  0  0  0
   14.5445    0.4131   23.3009 H   0  0  0  0  0  0  0  0  0  0  0  0
   11.4871    3.7623   23.5403 H   0  0  0  0  0  0  0  0  0  0  0  0
    7.3765   -7.4970   25.6176 H   0  0  0  0  0  0  0  0  0  0  0  0
    8.6071   -8.5677   26.3138 H   0  0  0  0  0  0  0  0  0  0  0  0
    9.0599   -7.3717   25.0851 H   0  0  0  0  0  0  0  0  0  0  0  0
    9.5854    1.2495   24.6258 H   0  0  0  0  0  0  0  0  0  0  0  0
    9.3886    2.2282   23.1920 H   0  0  0  0  0  0  0  0  0  0  0  0
    9.7367   -6.6182   27.3685 H   0  0  0  0  0  0  0  0  0  0  0  0
    8.0564   -6.7633   27.9189 H   0  0  0  0  0  0  0  0  0  0  0  0
    8.0686    0.4964   23.2745 H   0  0  0  0  0  0  0  0  0  0  0  0
    6.8044    0.4388   16.8592 H   0  0  0  0  0  0  0  0  0  0  0  0
    9.9034   -5.4689   25.2194 H   0  0  0  0  0  0  0  0  0  0  0  0
    8.2434   -1.5614   21.0991 H   0  0  0  0  0  0  0  0  0  0  0  0
  1  2  1  0  0  0  0
  1  3  2  0  0  0  0
  2  6  2  0  0  0  0
  3 12  1  0  0  0  0
  4  7  2  0  0  0  0
  4 13  1  0  0  0  0
  5  8  1  0  0  0  0
  5 13  2  0  0  0  0
  6 15  1  0  0  0  0
  7 16  1  0  0  0  0
  8 16  2  0  0  0  0
  9 10  2  0  0  0  0
  9 14  1  0  0  0  0
 10 30  1  0  0  0  0
 11 14  2  0  0  0  0
 11 30  1  0  0  0  0
 12 15  2  0  0  0  0
 12 17  1  0  0  0  0
 13 23  1  0  0  0  0
 14 21  1  0  0  0  0
 15 25  1  0  0  0  0
 16 26  1  0  0  0  0
 17 24  2  0  0  0  0
 17 27  1  0  0  0  0
 18 22  1  0  0  0  0
 18 26  1  0  0  0  0
 18 28  2  0  0  0  0
 19 23  1  0  0  0  0
 19 27  1  0  0  0  0
 19 29  2  0  0  0  0
 20 22  1  0  0  0  0
 21 23  1  1  0  0  0
 24 25  1  0  0  0  0
  1 31  1  0  0  0  0
  2 32  1  0  0  0  0
  3 33  1  0  0  0  0
  4 34  1  0  0  0  0
  5 35  1  0  0  0  0
  6 36  1  0  0  0  0
  7 37  1  0  0  0  0
  8 38  1  0  0  0  0
  9 39  1  0  0  0  0
 10 40  1  0  0  0  0
 11 41  1  0  0  0  0
 20 42  1  0  0  0  0
 20 43  1  0  0  0  0
 20 44  1  0  0  0  0
 21 45  1  0  0  0  0
 21 46  1  0  0  0  0
 22 47  1  0  0  0  0
 22 48  1  0  0  0  0
 23 49  1  0  0  0  0
 25 50  1  0  0  0  0
 26 51  1  0  0  0  0
 27 52  1  0  0  0  0
M  END
> <clash_score>
0.6426261285623064

> <docking_score>
-7.923172950744629

> <overlap_score>
0.9874261021614075

$$$$
BENZO_230_2
  -OEChem-08222022183D

 55 58  0     1  0  0  0  0  0999 V2000
    4.2750    1.7050   20.8490 C   0  0  0  0  0  0  0  0  0  0  0  0
    3.9160    2.0630   19.5520 C   0  0  0  0  0  0  0  0  0  0  0  0
    6.3759    2.2080   24.7298 C   0  0  0  0  0  0  0  0  0  0  0  0
    5.4210    0.9600   21.0930 C   0  0  0  0  0  0  0  0  0  0  0  0
    7.4372    1.5528   24.1054 C   0  0  0  0  0  0  0  0  0  0  0  0
    9.0720   -1.1280   24.8640 C   0  0  0  0  0  0  0  0  0  0  0  0
    9.7200   -2.2600   22.8630 C   0  0  0  0  0  0  0  0  0  0  0  0
    4.6890    1.6810   18.4640 C   0  0  0  0  0  0  0  0  0  0  0  0
    8.9960   -2.3380   25.5320 C   0  0  0  0  0  0  0  0  0  0  0  0
    9.6730   -3.4710   23.5300 C   0  0  0  0  0  0  0  0  0  0  0  0
    6.6147    3.3479   25.4976 C   0  0  0  0  0  0  0  0  0  0  0  0
    8.9762    3.1771   25.0167 C   0  0  0  0  0  0  0  0  0  0  0  0
    6.1790    0.5730   19.9990 C   0  0  0  0  0  0  0  0  0  0  0  0
    9.3350   -1.0880   23.5010 C   0  0  0  0  0  0  0  0  0  0  0  0
    8.7373    2.0373   24.2489 C   0  0  0  0  0  0  0  0  0  0  0  0
    5.8300    0.9190   18.6970 C   0  0  0  0  0  0  0  0  0  0  0  0
    9.3070   -3.5340   24.8780 C   0  0  0  0  0  0  0  0  0  0  0  0
    7.9149    3.8324   25.6411 C   0  0  0  0  0  0  0  0  0  0  0  0
    7.3170   -0.1610   19.8550 C   0  0  0  0  0  0  0  0  0  0  0  0
    8.4227   -5.1089   26.6141 C   0  0  0  0  0  0  0  0  0  0  0  0
    9.0420    0.3700   21.5280 C   0  0  0  0  0  0  0  0  0  0  0  0
    8.4173   -7.5520   25.9532 C   0  0  0  0  0  0  0  0  0  0  0  0
    9.8870    1.3260   23.5730 C   0  0  0  0  0  0  0  0  0  0  0  0
    8.6900   -6.5411   27.0525 C   0  0  0  0  0  0  0  0  0  0  0  0
    9.4560    0.1560   22.8130 C   0  0  2  0  0  0  0  0  0  0  0  0
    7.6390   -0.2680   18.5410 N   0  0  0  0  0  0  0  0  0  0  0  0
    6.7580    0.3810   17.8350 N   0  0  0  0  0  0  0  0  0  0  0  0
    9.2546   -4.7423   25.5437 N   0  0  0  0  0  0  0  0  0  0  0  0
    8.1890   -0.7180   20.8700 N   0  0  0  0  0  0  0  0  0  0  0  0
    7.5768   -4.4085   27.1602 O   0  0  0  0  0  0  0  0  0  0  0  0
    9.2690    1.4140   20.9380 O   0  0  0  0  0  0  0  0  0  0  0  0
    8.2090    5.2380   26.5894 Cl  0  0  0  0  0  0  0  0  0  0  0  0
    3.6468    2.0173   21.6825 H   0  0  0  0  0  0  0  0  0  0  0  0
    3.0153    2.6527   19.3907 H   0  0  0  0  0  0  0  0  0  0  0  0
    5.3637    1.8304   24.6180 H   0  0  0  0  0  0  0  0  0  0  0  0
    5.7015    0.6980   22.1071 H   0  0  0  0  0  0  0  0  0  0  0  0
    7.2419    0.6653   23.5092 H   0  0  0  0  0  0  0  0  0  0  0  0
    8.9202   -0.1986   25.4206 H   0  0  0  0  0  0  0  0  0  0  0  0
   10.0631   -2.2319   21.8252 H   0  0  0  0  0  0  0  0  0  0  0  0
    4.4064    1.9744   17.4453 H   0  0  0  0  0  0  0  0  0  0  0  0
    8.6898   -2.3534   26.5810 H   0  0  0  0  0  0  0  0  0  0  0  0
    9.9254   -4.3899   22.9914 H   0  0  0  0  0  0  0  0  0  0  0  0
    5.7779    3.8482   25.9788 H   0  0  0  0  0  0  0  0  0  0  0  0
    9.9916    3.5512   25.1250 H   0  0  0  0  0  0  0  0  0  0  0  0
    7.3765   -7.4970   25.6176 H   0  0  0  0  0  0  0  0  0  0  0  0
    8.6071   -8.5677   26.3138 H   0  0  0  0  0  0  0  0  0  0  0  0
    9.0599   -7.3717   25.0851 H   0  0  0  0  0  0  0  0  0  0  0  0
   10.4287    2.0368   22.9354 H   0  0  0  0  0  0  0  0  0  0  0  0
   10.6035    1.0279   24.3510 H   0  0  0  0  0  0  0  0  0  0  0  0
    9.7367   -6.6182   27.3685 H   0  0  0  0  0  0  0  0  0  0  0  0
    8.0564   -6.7633   27.9189 H   0  0  0  0  0  0  0  0  0  0  0  0
   10.7927   -0.1029   22.4279 H   0  0  0  0  0  0  0  0  0  0  0  0
    6.8044    0.4388   16.8592 H   0  0  0  0  0  0  0  0  0  0  0  0
    9.9034   -5.4689   25.2194 H   0  0  0  0  0  0  0  0  0  0  0  0
    8.2434   -1.5614   21.0991 H   0  0  0  0  0  0  0  0  0  0  0  0
  1  2  1  0  0  0  0
  1  4  2  0  0  0  0
  2  8  2  0  0  0  0
  3  5  2  0  0  0  0
  3 11  1  0  0  0  0
  4 13  1  0  0  0  0
  5 15  1  0  0  0  0
  6  9  2  0  0  0  0
  6 14  1  0  0  0  0
  7 10  1  0  0  0  0
  7 14  2  0  0  0  0
  8 16  1  0  0  0  0
  9 17  1  0  0  0  0
 10 17  2  0  0  0  0
 11 18  2  0  0  0  0
 12 15  2  0  0  0  0
 12 18  1  0  0  0  0
 13 16  2  0  0  0  0
 13 19  1  0  0  0  0
 14 25  1  0  0  0  0
 15 23  1  0  0  0  0
 16 27  1  0  0  0  0
 17 28  1  0  0  0  0
 18 32  1  0  0  0  0
 19 26  2  0  0  0  0
 19 29  1  0  0  0  0
 20 24  1  0  0  0  0
 20 28  1  0  0  0  0
 20 30  2  0  0  0  0
 21 25  1  0  0  0  0
 21 29  1  0  0  0  0
 21 31  2  0  0  0  0
 22 24  1  0  0  0  0
 23 25  1  6  0  0  0
 26 27  1  0  0  0  0
  1 33  1  0  0  0  0
  2 34  1  0  0  0  0
  3 35  1  0  0  0  0
  4 36  1  0  0  0  0
  5 37  1  0  0  0  0
  6 38  1  0  0  0  0
  7 39  1  0  0  0  0
  8 40  1  0  0  0  0
  9 41  1  0  0  0  0
 10 42  1  0  0  0  0
 11 43  1  0  0  0  0
 12 44  1  0  0  0  0
 22 45  1  0  0  0  0
 22 46  1  0  0  0  0
 22 47  1  0  0  0  0
 23 48  1  0  0  0  0
 23 49  1  0  0  0  0
 24 50  1  0  0  0  0
 24 51  1  0  0  0  0
 25 52  1  0  0  0  0
 27 53  1  0  0  0  0
 28 54  1  0  0  0  0
 29 55  1  0  0  0  0
M  END
> <clash_score>
0.6426261285623064

> <docking_score>
-6.842247009277344

> <overlap_score>
0.8434877395629883

$$$$
BENZO_230_1
  -OEChem-08222022183D

 55 58  0     1  0  0  0  0  0999 V2000
    4.2750    1.7050   20.8490 C   0  0  0  0  0  0  0  0  0  0  0  0
    3.9160    2.0630   19.5520 C   0  0  0  0  0  0  0  0  0  0  0  0
   13.6189    0.6768   23.2648 C   0  0  0  0  0  0  0  0  0  0  0  0
    5.4210    0.9600   21.0930 C   0  0  0  0  0  0  0  0  0  0  0  0
   12.2417    0.4681   23.3366 C   0  0  0  0  0  0  0  0  0  0  0  0
    9.0720   -1.1280   24.8640 C   0  0  0  0  0  0  0  0  0  0  0  0
    9.7200   -2.2600   22.8630 C   0  0  0  0  0  0  0  0  0  0  0  0
    4.6890    1.6810   18.4640 C   0  0  0  0  0  0  0  0  0  0  0  0
    8.9960   -2.3380   25.5320 C   0  0  0  0  0  0  0  0  0  0  0  0
    9.6730   -3.4710   23.5300 C   0  0  0  0  0  0  0  0  0  0  0  0
   14.1339    1.9702   23.3527 C   0  0  0  0  0  0  0  0  0  0  0  0
   11.8943    2.8462   23.5844 C   0  0  0  0  0  0  0  0  0  0  0  0
    6.1790    0.5730   19.9990 C   0  0  0  0  0  0  0  0  0  0  0  0
    9.3350   -1.0880   23.5010 C   0  0  0  0  0  0  0  0  0  0  0  0
   11.3794    1.5528   23.4964 C   0  0  0  0  0  0  0  0  0  0  0  0
    5.8300    0.9190   18.6970 C   0  0  0  0  0  0  0  0  0  0  0  0
    9.3070   -3.5340   24.8780 C   0  0  0  0  0  0  0  0  0  0  0  0
   13.2716    3.0548   23.5125 C   0  0  0  0  0  0  0  0  0  0  0  0
    7.3170   -0.1610   19.8550 C   0  0  0  0  0  0  0  0  0  0  0  0
    8.4227   -5.1089   26.6141 C   0  0  0  0  0  0  0  0  0  0  0  0
    9.0420    0.3700   21.5280 C   0  0  0  0  0  0  0  0  0  0  0  0
    8.4173   -7.5520   25.9532 C   0  0  0  0  0  0  0  0  0  0  0  0
    9.8870    1.3260   23.5730 C   0  0  0  0  0  0  0  0  0  0  0  0
    8.6900   -6.5411   27.0525 C   0  0  0  0  0  0  0  0  0  0  0  0
    9.4560    0.1560   22.8130 C   0  0  1  0  0  0  0  0  0  0  0  0
    7.6390   -0.2680   18.5410 N   0  0  0  0  0  0  0  0  0  0  0  0
    6.7580    0.3810   17.8350 N   0  0  0  0  0  0  0  0  0  0  0  0
    9.2546   -4.7423   25.5437 N   0  0  0  0  0  0  0  0  0  0  0  0
    8.1890   -0.7180   20.8700 N   0  0  0  0  0  0  0  0  0  0  0  0
    7.5768   -4.4085   27.1602 O   0  0  0  0  0  0  0  0  0  0  0  0
    9.2690    1.4140   20.9380 O   0  0  0  0  0  0  0  0  0  0  0  0
   13.9075    4.6504   23.6198 Cl  0  0  0  0  0  0  0  0  0  0  0  0
    3.6468    2.0173   21.6825 H   0  0  0  0  0  0  0  0  0  0  0  0
    3.0153    2.6527   19.3907 H   0  0  0  0  0  0  0  0  0  0  0  0
   14.2901   -0.1681   23.1402 H   0  0  0  0  0  0  0  0  0  0  0  0
    5.7015    0.6980   22.1071 H   0  0  0  0  0  0  0  0  0  0  0  0
   11.8492   -0.5431   23.2671 H   0  0  0  0  0  0  0  0  0  0  0  0
    8.9202   -0.1986   25.4206 H   0  0  0  0  0  0  0  0  0  0  0  0
   10.0631   -2.2319   21.8252 H   0  0  0  0  0  0  0  0  0  0  0  0
    4.4064    1.9744   17.4453 H   0  0  0  0  0  0  0  0  0  0  0  0
    8.6898   -2.3534   26.5810 H   0  0  0  0  0  0  0  0  0  0  0  0
    9.9254   -4.3899   22.9914 H   0  0  0  0  0  0  0  0  0  0  0  0
   15.2095    2.1179   23.2949 H   0  0  0  0  0  0  0  0  0  0  0  0
   11.2178    3.6885   23.7094 H   0  0  0  0  0  0  0  0  0  0  0  0
    7.3765   -7.4970   25.6176 H   0  0  0  0  0  0  0  0  0  0  0  0
    8.6071   -8.5677   26.3138 H   0  0  0  0  0  0  0  0  0  0  0  0
    9.0599   -7.3717   25.0851 H   0  0  0  0  0  0  0  0  0  0  0  0
    9.5854    1.2495   24.6258 H   0  0  0  0  0  0  0  0  0  0  0  0
    9.3886    2.2282   23.1920 H   0  0  0  0  0  0  0  0  0  0  0  0
    9.7367   -6.6182   27.3685 H   0  0  0  0  0  0  0  0  0  0  0  0
    8.0564   -6.7633   27.9189 H   0  0  0  0  0  0  0  0  0  0  0  0
    8.0686    0.4964   23.2745 H   0  0  0  0  0  0  0  0  0  0  0  0
    6.8044    0.4388   16.8592 H   0  0  0  0  0  0  0  0  0  0  0  0
    9.9034   -5.4689   25.2194 H   0  0  0  0  0  0  0  0  0  0  0  0
    8.2434   -1.5614   21.0991 H   0  0  0  0  0  0  0  0  0  0  0  0
  1  2  1  0  0  0  0
  1  4  2  0  0  0  0
  2  8  2  0  0  0  0
  3  5  2  0  0  0  0
  3 11  1  0  0  0  0
  4 13  1  0  0  0  0
  5 15  1  0  0  0  0
  6  9  2  0  0  0  0
  6 14  1  0  0  0  0
  7 10  1  0  0  0  0
  7 14  2  0  0  0  0
  8 16  1  0  0  0  0
  9 17  1  0  0  0  0
 10 17  2  0  0  0  0
 11 18  2  0  0  0  0
 12 15  2  0  0  0  0
 12 18  1  0  0  0  0
 13 16  2  0  0  0  0
 13 19  1  0  0  0  0
 14 25  1  0  0  0  0
 15 23  1  0  0  0  0
 16 27  1  0  0  0  0
 17 28  1  0  0  0  0
 18 32  1  0  0  0  0
 19 26  2  0  0  0  0
 19 29  1  0  0  0  0
 20 24  1  0  0  0  0
 20 28  1  0  0  0  0
 20 30  2  0  0  0  0
 21 25  1  0  0  0  0
 21 29  1  0  0  0  0
 21 31  2  0  0  0  0
 22 24  1  0  0  0  0
 23 25  1  1  0  0  0
 26 27  1  0  0  0  0
  1 33  1  0  0  0  0
  2 34  1  0  0  0  0
  3 35  1  0  0  0  0
  4 36  1  0  0  0  0
  5 37  1  0  0  0  0
  6 38  1  0  0  0  0
  7 39  1  0  0  0  0
  8 40  1  0  0  0  0
  9 41  1  0  0  0  0
 10 42  1  0  0  0  0
 11 43  1  0  0  0  0
 12 44  1  0  0  0  0
 22 45  1  0  0  0  0
 22 46  1  0  0  0  0
 22 47  1  0  0  0  0
 23 48  1  0  0  0  0
 23 49  1  0  0  0  0
 24 50  1  0  0  0  0
 24 51  1  0  0  0  0
 25 52  1  0  0  0  0
 27 53  1  0  0  0  0
 28 54  1  0  0  0  0
 29 55  1  0  0  0  0
M  END
> <clash_score>
0.6426261285623064

> <docking_score>
-7.168362617492676

> <overlap_score>
1.004687786102295

$$$$
BENZO_233_1
  -OEChem-08222022183D

 60 64  0     1  0  0  0  0  0999 V2000
   12.9362    3.6202   21.5882 C   0  0  0  0  0  0  0  0  0  0  0  0
    4.2750    1.7050   20.8490 C   0  0  0  0  0  0  0  0  0  0  0  0
   13.2938    2.5837   22.4503 C   0  0  0  0  0  0  0  0  0  0  0  0
   11.5898    3.9128   21.3700 C   0  0  0  0  0  0  0  0  0  0  0  0
    3.9160    2.0630   19.5520 C   0  0  0  0  0  0  0  0  0  0  0  0
    5.4210    0.9600   21.0930 C   0  0  0  0  0  0  0  0  0  0  0  0
   12.3051    1.8396   23.0941 C   0  0  0  0  0  0  0  0  0  0  0  0
   10.6012    3.1687   22.0138 C   0  0  0  0  0  0  0  0  0  0  0  0
    9.0720   -1.1280   24.8640 C   0  0  0  0  0  0  0  0  0  0  0  0
    9.7200   -2.2600   22.8630 C   0  0  0  0  0  0  0  0  0  0  0  0
    4.6890    1.6810   18.4640 C   0  0  0  0  0  0  0  0  0  0  0  0
    8.9960   -2.3380   25.5320 C   0  0  0  0  0  0  0  0  0  0  0  0
    9.6730   -3.4710   23.5300 C   0  0  0  0  0  0  0  0  0  0  0  0
    6.1790    0.5730   19.9990 C   0  0  0  0  0  0  0  0  0  0  0  0
   10.9588    2.1321   22.8759 C   0  0  0  0  0  0  0  0  0  0  0  0
    9.3350   -1.0880   23.5010 C   0  0  0  0  0  0  0  0  0  0  0  0
    5.8300    0.9190   18.6970 C   0  0  0  0  0  0  0  0  0  0  0  0
    9.3070   -3.5340   24.8780 C   0  0  0  0  0  0  0  0  0  0  0  0
    7.3170   -0.1610   19.8550 C   0  0  0  0  0  0  0  0  0  0  0  0
    9.0420    0.3700   21.5280 C   0  0  0  0  0  0  0  0  0  0  0  0
    7.3637   -6.1365   27.1885 C   0  0  0  0  0  0  0  0  0  0  0  0
    8.1962   -4.9739   27.7340 C   0  0  0  0  0  0  0  0  0  0  0  0
    7.1943   -6.0395   25.6706 C   0  0  0  0  0  0  0  0  0  0  0  0
    9.5197   -4.8493   26.9795 C   0  0  0  0  0  0  0  0  0  0  0  0
    8.5443   -5.8838   24.9636 C   0  0  0  0  0  0  0  0  0  0  0  0
    9.8870    1.3260   23.5730 C   0  0  0  0  0  0  0  0  0  0  0  0
    9.4560    0.1560   22.8130 C   0  0  1  0  0  0  0  0  0  0  0  0
    7.6390   -0.2680   18.5410 N   0  0  0  0  0  0  0  0  0  0  0  0
    6.7580    0.3810   17.8350 N   0  0  0  0  0  0  0  0  0  0  0  0
    9.2563   -4.7385   25.5420 N   0  0  0  0  0  0  0  0  0  0  0  0
    8.1890   -0.7180   20.8700 N   0  0  0  0  0  0  0  0  0  0  0  0
    9.2690    1.4140   20.9380 O   0  0  0  0  0  0  0  0  0  0  0  0
   13.7061    4.2004   21.0881 H   0  0  0  0  0  0  0  0  0  0  0  0
    3.6468    2.0173   21.6825 H   0  0  0  0  0  0  0  0  0  0  0  0
   14.3420    2.3565   22.6212 H   0  0  0  0  0  0  0  0  0  0  0  0
   11.3111    4.7205   20.6997 H   0  0  0  0  0  0  0  0  0  0  0  0
    3.0153    2.6527   19.3907 H   0  0  0  0  0  0  0  0  0  0  0  0
    5.7015    0.6980   22.1071 H   0  0  0  0  0  0  0  0  0  0  0  0
   12.5931    1.0336   23.7640 H   0  0  0  0  0  0  0  0  0  0  0  0
    9.5548    3.4036   21.8376 H   0  0  0  0  0  0  0  0  0  0  0  0
    8.9214   -0.1986   25.4206 H   0  0  0  0  0  0  0  0  0  0  0  0
   10.0622   -2.2326   21.8251 H   0  0  0  0  0  0  0  0  0  0  0  0
    4.4064    1.9744   17.4453 H   0  0  0  0  0  0  0  0  0  0  0  0
    8.6882   -2.3542   26.5803 H   0  0  0  0  0  0  0  0  0  0  0  0
    9.9258   -4.3896   22.9914 H   0  0  0  0  0  0  0  0  0  0  0  0
    7.8484   -7.0905   27.4464 H   0  0  0  0  0  0  0  0  0  0  0  0
    6.3761   -6.1442   27.6721 H   0  0  0  0  0  0  0  0  0  0  0  0
    7.6308   -4.0428   27.6404 H   0  0  0  0  0  0  0  0  0  0  0  0
    8.3917   -5.1316   28.7967 H   0  0  0  0  0  0  0  0  0  0  0  0
    6.6889   -6.9376   25.3006 H   0  0  0  0  0  0  0  0  0  0  0  0
    6.5516   -5.1860   25.4256 H   0  0  0  0  0  0  0  0  0  0  0  0
   10.0494   -3.9643   27.3413 H   0  0  0  0  0  0  0  0  0  0  0  0
   10.1432   -5.7258   27.1775 H   0  0  0  0  0  0  0  0  0  0  0  0
    9.1338   -6.7931   25.0863 H   0  0  0  0  0  0  0  0  0  0  0  0
    8.3657   -5.7262   23.8995 H   0  0  0  0  0  0  0  0  0  0  0  0
   10.2417    1.0375   24.5711 H   0  0  0  0  0  0  0  0  0  0  0  0
    9.0279    1.9881   23.7492 H   0  0  0  0  0  0  0  0  0  0  0  0
   10.7949   -0.0994   22.4253 H   0  0  0  0  0  0  0  0  0  0  0  0
    6.8044    0.4388   16.8592 H   0  0  0  0  0  0  0  0  0  0  0  0
    8.2585   -1.5522   21.1129 H   0  0  0  0  0  0  0  0  0  0  0  0
  1  3  1  0  0  0  0
  1  4  2  0  0  0  0
  2  5  1  0  0  0  0
  2  6  2  0  0  0  0
  3  7  2  0  0  0  0
  4  8  1  0  0  0  0
  5 11  2  0  0  0  0
  6 14  1  0  0  0  0
  7 15  1  0  0  0  0
  8 15  2  0  0  0  0
  9 12  2  0  0  0  0
  9 16  1  0  0  0  0
 10 13  1  0  0  0  0
 10 16  2  0  0  0  0
 11 17  1  0  0  0  0
 12 18  1  0  0  0  0
 13 18  2  0  0  0  0
 14 17  2  0  0  0  0
 14 19  1  0  0  0  0
 15 26  1  0  0  0  0
 16 27  1  0  0  0  0
 17 29  1  0  0  0  0
 18 30  1  0  0  0  0
 19 28  2  0  0  0  0
 19 31  1  0  0  0  0
 20 27  1  1  0  0  0
 20 31  1  0  0  0  0
 20 32  2  0  0  0  0
 21 22  1  0  0  0  0
 21 23  1  0  0  0  0
 22 24  1  0  0  0  0
 23 25  1  0  0  0  0
 24 30  1  0  0  0  0
 25 30  1  0  0  0  0
 26 27  1  0  0  0  0
 28 29  1  0  0  0  0
  1 33  1  0  0  0  0
  2 34  1  0  0  0  0
  3 35  1  0  0  0  0
  4 36  1  0  0  0  0
  5 37  1  0  0  0  0
  6 38  1  0  0  0  0
  7 39  1  0  0  0  0
  8 40  1  0  0  0  0
  9 41  1  0  0  0  0
 10 42  1  0  0  0  0
 11 43  1  0  0  0  0
 12 44  1  0  0  0  0
 13 45  1  0  0  0  0
 21 46  1  0  0  0  0
 21 47  1  0  0  0  0
 22 48  1  0  0  0  0
 22 49  1  0  0  0  0
 23 50  1  0  0  0  0
 23 51  1  0  0  0  0
 24 52  1  0  0  0  0
 24 53  1  0  0  0  0
 25 54  1  0  0  0  0
 25 55  1  0  0  0  0
 26 56  1  0  0  0  0
 26 57  1  0  0  0  0
 27 58  1  0  0  0  0
 29 59  1  0  0  0  0
 31 60  1  0  0  0  0
M  END
> <clash_score>
0.6168219295201246

> <docking_score>
-8.176132202148438

> <overlap_score>
0.9706592559814453

$$$$
BENZO_232_1
  -OEChem-08222022183D

 57 61  0     1  0  0  0  0  0999 V2000
    4.2750    1.7050   20.8490 C   0  0  0  0  0  0  0  0  0  0  0  0
    3.9160    2.0630   19.5520 C   0  0  0  0  0  0  0  0  0  0  0  0
    5.4210    0.9600   21.0930 C   0  0  0  0  0  0  0  0  0  0  0  0
    9.0720   -1.1280   24.8640 C   0  0  0  0  0  0  0  0  0  0  0  0
    9.7200   -2.2600   22.8630 C   0  0  0  0  0  0  0  0  0  0  0  0
    4.6890    1.6810   18.4640 C   0  0  0  0  0  0  0  0  0  0  0  0
    8.9960   -2.3380   25.5320 C   0  0  0  0  0  0  0  0  0  0  0  0
    9.6730   -3.4710   23.5300 C   0  0  0  0  0  0  0  0  0  0  0  0
   12.3968    0.6932   23.7036 C   0  0  0  0  0  0  0  0  0  0  0  0
   13.4249    0.5733   24.6125 C   0  0  0  0  0  0  0  0  0  0  0  0
   11.3289    1.2940   25.6787 C   0  0  0  0  0  0  0  0  0  0  0  0
    6.1790    0.5730   19.9990 C   0  0  0  0  0  0  0  0  0  0  0  0
    9.3350   -1.0880   23.5010 C   0  0  0  0  0  0  0  0  0  0  0  0
   11.1825    1.1108   24.3212 C   0  0  0  0  0  0  0  0  0  0  0  0
    5.8300    0.9190   18.6970 C   0  0  0  0  0  0  0  0  0  0  0  0
    9.3070   -3.5340   24.8780 C   0  0  0  0  0  0  0  0  0  0  0  0
    7.3170   -0.1610   19.8550 C   0  0  0  0  0  0  0  0  0  0  0  0
    9.0420    0.3700   21.5280 C   0  0  0  0  0  0  0  0  0  0  0  0
    7.3637   -6.1365   27.1885 C   0  0  0  0  0  0  0  0  0  0  0  0
    8.1962   -4.9739   27.7340 C   0  0  0  0  0  0  0  0  0  0  0  0
    7.1943   -6.0395   25.6706 C   0  0  0  0  0  0  0  0  0  0  0  0
    9.5197   -4.8493   26.9795 C   0  0  0  0  0  0  0  0  0  0  0  0
    8.5443   -5.8838   24.9636 C   0  0  0  0  0  0  0  0  0  0  0  0
    9.8870    1.3260   23.5730 C   0  0  0  0  0  0  0  0  0  0  0  0
    9.4560    0.1560   22.8130 C   0  0  1  0  0  0  0  0  0  0  0  0
    7.6390   -0.2680   18.5410 N   0  0  0  0  0  0  0  0  0  0  0  0
    6.7580    0.3810   17.8350 N   0  0  0  0  0  0  0  0  0  0  0  0
    9.2563   -4.7385   25.5420 N   0  0  0  0  0  0  0  0  0  0  0  0
    8.1890   -0.7180   20.8700 N   0  0  0  0  0  0  0  0  0  0  0  0
    9.2690    1.4140   20.9380 O   0  0  0  0  0  0  0  0  0  0  0  0
   12.9251    0.9633   26.2032 S   0  0  0  0  0  0  0  0  0  0  0  0
    3.6468    2.0173   21.6825 H   0  0  0  0  0  0  0  0  0  0  0  0
    3.0153    2.6527   19.3907 H   0  0  0  0  0  0  0  0  0  0  0  0
    5.7015    0.6980   22.1071 H   0  0  0  0  0  0  0  0  0  0  0  0
    8.9214   -0.1986   25.4206 H   0  0  0  0  0  0  0  0  0  0  0  0
   10.0622   -2.2326   21.8251 H   0  0  0  0  0  0  0  0  0  0  0  0
    4.4064    1.9744   17.4453 H   0  0  0  0  0  0  0  0  0  0  0  0
    8.6882   -2.3542   26.5803 H   0  0  0  0  0  0  0  0  0  0  0  0
    9.9258   -4.3896   22.9914 H   0  0  0  0  0  0  0  0  0  0  0  0
   12.5144    0.4895   22.6468 H   0  0  0  0  0  0  0  0  0  0  0  0
   14.4455    0.2746   24.4187 H   0  0  0  0  0  0  0  0  0  0  0  0
   10.5774    1.6050   26.3912 H   0  0  0  0  0  0  0  0  0  0  0  0
    7.8484   -7.0905   27.4464 H   0  0  0  0  0  0  0  0  0  0  0  0
    6.3761   -6.1442   27.6721 H   0  0  0  0  0  0  0  0  0  0  0  0
    7.6308   -4.0428   27.6404 H   0  0  0  0  0  0  0  0  0  0  0  0
    8.3917   -5.1316   28.7967 H   0  0  0  0  0  0  0  0  0  0  0  0
    6.6889   -6.9376   25.3006 H   0  0  0  0  0  0  0  0  0  0  0  0
    6.5516   -5.1860   25.4256 H   0  0  0  0  0  0  0  0  0  0  0  0
   10.0494   -3.9643   27.3413 H   0  0  0  0  0  0  0  0  0  0  0  0
   10.1432   -5.7258   27.1775 H   0  0  0  0  0  0  0  0  0  0  0  0
    9.1338   -6.7931   25.0863 H   0  0  0  0  0  0  0  0  0  0  0  0
    8.3657   -5.7262   23.8995 H   0  0  0  0  0  0  0  0  0  0  0  0
    9.1090    1.6445   24.2791 H   0  0  0  0  0  0  0  0  0  0  0  0
   10.0281    2.1766   22.8918 H   0  0  0  0  0  0  0  0  0  0  0  0
   10.7949   -0.0994   22.4253 H   0  0  0  0  0  0  0  0  0  0  0  0
    6.8044    0.4388   16.8592 H   0  0  0  0  0  0  0  0  0  0  0  0
    8.2585   -1.5522   21.1129 H   0  0  0  0  0  0  0  0  0  0  0  0
  1  2  1  0  0  0  0
  1  3  2  0  0  0  0
  2  6  2  0  0  0  0
  3 12  1  0  0  0  0
  4  7  2  0  0  0  0
  4 13  1  0  0  0  0
  5  8  1  0  0  0  0
  5 13  2  0  0  0  0
  6 15  1  0  0  0  0
  7 16  1  0  0  0  0
  8 16  2  0  0  0  0
  9 10  2  0  0  0  0
  9 14  1  0  0  0  0
 10 31  1  0  0  0  0
 11 14  2  0  0  0  0
 11 31  1  0  0  0  0
 12 15  2  0  0  0  0
 12 17  1  0  0  0  0
 13 25  1  0  0  0  0
 14 24  1  0  0  0  0
 15 27  1  0  0  0  0
 16 28  1  0  0  0  0
 17 26  2  0  0  0  0
 17 29  1  0  0  0  0
 18 25  1  1  0  0  0
 18 29  1  0  0  0  0
 18 30  2  0  0  0  0
 19 20  1  0  0  0  0
 19 21  1  0  0  0  0
 20 22  1  0  0  0  0
 21 23  1  0  0  0  0
 22 28  1  0  0  0  0
 23 28  1  0  0  0  0
 24 25  1  0  0  0  0
 26 27  1  0  0  0  0
  1 32  1  0  0  0  0
  2 33  1  0  0  0  0
  3 34  1  0  0  0  0
  4 35  1  0  0  0  0
  5 36  1  0  0  0  0
  6 37  1  0  0  0  0
  7 38  1  0  0  0  0
  8 39  1  0  0  0  0
  9 40  1  0  0  0  0
 10 41  1  0  0  0  0
 11 42  1  0  0  0  0
 19 43  1  0  0  0  0
 19 44  1  0  0  0  0
 20 45  1  0  0  0  0
 20 46  1  0  0  0  0
 21 47  1  0  0  0  0
 21 48  1  0  0  0  0
 22 49  1  0  0  0  0
 22 50  1  0  0  0  0
 23 51  1  0  0  0  0
 23 52  1  0  0  0  0
 24 53  1  0  0  0  0
 24 54  1  0  0  0  0
 25 55  1  0  0  0  0
 27 56  1  0  0  0  0
 29 57  1  0  0  0  0
M  END
> <clash_score>
0.6358218900354776

> <docking_score>
-6.602789878845215

> <overlap_score>
0.9228859543800354

$$$$
BENZO_233_2
  -OEChem-08222022183D

 60 64  0     1  0  0  0  0  0999 V2000
   14.1302    2.0067   23.3945 C   0  0  0  0  0  0  0  0  0  0  0  0
    4.2750    1.7050   20.8490 C   0  0  0  0  0  0  0  0  0  0  0  0
   13.2571    3.0838   23.5461 C   0  0  0  0  0  0  0  0  0  0  0  0
   13.6272    0.7090   23.3006 C   0  0  0  0  0  0  0  0  0  0  0  0
    3.9160    2.0630   19.5520 C   0  0  0  0  0  0  0  0  0  0  0  0
    5.4210    0.9600   21.0930 C   0  0  0  0  0  0  0  0  0  0  0  0
   11.8810    2.8633   23.6040 C   0  0  0  0  0  0  0  0  0  0  0  0
   12.2511    0.4885   23.3584 C   0  0  0  0  0  0  0  0  0  0  0  0
    9.0720   -1.1280   24.8640 C   0  0  0  0  0  0  0  0  0  0  0  0
    9.7200   -2.2600   22.8630 C   0  0  0  0  0  0  0  0  0  0  0  0
    4.6890    1.6810   18.4640 C   0  0  0  0  0  0  0  0  0  0  0  0
    8.9960   -2.3380   25.5320 C   0  0  0  0  0  0  0  0  0  0  0  0
    9.6730   -3.4710   23.5300 C   0  0  0  0  0  0  0  0  0  0  0  0
    6.1790    0.5730   19.9990 C   0  0  0  0  0  0  0  0  0  0  0  0
   11.3780    1.5657   23.5101 C   0  0  0  0  0  0  0  0  0  0  0  0
    9.3350   -1.0880   23.5010 C   0  0  0  0  0  0  0  0  0  0  0  0
    5.8300    0.9190   18.6970 C   0  0  0  0  0  0  0  0  0  0  0  0
    9.3070   -3.5340   24.8780 C   0  0  0  0  0  0  0  0  0  0  0  0
    7.3170   -0.1610   19.8550 C   0  0  0  0  0  0  0  0  0  0  0  0
    9.0420    0.3700   21.5280 C   0  0  0  0  0  0  0  0  0  0  0  0
    7.3637   -6.1365   27.1885 C   0  0  0  0  0  0  0  0  0  0  0  0
    8.1962   -4.9739   27.7340 C   0  0  0  0  0  0  0  0  0  0  0  0
    7.1943   -6.0395   25.6706 C   0  0  0  0  0  0  0  0  0  0  0  0
    9.5197   -4.8493   26.9795 C   0  0  0  0  0  0  0  0  0  0  0  0
    8.5443   -5.8838   24.9636 C   0  0  0  0  0  0  0  0  0  0  0  0
    9.8870    1.3260   23.5730 C   0  0  0  0  0  0  0  0  0  0  0  0
    9.4560    0.1560   22.8130 C   0  0  2  0  0  0  0  0  0  0  0  0
    7.6390   -0.2680   18.5410 N   0  0  0  0  0  0  0  0  0  0  0  0
    6.7580    0.3810   17.8350 N   0  0  0  0  0  0  0  0  0  0  0  0
    9.2563   -4.7385   25.5420 N   0  0  0  0  0  0  0  0  0  0  0  0
    8.1890   -0.7180   20.8700 N   0  0  0  0  0  0  0  0  0  0  0  0
    9.2690    1.4140   20.9380 O   0  0  0  0  0  0  0  0  0  0  0  0
   15.2016    2.1786   23.3481 H   0  0  0  0  0  0  0  0  0  0  0  0
    3.6468    2.0173   21.6825 H   0  0  0  0  0  0  0  0  0  0  0  0
   13.6485    4.0944   23.6181 H   0  0  0  0  0  0  0  0  0  0  0  0
   14.3067   -0.1298   23.1814 H   0  0  0  0  0  0  0  0  0  0  0  0
    3.0153    2.6527   19.3907 H   0  0  0  0  0  0  0  0  0  0  0  0
    5.7015    0.6980   22.1071 H   0  0  0  0  0  0  0  0  0  0  0  0
   11.2082    3.7086   23.7225 H   0  0  0  0  0  0  0  0  0  0  0  0
   11.8683   -0.5260   23.2846 H   0  0  0  0  0  0  0  0  0  0  0  0
    8.9214   -0.1986   25.4206 H   0  0  0  0  0  0  0  0  0  0  0  0
   10.0622   -2.2326   21.8251 H   0  0  0  0  0  0  0  0  0  0  0  0
    4.4064    1.9744   17.4453 H   0  0  0  0  0  0  0  0  0  0  0  0
    8.6882   -2.3542   26.5803 H   0  0  0  0  0  0  0  0  0  0  0  0
    9.9258   -4.3896   22.9914 H   0  0  0  0  0  0  0  0  0  0  0  0
    7.8484   -7.0905   27.4464 H   0  0  0  0  0  0  0  0  0  0  0  0
    6.3761   -6.1442   27.6721 H   0  0  0  0  0  0  0  0  0  0  0  0
    7.6308   -4.0428   27.6404 H   0  0  0  0  0  0  0  0  0  0  0  0
    8.3917   -5.1316   28.7967 H   0  0  0  0  0  0  0  0  0  0  0  0
    6.6889   -6.9376   25.3006 H   0  0  0  0  0  0  0  0  0  0  0  0
    6.5516   -5.1860   25.4256 H   0  0  0  0  0  0  0  0  0  0  0  0
   10.0494   -3.9643   27.3413 H   0  0  0  0  0  0  0  0  0  0  0  0
   10.1432   -5.7258   27.1775 H   0  0  0  0  0  0  0  0  0  0  0  0
    9.1338   -6.7931   25.0863 H   0  0  0  0  0  0  0  0  0  0  0  0
    8.3657   -5.7262   23.8995 H   0  0  0  0  0  0  0  0  0  0  0  0
    9.5760    1.2490   24.6231 H   0  0  0  0  0  0  0  0  0  0  0  0
    9.3844    2.2230   23.1853 H   0  0  0  0  0  0  0  0  0  0  0  0
    8.0674    0.5009   23.2732 H   0  0  0  0  0  0  0  0  0  0  0  0
    6.8044    0.4388   16.8592 H   0  0  0  0  0  0  0  0  0  0  0  0
    8.2585   -1.5522   21.1129 H   0  0  0  0  0  0  0  0  0  0  0  0
  1  3  1  0  0  0  0
  1  4  2  0  0  0  0
  2  5  1  0  0  0  0
  2  6  2  0  0  0  0
  3  7  2  0  0  0  0
  4  8  1  0  0  0  0
  5 11  2  0  0  0  0
  6 14  1  0  0  0  0
  7 15  1  0  0  0  0
  8 15  2  0  0  0  0
  9 12  2  0  0  0  0
  9 16  1  0  0  0  0
 10 13  1  0  0  0  0
 10 16  2  0  0  0  0
 11 17  1  0  0  0  0
 12 18  1  0  0  0  0
 13 18  2  0  0  0  0
 14 17  2  0  0  0  0
 14 19  1  0  0  0  0
 15 26  1  0  0  0  0
 16 27  1  0  0  0  0
 17 29  1  0  0  0  0
 18 30  1  0  0  0  0
 19 28  2  0  0  0  0
 19 31  1  0  0  0  0
 20 27  1  6  0  0  0
 20 31  1  0  0  0  0
 20 32  2  0  0  0  0
 21 22  1  0  0  0  0
 21 23  1  0  0  0  0
 22 24  1  0  0  0  0
 23 25  1  0  0  0  0
 24 30  1  0  0  0  0
 25 30  1  0  0  0  0
 26 27  1  0  0  0  0
 28 29  1  0  0  0  0
  1 33  1  0  0  0  0
  2 34  1  0  0  0  0
  3 35  1  0  0  0  0
  4 36  1  0  0  0  0
  5 37  1  0  0  0  0
  6 38  1  0  0  0  0
  7 39  1  0  0  0  0
  8 40  1  0  0  0  0
  9 41  1  0  0  0  0
 10 42  1  0  0  0  0
 11 43  1  0  0  0  0
 12 44  1  0  0  0  0
 13 45  1  0  0  0  0
 21 46  1  0  0  0  0
 21 47  1  0  0  0  0
 22 48  1  0  0  0  0
 22 49  1  0  0  0  0
 23 50  1  0  0  0  0
 23 51  1  0  0  0  0
 24 52  1  0  0  0  0
 24 53  1  0  0  0  0
 25 54  1  0  0  0  0
 25 55  1  0  0  0  0
 26 56  1  0  0  0  0
 26 57  1  0  0  0  0
 27 58  1  0  0  0  0
 29 59  1  0  0  0  0
 31 60  1  0  0  0  0
M  END
> <clash_score>
0

> <docking_score>
-8.176216125488281

> <overlap_score>
1.0136134624481201

$$$$
BENZO_232_2
  -OEChem-08222022183D

 57 61  0     1  0  0  0  0  0999 V2000
    4.2750    1.7050   20.8490 C   0  0  0  0  0  0  0  0  0  0  0  0
    3.9160    2.0630   19.5520 C   0  0  0  0  0  0  0  0  0  0  0  0
    5.4210    0.9600   21.0930 C   0  0  0  0  0  0  0  0  0  0  0  0
    9.0720   -1.1280   24.8640 C   0  0  0  0  0  0  0  0  0  0  0  0
    9.7200   -2.2600   22.8630 C   0  0  0  0  0  0  0  0  0  0  0  0
    4.6890    1.6810   18.4640 C   0  0  0  0  0  0  0  0  0  0  0  0
    8.9960   -2.3380   25.5320 C   0  0  0  0  0  0  0  0  0  0  0  0
    9.6730   -3.4710   23.5300 C   0  0  0  0  0  0  0  0  0  0  0  0
   12.3482    0.5241   23.4467 C   0  0  0  0  0  0  0  0  0  0  0  0
   13.6337    1.0166   23.3986 C   0  0  0  0  0  0  0  0  0  0  0  0
   11.9591    2.8148   23.5083 C   0  0  0  0  0  0  0  0  0  0  0  0
    6.1790    0.5730   19.9990 C   0  0  0  0  0  0  0  0  0  0  0  0
    9.3350   -1.0880   23.5010 C   0  0  0  0  0  0  0  0  0  0  0  0
   11.3780    1.5657   23.5101 C   0  0  0  0  0  0  0  0  0  0  0  0
    5.8300    0.9190   18.6970 C   0  0  0  0  0  0  0  0  0  0  0  0
    9.3070   -3.5340   24.8780 C   0  0  0  0  0  0  0  0  0  0  0  0
    7.3170   -0.1610   19.8550 C   0  0  0  0  0  0  0  0  0  0  0  0
    9.0420    0.3700   21.5280 C   0  0  0  0  0  0  0  0  0  0  0  0
    7.3637   -6.1365   27.1885 C   0  0  0  0  0  0  0  0  0  0  0  0
    8.1962   -4.9739   27.7340 C   0  0  0  0  0  0  0  0  0  0  0  0
    7.1943   -6.0395   25.6706 C   0  0  0  0  0  0  0  0  0  0  0  0
    9.5197   -4.8493   26.9795 C   0  0  0  0  0  0  0  0  0  0  0  0
    8.5443   -5.8838   24.9636 C   0  0  0  0  0  0  0  0  0  0  0  0
    9.8870    1.3260   23.5730 C   0  0  0  0  0  0  0  0  0  0  0  0
    9.4560    0.1560   22.8130 C   0  0  2  0  0  0  0  0  0  0  0  0
    7.6390   -0.2680   18.5410 N   0  0  0  0  0  0  0  0  0  0  0  0
    6.7580    0.3810   17.8350 N   0  0  0  0  0  0  0  0  0  0  0  0
    9.2563   -4.7385   25.5420 N   0  0  0  0  0  0  0  0  0  0  0  0
    8.1890   -0.7180   20.8700 N   0  0  0  0  0  0  0  0  0  0  0  0
    9.2690    1.4140   20.9380 O   0  0  0  0  0  0  0  0  0  0  0  0
   13.6675    2.7284   23.4300 S   0  0  0  0  0  0  0  0  0  0  0  0
    3.6468    2.0173   21.6825 H   0  0  0  0  0  0  0  0  0  0  0  0
    3.0153    2.6527   19.3907 H   0  0  0  0  0  0  0  0  0  0  0  0
    5.7015    0.6980   22.1071 H   0  0  0  0  0  0  0  0  0  0  0  0
    8.9214   -0.1986   25.4206 H   0  0  0  0  0  0  0  0  0  0  0  0
   10.0622   -2.2326   21.8251 H   0  0  0  0  0  0  0  0  0  0  0  0
    4.4064    1.9744   17.4453 H   0  0  0  0  0  0  0  0  0  0  0  0
    8.6882   -2.3542   26.5803 H   0  0  0  0  0  0  0  0  0  0  0  0
    9.9258   -4.3896   22.9914 H   0  0  0  0  0  0  0  0  0  0  0  0
   12.1191   -0.5341   23.4370 H   0  0  0  0  0  0  0  0  0  0  0  0
   14.5547    0.4533   23.3471 H   0  0  0  0  0  0  0  0  0  0  0  0
   11.4660    3.7761   23.5503 H   0  0  0  0  0  0  0  0  0  0  0  0
    7.8484   -7.0905   27.4464 H   0  0  0  0  0  0  0  0  0  0  0  0
    6.3761   -6.1442   27.6721 H   0  0  0  0  0  0  0  0  0  0  0  0
    7.6308   -4.0428   27.6404 H   0  0  0  0  0  0  0  0  0  0  0  0
    8.3917   -5.1316   28.7967 H   0  0  0  0  0  0  0  0  0  0  0  0
    6.6889   -6.9376   25.3006 H   0  0  0  0  0  0  0  0  0  0  0  0
    6.5516   -5.1860   25.4256 H   0  0  0  0  0  0  0  0  0  0  0  0
   10.0494   -3.9643   27.3413 H   0  0  0  0  0  0  0  0  0  0  0  0
   10.1432   -5.7258   27.1775 H   0  0  0  0  0  0  0  0  0  0  0  0
    9.1338   -6.7931   25.0863 H   0  0  0  0  0  0  0  0  0  0  0  0
    8.3657   -5.7262   23.8995 H   0  0  0  0  0  0  0  0  0  0  0  0
    9.5760    1.2490   24.6231 H   0  0  0  0  0  0  0  0  0  0  0  0
    9.3844    2.2230   23.1853 H   0  0  0  0  0  0  0  0  0  0  0  0
    8.0674    0.5009   23.2732 H   0  0  0  0  0  0  0  0  0  0  0  0
    6.8044    0.4388   16.8592 H   0  0  0  0  0  0  0  0  0  0  0  0
    8.2585   -1.5522   21.1129 H   0  0  0  0  0  0  0  0  0  0  0  0
  1  2  1  0  0  0  0
  1  3  2  0  0  0  0
  2  6  2  0  0  0  0
  3 12  1  0  0  0  0
  4  7  2  0  0  0  0
  4 13  1  0  0  0  0
  5  8  1  0  0  0  0
  5 13  2  0  0  0  0
  6 15  1  0  0  0  0
  7 16  1  0  0  0  0
  8 16  2  0  0  0  0
  9 10  2  0  0  0  0
  9 14  1  0  0  0  0
 10 31  1  0  0  0  0
 11 14  2  0  0  0  0
 11 31  1  0  0  0  0
 12 15  2  0  0  0  0
 12 17  1  0  0  0  0
 13 25  1  0  0  0  0
 14 24  1  0  0  0  0
 15 27  1  0  0  0  0
 16 28  1  0  0  0  0
 17 26  2  0  0  0  0
 17 29  1  0  0  0  0
 18 25  1  6  0  0  0
 18 29  1  0  0  0  0
 18 30  2  0  0  0  0
 19 20  1  0  0  0  0
 19 21  1  0  0  0  0
 20 22  1  0  0  0  0
 21 23  1  0  0  0  0
 22 28  1  0  0  0  0
 23 28  1  0  0  0  0
 24 25  1  0  0  0  0
 26 27  1  0  0  0  0
  1 32  1  0  0  0  0
  2 33  1  0  0  0  0
  3 34  1  0  0  0  0
  4 35  1  0  0  0  0
  5 36  1  0  0  0  0
  6 37  1  0  0  0  0
  7 38  1  0  0  0  0
  8 39  1  0  0  0  0
  9 40  1  0  0  0  0
 10 41  1  0  0  0  0
 11 42  1  0  0  0  0
 19 43  1  0  0  0  0
 19 44  1  0  0  0  0
 20 45  1  0  0  0  0
 20 46  1  0  0  0  0
 21 47  1  0  0  0  0
 21 48  1  0  0  0  0
 22 49  1  0  0  0  0
 22 50  1  0  0  0  0
 23 51  1  0  0  0  0
 23 52  1  0  0  0  0
 24 53  1  0  0  0  0
 24 54  1  0  0  0  0
 25 55  1  0  0  0  0
 27 56  1  0  0  0  0
 29 57  1  0  0  0  0
M  END
> <clash_score>
0

> <docking_score>
-8.646751403808594

> <overlap_score>
0.9986698031425476

$$$$
BENZO_231_2
  -OEChem-08222022183D

 55 58  0     1  0  0  0  0  0999 V2000
    4.2750    1.7050   20.8490 C   0  0  0  0  0  0  0  0  0  0  0  0
    3.9160    2.0630   19.5520 C   0  0  0  0  0  0  0  0  0  0  0  0
    5.4210    0.9600   21.0930 C   0  0  0  0  0  0  0  0  0  0  0  0
    9.0720   -1.1280   24.8640 C   0  0  0  0  0  0  0  0  0  0  0  0
    9.7200   -2.2600   22.8630 C   0  0  0  0  0  0  0  0  0  0  0  0
    4.6890    1.6810   18.4640 C   0  0  0  0  0  0  0  0  0  0  0  0
    8.9960   -2.3380   25.5320 C   0  0  0  0  0  0  0  0  0  0  0  0
    9.6730   -3.4710   23.5300 C   0  0  0  0  0  0  0  0  0  0  0  0
   10.7934    3.1849   21.9605 C   0  0  0  0  0  0  0  0  0  0  0  0
   12.3221    1.9589   22.9580 C   0  0  0  0  0  0  0  0  0  0  0  0
    6.1790    0.5730   19.9990 C   0  0  0  0  0  0  0  0  0  0  0  0
    9.3350   -1.0880   23.5010 C   0  0  0  0  0  0  0  0  0  0  0  0
   10.9611    2.1180   22.8635 C   0  0  0  0  0  0  0  0  0  0  0  0
    5.8300    0.9190   18.6970 C   0  0  0  0  0  0  0  0  0  0  0  0
    9.3070   -3.5340   24.8780 C   0  0  0  0  0  0  0  0  0  0  0  0
    7.3170   -0.1610   19.8550 C   0  0  0  0  0  0  0  0  0  0  0  0
    8.4227   -5.1089   26.6141 C   0  0  0  0  0  0  0  0  0  0  0  0
    9.0420    0.3700   21.5280 C   0  0  0  0  0  0  0  0  0  0  0  0
    8.4173   -7.5520   25.9532 C   0  0  0  0  0  0  0  0  0  0  0  0
   14.2722    3.1281   21.9050 C   0  0  0  0  0  0  0  0  0  0  0  0
    9.8870    1.3260   23.5730 C   0  0  0  0  0  0  0  0  0  0  0  0
    8.6900   -6.5411   27.0525 C   0  0  0  0  0  0  0  0  0  0  0  0
    9.4560    0.1560   22.8130 C   0  0  2  0  0  0  0  0  0  0  0  0
   11.9550    3.6695   21.5134 N   0  0  0  0  0  0  0  0  0  0  0  0
    7.6390   -0.2680   18.5410 N   0  0  0  0  0  0  0  0  0  0  0  0
    6.7580    0.3810   17.8350 N   0  0  0  0  0  0  0  0  0  0  0  0
   12.8657    2.9036   22.1381 N   0  0  0  0  0  0  0  0  0  0  0  0
    9.2546   -4.7423   25.5437 N   0  0  0  0  0  0  0  0  0  0  0  0
    8.1890   -0.7180   20.8700 N   0  0  0  0  0  0  0  0  0  0  0  0
    7.5768   -4.4085   27.1602 O   0  0  0  0  0  0  0  0  0  0  0  0
    9.2690    1.4140   20.9380 O   0  0  0  0  0  0  0  0  0  0  0  0
    3.6468    2.0173   21.6825 H   0  0  0  0  0  0  0  0  0  0  0  0
    3.0153    2.6527   19.3907 H   0  0  0  0  0  0  0  0  0  0  0  0
    5.7015    0.6980   22.1071 H   0  0  0  0  0  0  0  0  0  0  0  0
    8.9202   -0.1986   25.4206 H   0  0  0  0  0  0  0  0  0  0  0  0
   10.0631   -2.2319   21.8252 H   0  0  0  0  0  0  0  0  0  0  0  0
    4.4064    1.9744   17.4453 H   0  0  0  0  0  0  0  0  0  0  0  0
    8.6898   -2.3534   26.5810 H   0  0  0  0  0  0  0  0  0  0  0  0
    9.9254   -4.3899   22.9914 H   0  0  0  0  0  0  0  0  0  0  0  0
    9.8743    3.6318   21.6087 H   0  0  0  0  0  0  0  0  0  0  0  0
   12.9348    1.2718   23.5258 H   0  0  0  0  0  0  0  0  0  0  0  0
    7.3765   -7.4970   25.6176 H   0  0  0  0  0  0  0  0  0  0  0  0
    8.6071   -8.5677   26.3138 H   0  0  0  0  0  0  0  0  0  0  0  0
    9.0599   -7.3717   25.0851 H   0  0  0  0  0  0  0  0  0  0  0  0
   14.5772    2.5070   21.0587 H   0  0  0  0  0  0  0  0  0  0  0  0
   14.4402    4.1857   21.6833 H   0  0  0  0  0  0  0  0  0  0  0  0
   14.8350    2.8566   22.8025 H   0  0  0  0  0  0  0  0  0  0  0  0
   10.2455    1.0419   24.5710 H   0  0  0  0  0  0  0  0  0  0  0  0
    9.0345    1.9965   23.7496 H   0  0  0  0  0  0  0  0  0  0  0  0
    9.7367   -6.6182   27.3685 H   0  0  0  0  0  0  0  0  0  0  0  0
    8.0564   -6.7633   27.9189 H   0  0  0  0  0  0  0  0  0  0  0  0
   10.7927   -0.1029   22.4279 H   0  0  0  0  0  0  0  0  0  0  0  0
    6.8044    0.4388   16.8592 H   0  0  0  0  0  0  0  0  0  0  0  0
    9.9034   -5.4689   25.2194 H   0  0  0  0  0  0  0  0  0  0  0  0
    8.2434   -1.5614   21.0991 H   0  0  0  0  0  0  0  0  0  0  0  0
  1  2  1  0  0  0  0
  1  3  2  0  0  0  0
  2  6  2  0  0  0  0
  3 11  1  0  0  0  0
  4  7  2  0  0  0  0
  4 12  1  0  0  0  0
  5  8  1  0  0  0  0
  5 12  2  0  0  0  0
  6 14  1  0  0  0  0
  7 15  1  0  0  0  0
  8 15  2  0  0  0  0
  9 13  1  0  0  0  0
  9 24  2  0  0  0  0
 10 13  2  0  0  0  0
 10 27  1  0  0  0  0
 11 14  2  0  0  0  0
 11 16  1  0  0  0  0
 12 23  1  0  0  0  0
 13 21  1  0  0  0  0
 14 26  1  0  0  0  0
 15 28  1  0  0  0  0
 16 25  2  0  0  0  0
 16 29  1  0  0  0  0
 17 22  1  0  0  0  0
 17 28  1  0  0  0  0
 17 30  2  0  0  0  0
 18 23  1  0  0  0  0
 18 29  1  0  0  0  0
 18 31  2  0  0  0  0
 19 22  1  0  0  0  0
 20 27  1  0  0  0  0
 21 23  1  6  0  0  0
 24 27  1  0  0  0  0
 25 26  1  0  0  0  0
  1 32  1  0  0  0  0
  2 33  1  0  0  0  0
  3 34  1  0  0  0  0
  4 35  1  0  0  0  0
  5 36  1  0  0  0  0
  6 37  1  0  0  0  0
  7 38  1  0  0  0  0
  8 39  1  0  0  0  0
  9 40  1  0  0  0  0
 10 41  1  0  0  0  0
 19 42  1  0  0  0  0
 19 43  1  0  0  0  0
 19 44  1  0  0  0  0
 20 45  1  0  0  0  0
 20 46  1  0  0  0  0
 20 47  1  0  0  0  0
 21 48  1  0  0  0  0
 21 49  1  0  0  0  0
 22 50  1  0  0  0  0
 22 51  1  0  0  0  0
 23 52  1  0  0  0  0
 26 53  1  0  0  0  0
 28 54  1  0  0  0  0
 29 55  1  0  0  0  0
M  END
> <clash_score>
0.6426261285623064

> <docking_score>
-5.650774955749512

> <overlap_score>
0.95723956823349

$$$$
BENZO_231_1
  -OEChem-08222022183D

 55 58  0     1  0  0  0  0  0999 V2000
    4.2750    1.7050   20.8490 C   0  0  0  0  0  0  0  0  0  0  0  0
    3.9160    2.0630   19.5520 C   0  0  0  0  0  0  0  0  0  0  0  0
    5.4210    0.9600   21.0930 C   0  0  0  0  0  0  0  0  0  0  0  0
    9.0720   -1.1280   24.8640 C   0  0  0  0  0  0  0  0  0  0  0  0
    9.7200   -2.2600   22.8630 C   0  0  0  0  0  0  0  0  0  0  0  0
    4.6890    1.6810   18.4640 C   0  0  0  0  0  0  0  0  0  0  0  0
    8.9960   -2.3380   25.5320 C   0  0  0  0  0  0  0  0  0  0  0  0
    9.6730   -3.4710   23.5300 C   0  0  0  0  0  0  0  0  0  0  0  0
   12.0720    2.7762   23.5689 C   0  0  0  0  0  0  0  0  0  0  0  0
   12.3651    0.6087   23.3429 C   0  0  0  0  0  0  0  0  0  0  0  0
    6.1790    0.5730   19.9990 C   0  0  0  0  0  0  0  0  0  0  0  0
    9.3350   -1.0880   23.5010 C   0  0  0  0  0  0  0  0  0  0  0  0
   11.3794    1.5528   23.4964 C   0  0  0  0  0  0  0  0  0  0  0  0
    5.8300    0.9190   18.6970 C   0  0  0  0  0  0  0  0  0  0  0  0
    9.3070   -3.5340   24.8780 C   0  0  0  0  0  0  0  0  0  0  0  0
    7.3170   -0.1610   19.8550 C   0  0  0  0  0  0  0  0  0  0  0  0
    8.4227   -5.1089   26.6141 C   0  0  0  0  0  0  0  0  0  0  0  0
    9.0420    0.3700   21.5280 C   0  0  0  0  0  0  0  0  0  0  0  0
    8.4173   -7.5520   25.9532 C   0  0  0  0  0  0  0  0  0  0  0  0
   14.8634    0.7326   23.1949 C   0  0  0  0  0  0  0  0  0  0  0  0
    9.8870    1.3260   23.5730 C   0  0  0  0  0  0  0  0  0  0  0  0
    8.6900   -6.5411   27.0525 C   0  0  0  0  0  0  0  0  0  0  0  0
    9.4560    0.1560   22.8130 C   0  0  1  0  0  0  0  0  0  0  0  0
   13.3955    2.6261   23.4698 N   0  0  0  0  0  0  0  0  0  0  0  0
    7.6390   -0.2680   18.5410 N   0  0  0  0  0  0  0  0  0  0  0  0
    6.7580    0.3810   17.8350 N   0  0  0  0  0  0  0  0  0  0  0  0
   13.5424    1.2972   23.3335 N   0  0  0  0  0  0  0  0  0  0  0  0
    9.2546   -4.7423   25.5437 N   0  0  0  0  0  0  0  0  0  0  0  0
    8.1890   -0.7180   20.8700 N   0  0  0  0  0  0  0  0  0  0  0  0
    7.5768   -4.4085   27.1602 O   0  0  0  0  0  0  0  0  0  0  0  0
    9.2690    1.4140   20.9380 O   0  0  0  0  0  0  0  0  0  0  0  0
    3.6468    2.0173   21.6825 H   0  0  0  0  0  0  0  0  0  0  0  0
    3.0153    2.6527   19.3907 H   0  0  0  0  0  0  0  0  0  0  0  0
    5.7015    0.6980   22.1071 H   0  0  0  0  0  0  0  0  0  0  0  0
    8.9202   -0.1986   25.4206 H   0  0  0  0  0  0  0  0  0  0  0  0
   10.0631   -2.2319   21.8252 H   0  0  0  0  0  0  0  0  0  0  0  0
    4.4064    1.9744   17.4453 H   0  0  0  0  0  0  0  0  0  0  0  0
    8.6898   -2.3534   26.5810 H   0  0  0  0  0  0  0  0  0  0  0  0
    9.9254   -4.3899   22.9914 H   0  0  0  0  0  0  0  0  0  0  0  0
   11.6698    3.7720   23.6907 H   0  0  0  0  0  0  0  0  0  0  0  0
   12.3300   -0.4677   23.2433 H   0  0  0  0  0  0  0  0  0  0  0  0
    7.3765   -7.4970   25.6176 H   0  0  0  0  0  0  0  0  0  0  0  0
    8.6071   -8.5677   26.3138 H   0  0  0  0  0  0  0  0  0  0  0  0
    9.0599   -7.3717   25.0851 H   0  0  0  0  0  0  0  0  0  0  0  0
   15.1060    0.6995   22.1295 H   0  0  0  0  0  0  0  0  0  0  0  0
   15.5839    1.3558   23.7319 H   0  0  0  0  0  0  0  0  0  0  0  0
   14.8726   -0.2742   23.6217 H   0  0  0  0  0  0  0  0  0  0  0  0
    9.5854    1.2495   24.6258 H   0  0  0  0  0  0  0  0  0  0  0  0
    9.3886    2.2282   23.1920 H   0  0  0  0  0  0  0  0  0  0  0  0
    9.7367   -6.6182   27.3685 H   0  0  0  0  0  0  0  0  0  0  0  0
    8.0564   -6.7633   27.9189 H   0  0  0  0  0  0  0  0  0  0  0  0
    8.0686    0.4964   23.2745 H   0  0  0  0  0  0  0  0  0  0  0  0
    6.8044    0.4388   16.8592 H   0  0  0  0  0  0  0  0  0  0  0  0
    9.9034   -5.4689   25.2194 H   0  0  0  0  0  0  0  0  0  0  0  0
    8.2434   -1.5614   21.0991 H   0  0  0  0  0  0  0  0  0  0  0  0
  1  2  1  0  0  0  0
  1  3  2  0  0  0  0
  2  6  2  0  0  0  0
  3 11  1  0  0  0  0
  4  7  2  0  0  0  0
  4 12  1  0  0  0  0
  5  8  1  0  0  0  0
  5 12  2  0  0  0  0
  6 14  1  0  0  0  0
  7 15  1  0  0  0  0
  8 15  2  0  0  0  0
  9 13  1  0  0  0  0
  9 24  2  0  0  0  0
 10 13  2  0  0  0  0
 10 27  1  0  0  0  0
 11 14  2  0  0  0  0
 11 16  1  0  0  0  0
 12 23  1  0  0  0  0
 13 21  1  0  0  0  0
 14 26  1  0  0  0  0
 15 28  1  0  0  0  0
 16 25  2  0  0  0  0
 16 29  1  0  0  0  0
 17 22  1  0  0  0  0
 17 28  1  0  0  0  0
 17 30  2  0  0  0  0
 18 23  1  0  0  0  0
 18 29  1  0  0  0  0
 18 31  2  0  0  0  0
 19 22  1  0  0  0  0
 20 27  1  0  0  0  0
 21 23  1  1  0  0  0
 24 27  1  0  0  0  0
 25 26  1  0  0  0  0
  1 32  1  0  0  0  0
  2 33  1  0  0  0  0
  3 34  1  0  0  0  0
  4 35  1  0  0  0  0
  5 36  1  0  0  0  0
  6 37  1  0  0  0  0
  7 38  1  0  0  0  0
  8 39  1  0  0  0  0
  9 40  1  0  0  0  0
 10 41  1  0  0  0  0
 19 42  1  0  0  0  0
 19 43  1  0  0  0  0
 19 44  1  0  0  0  0
 20 45  1  0  0  0  0
 20 46  1  0  0  0  0
 20 47  1  0  0  0  0
 21 48  1  0  0  0  0
 21 49  1  0  0  0  0
 22 50  1  0  0  0  0
 22 51  1  0  0  0  0
 23 52  1  0  0  0  0
 26 53  1  0  0  0  0
 28 54  1  0  0  0  0
 29 55  1  0  0  0  0
M  END
> <clash_score>
0.6426261285623064

> <docking_score>
-7.499618053436279

> <overlap_score>
1.0034992694854736

$$$$
BENZO_237_1
  -OEChem-08222022183D

 48 51  0     1  0  0  0  0  0999 V2000
   14.1341    1.9700   23.3555 C   0  0  0  0  0  0  0  0  0  0  0  0
    4.2750    1.7050   20.8490 C   0  0  0  0  0  0  0  0  0  0  0  0
   13.2717    3.0548   23.5141 C   0  0  0  0  0  0  0  0  0  0  0  0
   13.6192    0.6767   23.2672 C   0  0  0  0  0  0  0  0  0  0  0  0
    3.9160    2.0630   19.5520 C   0  0  0  0  0  0  0  0  0  0  0  0
    5.4210    0.9600   21.0930 C   0  0  0  0  0  0  0  0  0  0  0  0
   11.8943    2.8461   23.5846 C   0  0  0  0  0  0  0  0  0  0  0  0
   12.2418    0.4681   23.3377 C   0  0  0  0  0  0  0  0  0  0  0  0
    8.9960   -2.3380   25.5320 C   0  0  0  0  0  0  0  0  0  0  0  0
    9.6730   -3.4710   23.5300 C   0  0  0  0  0  0  0  0  0  0  0  0
    9.0720   -1.1280   24.8640 C   0  0  0  0  0  0  0  0  0  0  0  0
    9.7200   -2.2600   22.8630 C   0  0  0  0  0  0  0  0  0  0  0  0
    4.6890    1.6810   18.4640 C   0  0  0  0  0  0  0  0  0  0  0  0
    6.1790    0.5730   19.9990 C   0  0  0  0  0  0  0  0  0  0  0  0
    9.3070   -3.5340   24.8780 C   0  0  0  0  0  0  0  0  0  0  0  0
   11.3794    1.5528   23.4964 C   0  0  0  0  0  0  0  0  0  0  0  0
    9.3350   -1.0880   23.5010 C   0  0  0  0  0  0  0  0  0  0  0  0
    5.8300    0.9190   18.6970 C   0  0  0  0  0  0  0  0  0  0  0  0
    7.3170   -0.1610   19.8550 C   0  0  0  0  0  0  0  0  0  0  0  0
    9.0420    0.3700   21.5280 C   0  0  0  0  0  0  0  0  0  0  0  0
    9.2507   -4.8268   25.5895 C   0  0  0  0  0  0  0  0  0  0  0  0
    9.8870    1.3260   23.5730 C   0  0  0  0  0  0  0  0  0  0  0  0
    9.4560    0.1560   22.8130 C   0  0  1  0  0  0  0  0  0  0  0  0
    7.6390   -0.2680   18.5410 N   0  0  0  0  0  0  0  0  0  0  0  0
    6.7580    0.3810   17.8350 N   0  0  0  0  0  0  0  0  0  0  0  0
    8.1890   -0.7180   20.8700 N   0  0  0  0  0  0  0  0  0  0  0  0
    9.2690    1.4140   20.9380 O   0  0  0  0  0  0  0  0  0  0  0  0
   15.2065    2.1328   23.2992 H   0  0  0  0  0  0  0  0  0  0  0  0
    3.6468    2.0173   21.6825 H   0  0  0  0  0  0  0  0  0  0  0  0
   13.6724    4.0620   23.5817 H   0  0  0  0  0  0  0  0  0  0  0  0
   14.2903   -0.1680   23.1426 H   0  0  0  0  0  0  0  0  0  0  0  0
    3.0153    2.6527   19.3907 H   0  0  0  0  0  0  0  0  0  0  0  0
    5.7015    0.6980   22.1071 H   0  0  0  0  0  0  0  0  0  0  0  0
   11.2299    3.6973   23.7085 H   0  0  0  0  0  0  0  0  0  0  0  0
   11.8496   -0.5431   23.2682 H   0  0  0  0  0  0  0  0  0  0  0  0
    8.6904   -2.3557   26.5808 H   0  0  0  0  0  0  0  0  0  0  0  0
    9.9249   -4.3911   22.9935 H   0  0  0  0  0  0  0  0  0  0  0  0
    8.9209   -0.1987   25.4207 H   0  0  0  0  0  0  0  0  0  0  0  0
   10.0640   -2.2315   21.8255 H   0  0  0  0  0  0  0  0  0  0  0  0
    4.4064    1.9744   17.4453 H   0  0  0  0  0  0  0  0  0  0  0  0
    8.2506   -5.2684   25.5009 H   0  0  0  0  0  0  0  0  0  0  0  0
    9.9820   -5.5375   25.1832 H   0  0  0  0  0  0  0  0  0  0  0  0
    9.4843   -4.7055   26.6554 H   0  0  0  0  0  0  0  0  0  0  0  0
    9.5854    1.2495   24.6258 H   0  0  0  0  0  0  0  0  0  0  0  0
    9.3886    2.2282   23.1920 H   0  0  0  0  0  0  0  0  0  0  0  0
    8.0686    0.4964   23.2745 H   0  0  0  0  0  0  0  0  0  0  0  0
    6.8044    0.4388   16.8592 H   0  0  0  0  0  0  0  0  0  0  0  0
    8.2434   -1.5614   21.0991 H   0  0  0  0  0  0  0  0  0  0  0  0
  1  3  1  0  0  0  0
  1  4  2  0  0  0  0
  2  5  1  0  0  0  0
  2  6  2  0  0  0  0
  3  7  2  0  0  0  0
  4  8  1  0  0  0  0
  5 13  2  0  0  0  0
  6 14  1  0  0  0  0
  7 16  1  0  0  0  0
  8 16  2  0  0  0  0
  9 11  2  0  0  0  0
  9 15  1  0  0  0  0
 10 12  1  0  0  0  0
 10 15  2  0  0  0  0
 11 17  1  0  0  0  0
 12 17  2  0  0  0  0
 13 18  1  0  0  0  0
 14 18  2  0  0  0  0
 14 19  1  0  0  0  0
 15 21  1  0  0  0  0
 16 22  1  0  0  0  0
 17 23  1  0  0  0  0
 18 25  1  0  0  0  0
 19 24  2  0  0  0  0
 19 26  1  0  0  0  0
 20 23  1  0  0  0  0
 20 26  1  0  0  0  0
 20 27  2  0  0  0  0
 22 23  1  1  0  0  0
 24 25  1  0  0  0  0
  1 28  1  0  0  0  0
  2 29  1  0  0  0  0
  3 30  1  0  0  0  0
  4 31  1  0  0  0  0
  5 32  1  0  0  0  0
  6 33  1  0  0  0  0
  7 34  1  0  0  0  0
  8 35  1  0  0  0  0
  9 36  1  0  0  0  0
 10 37  1  0  0  0  0
 11 38  1  0  0  0  0
 12 39  1  0  0  0  0
 13 40  1  0  0  0  0
 21 41  1  0  0  0  0
 21 42  1  0  0  0  0
 21 43  1  0  0  0  0
 22 44  1  0  0  0  0
 22 45  1  0  0  0  0
 23 46  1  0  0  0  0
 25 47  1  0  0  0  0
 26 48  1  0  0  0  0
M  END
> <clash_score>
0

> <docking_score>
-8.476932525634766

> <overlap_score>
0.9608623385429382

$$$$
BENZO_237_2
  -OEChem-08222022183D

 48 51  0     1  0  0  0  0  0999 V2000
   12.9427    3.5803   21.5528 C   0  0  0  0  0  0  0  0  0  0  0  0
    4.2750    1.7050   20.8490 C   0  0  0  0  0  0  0  0  0  0  0  0
   13.2971    2.5494   22.4231 C   0  0  0  0  0  0  0  0  0  0  0  0
   11.5975    3.8801   21.3380 C   0  0  0  0  0  0  0  0  0  0  0  0
    3.9160    2.0630   19.5520 C   0  0  0  0  0  0  0  0  0  0  0  0
    5.4210    0.9600   21.0930 C   0  0  0  0  0  0  0  0  0  0  0  0
   12.3064    1.8183   23.0783 C   0  0  0  0  0  0  0  0  0  0  0  0
   10.6067    3.1489   21.9933 C   0  0  0  0  0  0  0  0  0  0  0  0
    8.9960   -2.3380   25.5320 C   0  0  0  0  0  0  0  0  0  0  0  0
    9.6730   -3.4710   23.5300 C   0  0  0  0  0  0  0  0  0  0  0  0
    9.0720   -1.1280   24.8640 C   0  0  0  0  0  0  0  0  0  0  0  0
    9.7200   -2.2600   22.8630 C   0  0  0  0  0  0  0  0  0  0  0  0
    4.6890    1.6810   18.4640 C   0  0  0  0  0  0  0  0  0  0  0  0
    6.1790    0.5730   19.9990 C   0  0  0  0  0  0  0  0  0  0  0  0
    9.3070   -3.5340   24.8780 C   0  0  0  0  0  0  0  0  0  0  0  0
   10.9611    2.1180   22.8635 C   0  0  0  0  0  0  0  0  0  0  0  0
    9.3350   -1.0880   23.5010 C   0  0  0  0  0  0  0  0  0  0  0  0
    5.8300    0.9190   18.6970 C   0  0  0  0  0  0  0  0  0  0  0  0
    7.3170   -0.1610   19.8550 C   0  0  0  0  0  0  0  0  0  0  0  0
    9.0420    0.3700   21.5280 C   0  0  0  0  0  0  0  0  0  0  0  0
    9.2507   -4.8268   25.5895 C   0  0  0  0  0  0  0  0  0  0  0  0
    9.8870    1.3260   23.5730 C   0  0  0  0  0  0  0  0  0  0  0  0
    9.4560    0.1560   22.8130 C   0  0  2  0  0  0  0  0  0  0  0  0
    7.6390   -0.2680   18.5410 N   0  0  0  0  0  0  0  0  0  0  0  0
    6.7580    0.3810   17.8350 N   0  0  0  0  0  0  0  0  0  0  0  0
    8.1890   -0.7180   20.8700 N   0  0  0  0  0  0  0  0  0  0  0  0
    9.2690    1.4140   20.9380 O   0  0  0  0  0  0  0  0  0  0  0  0
   13.7143    4.1504   21.0437 H   0  0  0  0  0  0  0  0  0  0  0  0
    3.6468    2.0173   21.6825 H   0  0  0  0  0  0  0  0  0  0  0  0
   14.3446    2.3166   22.5913 H   0  0  0  0  0  0  0  0  0  0  0  0
   11.3212    4.6833   20.6614 H   0  0  0  0  0  0  0  0  0  0  0  0
    3.0153    2.6527   19.3907 H   0  0  0  0  0  0  0  0  0  0  0  0
    5.7015    0.6980   22.1071 H   0  0  0  0  0  0  0  0  0  0  0  0
   12.5919    1.0166   23.7545 H   0  0  0  0  0  0  0  0  0  0  0  0
    9.5611    3.3895   21.8196 H   0  0  0  0  0  0  0  0  0  0  0  0
    8.6904   -2.3557   26.5808 H   0  0  0  0  0  0  0  0  0  0  0  0
    9.9249   -4.3911   22.9935 H   0  0  0  0  0  0  0  0  0  0  0  0
    8.9209   -0.1987   25.4207 H   0  0  0  0  0  0  0  0  0  0  0  0
   10.0640   -2.2315   21.8255 H   0  0  0  0  0  0  0  0  0  0  0  0
    4.4064    1.9744   17.4453 H   0  0  0  0  0  0  0  0  0  0  0  0
    8.2506   -5.2684   25.5009 H   0  0  0  0  0  0  0  0  0  0  0  0
    9.9820   -5.5375   25.1832 H   0  0  0  0  0  0  0  0  0  0  0  0
    9.4843   -4.7055   26.6554 H   0  0  0  0  0  0  0  0  0  0  0  0
   10.2455    1.0419   24.5710 H   0  0  0  0  0  0  0  0  0  0  0  0
    9.0345    1.9965   23.7496 H   0  0  0  0  0  0  0  0  0  0  0  0
   10.7927   -0.1029   22.4279 H   0  0  0  0  0  0  0  0  0  0  0  0
    6.8044    0.4388   16.8592 H   0  0  0  0  0  0  0  0  0  0  0  0
    8.2434   -1.5614   21.0991 H   0  0  0  0  0  0  0  0  0  0  0  0
  1  3  1  0  0  0  0
  1  4  2  0  0  0  0
  2  5  1  0  0  0  0
  2  6  2  0  0  0  0
  3  7  2  0  0  0  0
  4  8  1  0  0  0  0
  5 13  2  0  0  0  0
  6 14  1  0  0  0  0
  7 16  1  0  0  0  0
  8 16  2  0  0  0  0
  9 11  2  0  0  0  0
  9 15  1  0  0  0  0
 10 12  1  0  0  0  0
 10 15  2  0  0  0  0
 11 17  1  0  0  0  0
 12 17  2  0  0  0  0
 13 18  1  0  0  0  0
 14 18  2  0  0  0  0
 14 19  1  0  0  0  0
 15 21  1  0  0  0  0
 16 22  1  0  0  0  0
 17 23  1  0  0  0  0
 18 25  1  0  0  0  0
 19 24  2  0  0  0  0
 19 26  1  0  0  0  0
 20 23  1  0  0  0  0
 20 26  1  0  0  0  0
 20 27  2  0  0  0  0
 22 23  1  6  0  0  0
 24 25  1  0  0  0  0
  1 28  1  0  0  0  0
  2 29  1  0  0  0  0
  3 30  1  0  0  0  0
  4 31  1  0  0  0  0
  5 32  1  0  0  0  0
  6 33  1  0  0  0  0
  7 34  1  0  0  0  0
  8 35  1  0  0  0  0
  9 36  1  0  0  0  0
 10 37  1  0  0  0  0
 11 38  1  0  0  0  0
 12 39  1  0  0  0  0
 13 40  1  0  0  0  0
 21 41  1  0  0  0  0
 21 42  1  0  0  0  0
 21 43  1  0  0  0  0
 22 44  1  0  0  0  0
 22 45  1  0  0  0  0
 23 46  1  0  0  0  0
 25 47  1  0  0  0  0
 26 48  1  0  0  0  0
M  END
> <clash_score>
0.6163884981584906

> <docking_score>
-8.397126197814941

> <overlap_score>
0.9163944125175476

$$$$
BENZO_236_1
  -OEChem-08222022183D

 45 48  0     1  0  0  0  0  0999 V2000
    4.2750    1.7050   20.8490 C   0  0  0  0  0  0  0  0  0  0  0  0
    3.9160    2.0630   19.5520 C   0  0  0  0  0  0  0  0  0  0  0  0
    5.4210    0.9600   21.0930 C   0  0  0  0  0  0  0  0  0  0  0  0
    8.9960   -2.3380   25.5320 C   0  0  0  0  0  0  0  0  0  0  0  0
    9.6730   -3.4710   23.5300 C   0  0  0  0  0  0  0  0  0  0  0  0
    9.0720   -1.1280   24.8640 C   0  0  0  0  0  0  0  0  0  0  0  0
    9.7200   -2.2600   22.8630 C   0  0  0  0  0  0  0  0  0  0  0  0
    4.6890    1.6810   18.4640 C   0  0  0  0  0  0  0  0  0  0  0  0
   12.3398    0.5029   23.4216 C   0  0  0  0  0  0  0  0  0  0  0  0
   13.6291    0.9843   23.3622 C   0  0  0  0  0  0  0  0  0  0  0  0
   11.9713    2.7968   23.4917 C   0  0  0  0  0  0  0  0  0  0  0  0
    6.1790    0.5730   19.9990 C   0  0  0  0  0  0  0  0  0  0  0  0
    9.3070   -3.5340   24.8780 C   0  0  0  0  0  0  0  0  0  0  0  0
    9.3350   -1.0880   23.5010 C   0  0  0  0  0  0  0  0  0  0  0  0
   11.3794    1.5528   23.4964 C   0  0  0  0  0  0  0  0  0  0  0  0
    5.8300    0.9190   18.6970 C   0  0  0  0  0  0  0  0  0  0  0  0
    7.3170   -0.1610   19.8550 C   0  0  0  0  0  0  0  0  0  0  0  0
    9.0420    0.3700   21.5280 C   0  0  0  0  0  0  0  0  0  0  0  0
    9.2507   -4.8268   25.5895 C   0  0  0  0  0  0  0  0  0  0  0  0
    9.8870    1.3260   23.5730 C   0  0  0  0  0  0  0  0  0  0  0  0
    9.4560    0.1560   22.8130 C   0  0  1  0  0  0  0  0  0  0  0  0
    7.6390   -0.2680   18.5410 N   0  0  0  0  0  0  0  0  0  0  0  0
    6.7580    0.3810   17.8350 N   0  0  0  0  0  0  0  0  0  0  0  0
    8.1890   -0.7180   20.8700 N   0  0  0  0  0  0  0  0  0  0  0  0
    9.2690    1.4140   20.9380 O   0  0  0  0  0  0  0  0  0  0  0  0
   13.6781    2.6957   23.3969 S   0  0  0  0  0  0  0  0  0  0  0  0
    3.6468    2.0173   21.6825 H   0  0  0  0  0  0  0  0  0  0  0  0
    3.0153    2.6527   19.3907 H   0  0  0  0  0  0  0  0  0  0  0  0
    5.7015    0.6980   22.1071 H   0  0  0  0  0  0  0  0  0  0  0  0
    8.6904   -2.3557   26.5808 H   0  0  0  0  0  0  0  0  0  0  0  0
    9.9249   -4.3911   22.9935 H   0  0  0  0  0  0  0  0  0  0  0  0
    8.9209   -0.1987   25.4207 H   0  0  0  0  0  0  0  0  0  0  0  0
   10.0640   -2.2315   21.8255 H   0  0  0  0  0  0  0  0  0  0  0  0
    4.4064    1.9744   17.4453 H   0  0  0  0  0  0  0  0  0  0  0  0
   12.1014   -0.5532   23.4119 H   0  0  0  0  0  0  0  0  0  0  0  0
   14.5445    0.4131   23.3009 H   0  0  0  0  0  0  0  0  0  0  0  0
   11.4871    3.7623   23.5403 H   0  0  0  0  0  0  0  0  0  0  0  0
    8.2506   -5.2684   25.5009 H   0  0  0  0  0  0  0  0  0  0  0  0
    9.9820   -5.5375   25.1832 H   0  0  0  0  0  0  0  0  0  0  0  0
    9.4843   -4.7055   26.6554 H   0  0  0  0  0  0  0  0  0  0  0  0
    9.5854    1.2495   24.6258 H   0  0  0  0  0  0  0  0  0  0  0  0
    9.3886    2.2282   23.1920 H   0  0  0  0  0  0  0  0  0  0  0  0
    8.0686    0.4964   23.2745 H   0  0  0  0  0  0  0  0  0  0  0  0
    6.8044    0.4388   16.8592 H   0  0  0  0  0  0  0  0  0  0  0  0
    8.2434   -1.5614   21.0991 H   0  0  0  0  0  0  0  0  0  0  0  0
  1  2  1  0  0  0  0
  1  3  2  0  0  0  0
  2  8  2  0  0  0  0
  3 12  1  0  0  0  0
  4  6  2  0  0  0  0
  4 13  1  0  0  0  0
  5  7  1  0  0  0  0
  5 13  2  0  0  0  0
  6 14  1  0  0  0  0
  7 14  2  0  0  0  0
  8 16  1  0  0  0  0
  9 10  2  0  0  0  0
  9 15  1  0  0  0  0
 10 26  1  0  0  0  0
 11 15  2  0  0  0  0
 11 26  1  0  0  0  0
 12 16  2  0  0  0  0
 12 17  1  0  0  0  0
 13 19  1  0  0  0  0
 14 21  1  0  0  0  0
 15 20  1  0  0  0  0
 16 23  1  0  0  0  0
 17 22  2  0  0  0  0
 17 24  1  0  0  0  0
 18 21  1  0  0  0  0
 18 24  1  0  0  0  0
 18 25  2  0  0  0  0
 20 21  1  1  0  0  0
 22 23  1  0  0  0  0
  1 27  1  0  0  0  0
  2 28  1  0  0  0  0
  3 29  1  0  0  0  0
  4 30  1  0  0  0  0
  5 31  1  0  0  0  0
  6 32  1  0  0  0  0
  7 33  1  0  0  0  0
  8 34  1  0  0  0  0
  9 35  1  0  0  0  0
 10 36  1  0  0  0  0
 11 37  1  0  0  0  0
 19 38  1  0  0  0  0
 19 39  1  0  0  0  0
 19 40  1  0  0  0  0
 20 41  1  0  0  0  0
 20 42  1  0  0  0  0
 21 43  1  0  0  0  0
 23 44  1  0  0  0  0
 24 45  1  0  0  0  0
M  END
> <clash_score>
0

> <docking_score>
-8.941095352172852

> <overlap_score>
0.9454269409179688

$$$$
BENZO_236_2
  -OEChem-08222022183D

 45 48  0     1  0  0  0  0  0999 V2000
    4.2750    1.7050   20.8490 C   0  0  0  0  0  0  0  0  0  0  0  0
    3.9160    2.0630   19.5520 C   0  0  0  0  0  0  0  0  0  0  0  0
    5.4210    0.9600   21.0930 C   0  0  0  0  0  0  0  0  0  0  0  0
    8.9960   -2.3380   25.5320 C   0  0  0  0  0  0  0  0  0  0  0  0
    9.6730   -3.4710   23.5300 C   0  0  0  0  0  0  0  0  0  0  0  0
    9.0720   -1.1280   24.8640 C   0  0  0  0  0  0  0  0  0  0  0  0
    9.7200   -2.2600   22.8630 C   0  0  0  0  0  0  0  0  0  0  0  0
    4.6890    1.6810   18.4640 C   0  0  0  0  0  0  0  0  0  0  0  0
   12.3907    0.6679   23.6950 C   0  0  0  0  0  0  0  0  0  0  0  0
   13.4189    0.5308   24.6014 C   0  0  0  0  0  0  0  0  0  0  0  0
   11.3314    1.2632   25.6763 C   0  0  0  0  0  0  0  0  0  0  0  0
    6.1790    0.5730   19.9990 C   0  0  0  0  0  0  0  0  0  0  0  0
    9.3070   -3.5340   24.8780 C   0  0  0  0  0  0  0  0  0  0  0  0
    9.3350   -1.0880   23.5010 C   0  0  0  0  0  0  0  0  0  0  0  0
   11.1814    1.0923   24.3176 C   0  0  0  0  0  0  0  0  0  0  0  0
    5.8300    0.9190   18.6970 C   0  0  0  0  0  0  0  0  0  0  0  0
    7.3170   -0.1610   19.8550 C   0  0  0  0  0  0  0  0  0  0  0  0
    9.0420    0.3700   21.5280 C   0  0  0  0  0  0  0  0  0  0  0  0
    9.2507   -4.8268   25.5895 C   0  0  0  0  0  0  0  0  0  0  0  0
    9.8870    1.3260   23.5730 C   0  0  0  0  0  0  0  0  0  0  0  0
    9.4560    0.1560   22.8130 C   0  0  2  0  0  0  0  0  0  0  0  0
    7.6390   -0.2680   18.5410 N   0  0  0  0  0  0  0  0  0  0  0  0
    6.7580    0.3810   17.8350 N   0  0  0  0  0  0  0  0  0  0  0  0
    8.1890   -0.7180   20.8700 N   0  0  0  0  0  0  0  0  0  0  0  0
    9.2690    1.4140   20.9380 O   0  0  0  0  0  0  0  0  0  0  0  0
   12.9250    0.9128   26.1959 S   0  0  0  0  0  0  0  0  0  0  0  0
    3.6468    2.0173   21.6825 H   0  0  0  0  0  0  0  0  0  0  0  0
    3.0153    2.6527   19.3907 H   0  0  0  0  0  0  0  0  0  0  0  0
    5.7015    0.6980   22.1071 H   0  0  0  0  0  0  0  0  0  0  0  0
    8.6904   -2.3557   26.5808 H   0  0  0  0  0  0  0  0  0  0  0  0
    9.9249   -4.3911   22.9935 H   0  0  0  0  0  0  0  0  0  0  0  0
    8.9209   -0.1987   25.4207 H   0  0  0  0  0  0  0  0  0  0  0  0
   10.0640   -2.2315   21.8255 H   0  0  0  0  0  0  0  0  0  0  0  0
    4.4064    1.9744   17.4453 H   0  0  0  0  0  0  0  0  0  0  0  0
   12.5049    0.4716   22.6364 H   0  0  0  0  0  0  0  0  0  0  0  0
   14.4362    0.2239   24.4037 H   0  0  0  0  0  0  0  0  0  0  0  0
   10.5839    1.5757   26.3924 H   0  0  0  0  0  0  0  0  0  0  0  0
    8.2506   -5.2684   25.5009 H   0  0  0  0  0  0  0  0  0  0  0  0
    9.9820   -5.5375   25.1832 H   0  0  0  0  0  0  0  0  0  0  0  0
    9.4843   -4.7055   26.6554 H   0  0  0  0  0  0  0  0  0  0  0  0
    9.1131    1.6463   24.2828 H   0  0  0  0  0  0  0  0  0  0  0  0
   10.0354    2.1807   22.8984 H   0  0  0  0  0  0  0  0  0  0  0  0
   10.7927   -0.1029   22.4279 H   0  0  0  0  0  0  0  0  0  0  0  0
    6.8044    0.4388   16.8592 H   0  0  0  0  0  0  0  0  0  0  0  0
    8.2434   -1.5614   21.0991 H   0  0  0  0  0  0  0  0  0  0  0  0
  1  2  1  0  0  0  0
  1  3  2  0  0  0  0
  2  8  2  0  0  0  0
  3 12  1  0  0  0  0
  4  6  2  0  0  0  0
  4 13  1  0  0  0  0
  5  7  1  0  0  0  0
  5 13  2  0  0  0  0
  6 14  1  0  0  0  0
  7 14  2  0  0  0  0
  8 16  1  0  0  0  0
  9 10  2  0  0  0  0
  9 15  1  0  0  0  0
 10 26  1  0  0  0  0
 11 15  2  0  0  0  0
 11 26  1  0  0  0  0
 12 16  2  0  0  0  0
 12 17  1  0  0  0  0
 13 19  1  0  0  0  0
 14 21  1  0  0  0  0
 15 20  1  0  0  0  0
 16 23  1  0  0  0  0
 17 22  2  0  0  0  0
 17 24  1  0  0  0  0
 18 21  1  0  0  0  0
 18 24  1  0  0  0  0
 18 25  2  0  0  0  0
 20 21  1  6  0  0  0
 22 23  1  0  0  0  0
  1 27  1  0  0  0  0
  2 28  1  0  0  0  0
  3 29  1  0  0  0  0
  4 30  1  0  0  0  0
  5 31  1  0  0  0  0
  6 32  1  0  0  0  0
  7 33  1  0  0  0  0
  8 34  1  0  0  0  0
  9 35  1  0  0  0  0
 10 36  1  0  0  0  0
 11 37  1  0  0  0  0
 19 38  1  0  0  0  0
 19 39  1  0  0  0  0
 19 40  1  0  0  0  0
 20 41  1  0  0  0  0
 20 42  1  0  0  0  0
 21 43  1  0  0  0  0
 23 44  1  0  0  0  0
 24 45  1  0  0  0  0
M  END
> <clash_score>
0.6216896927623251

> <docking_score>
-6.826964378356934

> <overlap_score>
0.8681580424308777

$$$$
BENZO_234_1
  -OEChem-08222022183D

 60 64  0     1  0  0  0  0  0999 V2000
    4.2750    1.7050   20.8490 C   0  0  0  0  0  0  0  0  0  0  0  0
    3.9160    2.0630   19.5520 C   0  0  0  0  0  0  0  0  0  0  0  0
   13.2943    2.5807   22.4505 C   0  0  0  0  0  0  0  0  0  0  0  0
    5.4210    0.9600   21.0930 C   0  0  0  0  0  0  0  0  0  0  0  0
   12.3047    1.8379   23.0944 C   0  0  0  0  0  0  0  0  0  0  0  0
    9.0720   -1.1280   24.8640 C   0  0  0  0  0  0  0  0  0  0  0  0
    9.7200   -2.2600   22.8630 C   0  0  0  0  0  0  0  0  0  0  0  0
    4.6890    1.6810   18.4640 C   0  0  0  0  0  0  0  0  0  0  0  0
    8.9960   -2.3380   25.5320 C   0  0  0  0  0  0  0  0  0  0  0  0
    9.6730   -3.4710   23.5300 C   0  0  0  0  0  0  0  0  0  0  0  0
   12.9381    3.6176   21.5882 C   0  0  0  0  0  0  0  0  0  0  0  0
   10.6025    3.1690   22.0135 C   0  0  0  0  0  0  0  0  0  0  0  0
    6.1790    0.5730   19.9990 C   0  0  0  0  0  0  0  0  0  0  0  0
    9.3350   -1.0880   23.5010 C   0  0  0  0  0  0  0  0  0  0  0  0
   10.9588    2.1321   22.8759 C   0  0  0  0  0  0  0  0  0  0  0  0
    5.8300    0.9190   18.6970 C   0  0  0  0  0  0  0  0  0  0  0  0
    9.3070   -3.5340   24.8780 C   0  0  0  0  0  0  0  0  0  0  0  0
   11.5922    3.9117   21.3697 C   0  0  0  0  0  0  0  0  0  0  0  0
    7.3170   -0.1610   19.8550 C   0  0  0  0  0  0  0  0  0  0  0  0
    9.0420    0.3700   21.5280 C   0  0  0  0  0  0  0  0  0  0  0  0
    7.3637   -6.1365   27.1885 C   0  0  0  0  0  0  0  0  0  0  0  0
    8.1962   -4.9739   27.7340 C   0  0  0  0  0  0  0  0  0  0  0  0
    7.1943   -6.0395   25.6706 C   0  0  0  0  0  0  0  0  0  0  0  0
    9.5197   -4.8493   26.9795 C   0  0  0  0  0  0  0  0  0  0  0  0
    8.5443   -5.8838   24.9636 C   0  0  0  0  0  0  0  0  0  0  0  0
    9.8870    1.3260   23.5730 C   0  0  0  0  0  0  0  0  0  0  0  0
    9.4560    0.1560   22.8130 C   0  0  1  0  0  0  0  0  0  0  0  0
    7.6390   -0.2680   18.5410 N   0  0  0  0  0  0  0  0  0  0  0  0
    6.7580    0.3810   17.8350 N   0  0  0  0  0  0  0  0  0  0  0  0
    9.2563   -4.7385   25.5420 N   0  0  0  0  0  0  0  0  0  0  0  0
    8.1890   -0.7180   20.8700 N   0  0  0  0  0  0  0  0  0  0  0  0
    9.2690    1.4140   20.9380 O   0  0  0  0  0  0  0  0  0  0  0  0
   11.1532    5.1904   20.3048 Cl  0  0  0  0  0  0  0  0  0  0  0  0
    3.6468    2.0173   21.6825 H   0  0  0  0  0  0  0  0  0  0  0  0
    3.0153    2.6527   19.3907 H   0  0  0  0  0  0  0  0  0  0  0  0
   14.3422    2.3512   22.6208 H   0  0  0  0  0  0  0  0  0  0  0  0
    5.7015    0.6980   22.1071 H   0  0  0  0  0  0  0  0  0  0  0  0
   12.5914    1.0317   23.7645 H   0  0  0  0  0  0  0  0  0  0  0  0
    8.9214   -0.1986   25.4206 H   0  0  0  0  0  0  0  0  0  0  0  0
   10.0622   -2.2326   21.8251 H   0  0  0  0  0  0  0  0  0  0  0  0
    4.4064    1.9744   17.4453 H   0  0  0  0  0  0  0  0  0  0  0  0
    8.6882   -2.3542   26.5803 H   0  0  0  0  0  0  0  0  0  0  0  0
    9.9258   -4.3896   22.9914 H   0  0  0  0  0  0  0  0  0  0  0  0
   13.7201    4.1879   21.0929 H   0  0  0  0  0  0  0  0  0  0  0  0
    9.5518    3.3947   21.8469 H   0  0  0  0  0  0  0  0  0  0  0  0
    7.8484   -7.0905   27.4464 H   0  0  0  0  0  0  0  0  0  0  0  0
    6.3761   -6.1442   27.6721 H   0  0  0  0  0  0  0  0  0  0  0  0
    7.6308   -4.0428   27.6404 H   0  0  0  0  0  0  0  0  0  0  0  0
    8.3917   -5.1316   28.7967 H   0  0  0  0  0  0  0  0  0  0  0  0
    6.6889   -6.9376   25.3006 H   0  0  0  0  0  0  0  0  0  0  0  0
    6.5516   -5.1860   25.4256 H   0  0  0  0  0  0  0  0  0  0  0  0
   10.0494   -3.9643   27.3413 H   0  0  0  0  0  0  0  0  0  0  0  0
   10.1432   -5.7258   27.1775 H   0  0  0  0  0  0  0  0  0  0  0  0
    9.1338   -6.7931   25.0863 H   0  0  0  0  0  0  0  0  0  0  0  0
    8.3657   -5.7262   23.8995 H   0  0  0  0  0  0  0  0  0  0  0  0
   10.2417    1.0375   24.5711 H   0  0  0  0  0  0  0  0  0  0  0  0
    9.0279    1.9881   23.7492 H   0  0  0  0  0  0  0  0  0  0  0  0
   10.7949   -0.0994   22.4253 H   0  0  0  0  0  0  0  0  0  0  0  0
    6.8044    0.4388   16.8592 H   0  0  0  0  0  0  0  0  0  0  0  0
    8.2585   -1.5522   21.1129 H   0  0  0  0  0  0  0  0  0  0  0  0
  1  2  1  0  0  0  0
  1  4  2  0  0  0  0
  2  8  2  0  0  0  0
  3  5  2  0  0  0  0
  3 11  1  0  0  0  0
  4 13  1  0  0  0  0
  5 15  1  0  0  0  0
  6  9  2  0  0  0  0
  6 14  1  0  0  0  0
  7 10  1  0  0  0  0
  7 14  2  0  0  0  0
  8 16  1  0  0  0  0
  9 17  1  0  0  0  0
 10 17  2  0  0  0  0
 11 18  2  0  0  0  0
 12 15  2  0  0  0  0
 12 18  1  0  0  0  0
 13 16  2  0  0  0  0
 13 19  1  0  0  0  0
 14 27  1  0  0  0  0
 15 26  1  0  0  0  0
 16 29  1  0  0  0  0
 17 30  1  0  0  0  0
 18 33  1  0  0  0  0
 19 28  2  0  0  0  0
 19 31  1  0  0  0  0
 20 27  1  1  0  0  0
 20 31  1  0  0  0  0
 20 32  2  0  0  0  0
 21 22  1  0  0  0  0
 21 23  1  0  0  0  0
 22 24  1  0  0  0  0
 23 25  1  0  0  0  0
 24 30  1  0  0  0  0
 25 30  1  0  0  0  0
 26 27  1  0  0  0  0
 28 29  1  0  0  0  0
  1 34  1  0  0  0  0
  2 35  1  0  0  0  0
  3 36  1  0  0  0  0
  4 37  1  0  0  0  0
  5 38  1  0  0  0  0
  6 39  1  0  0  0  0
  7 40  1  0  0  0  0
  8 41  1  0  0  0  0
  9 42  1  0  0  0  0
 10 43  1  0  0  0  0
 11 44  1  0  0  0  0
 12 45  1  0  0  0  0
 21 46  1  0  0  0  0
 21 47  1  0  0  0  0
 22 48  1  0  0  0  0
 22 49  1  0  0  0  0
 23 50  1  0  0  0  0
 23 51  1  0  0  0  0
 24 52  1  0  0  0  0
 24 53  1  0  0  0  0
 25 54  1  0  0  0  0
 25 55  1  0  0  0  0
 26 56  1  0  0  0  0
 26 57  1  0  0  0  0
 27 58  1  0  0  0  0
 29 59  1  0  0  0  0
 31 60  1  0  0  0  0
M  END
> <clash_score>
2.1999107557461057

> <docking_score>
-7.466540336608887

> <overlap_score>
0.9694707989692688

$$$$
BENZO_235_2
  -OEChem-08222022183D

 60 64  0     1  0  0  0  0  0999 V2000
    4.2750    1.7050   20.8490 C   0  0  0  0  0  0  0  0  0  0  0  0
    3.9160    2.0630   19.5520 C   0  0  0  0  0  0  0  0  0  0  0  0
    5.4210    0.9600   21.0930 C   0  0  0  0  0  0  0  0  0  0  0  0
    9.0720   -1.1280   24.8640 C   0  0  0  0  0  0  0  0  0  0  0  0
    9.7200   -2.2600   22.8630 C   0  0  0  0  0  0  0  0  0  0  0  0
    4.6890    1.6810   18.4640 C   0  0  0  0  0  0  0  0  0  0  0  0
    8.9960   -2.3380   25.5320 C   0  0  0  0  0  0  0  0  0  0  0  0
    9.6730   -3.4710   23.5300 C   0  0  0  0  0  0  0  0  0  0  0  0
   12.3549    1.9792   22.9728 C   0  0  0  0  0  0  0  0  0  0  0  0
   10.7877    3.1780   22.0023 C   0  0  0  0  0  0  0  0  0  0  0  0
    6.1790    0.5730   19.9990 C   0  0  0  0  0  0  0  0  0  0  0  0
    9.3350   -1.0880   23.5010 C   0  0  0  0  0  0  0  0  0  0  0  0
   10.9588    2.1321   22.8759 C   0  0  0  0  0  0  0  0  0  0  0  0
    5.8300    0.9190   18.6970 C   0  0  0  0  0  0  0  0  0  0  0  0
    9.3070   -3.5340   24.8780 C   0  0  0  0  0  0  0  0  0  0  0  0
    7.3170   -0.1610   19.8550 C   0  0  0  0  0  0  0  0  0  0  0  0
    9.0420    0.3700   21.5280 C   0  0  0  0  0  0  0  0  0  0  0  0
    7.3637   -6.1365   27.1885 C   0  0  0  0  0  0  0  0  0  0  0  0
    8.1962   -4.9739   27.7340 C   0  0  0  0  0  0  0  0  0  0  0  0
    7.1943   -6.0395   25.6706 C   0  0  0  0  0  0  0  0  0  0  0  0
    9.5197   -4.8493   26.9795 C   0  0  0  0  0  0  0  0  0  0  0  0
    8.5443   -5.8838   24.9636 C   0  0  0  0  0  0  0  0  0  0  0  0
   12.3765    4.6444   20.7357 C   0  0  0  0  0  0  0  0  0  0  0  0
    9.8870    1.3260   23.5730 C   0  0  0  0  0  0  0  0  0  0  0  0
    9.4560    0.1560   22.8130 C   0  0  2  0  0  0  0  0  0  0  0  0
   13.0232    2.8576   22.2206 N   0  0  0  0  0  0  0  0  0  0  0  0
    7.6390   -0.2680   18.5410 N   0  0  0  0  0  0  0  0  0  0  0  0
    6.7580    0.3810   17.8350 N   0  0  0  0  0  0  0  0  0  0  0  0
   12.0428    3.5725   21.6427 N   0  0  0  0  0  0  0  0  0  0  0  0
    9.2563   -4.7385   25.5420 N   0  0  0  0  0  0  0  0  0  0  0  0
    8.1890   -0.7180   20.8700 N   0  0  0  0  0  0  0  0  0  0  0  0
    9.2690    1.4140   20.9380 O   0  0  0  0  0  0  0  0  0  0  0  0
    3.6468    2.0173   21.6825 H   0  0  0  0  0  0  0  0  0  0  0  0
    3.0153    2.6527   19.3907 H   0  0  0  0  0  0  0  0  0  0  0  0
    5.7015    0.6980   22.1071 H   0  0  0  0  0  0  0  0  0  0  0  0
    8.9214   -0.1986   25.4206 H   0  0  0  0  0  0  0  0  0  0  0  0
   10.0622   -2.2326   21.8251 H   0  0  0  0  0  0  0  0  0  0  0  0
    4.4064    1.9744   17.4453 H   0  0  0  0  0  0  0  0  0  0  0  0
    8.6882   -2.3542   26.5803 H   0  0  0  0  0  0  0  0  0  0  0  0
    9.9258   -4.3896   22.9914 H   0  0  0  0  0  0  0  0  0  0  0  0
   12.9154    1.2645   23.5587 H   0  0  0  0  0  0  0  0  0  0  0  0
    9.9018    3.6623   21.6145 H   0  0  0  0  0  0  0  0  0  0  0  0
    7.8484   -7.0905   27.4464 H   0  0  0  0  0  0  0  0  0  0  0  0
    6.3761   -6.1442   27.6721 H   0  0  0  0  0  0  0  0  0  0  0  0
    7.6308   -4.0428   27.6404 H   0  0  0  0  0  0  0  0  0  0  0  0
    8.3917   -5.1316   28.7967 H   0  0  0  0  0  0  0  0  0  0  0  0
    6.6889   -6.9376   25.3006 H   0  0  0  0  0  0  0  0  0  0  0  0
    6.5516   -5.1860   25.4256 H   0  0  0  0  0  0  0  0  0  0  0  0
   10.0494   -3.9643   27.3413 H   0  0  0  0  0  0  0  0  0  0  0  0
   10.1432   -5.7258   27.1775 H   0  0  0  0  0  0  0  0  0  0  0  0
    9.1338   -6.7931   25.0863 H   0  0  0  0  0  0  0  0  0  0  0  0
    8.3657   -5.7262   23.8995 H   0  0  0  0  0  0  0  0  0  0  0  0
   12.4726    5.5632   21.3202 H   0  0  0  0  0  0  0  0  0  0  0  0
   13.3178    4.4131   20.2294 H   0  0  0  0  0  0  0  0  0  0  0  0
   11.5839    4.7460   19.9892 H   0  0  0  0  0  0  0  0  0  0  0  0
   10.2417    1.0375   24.5711 H   0  0  0  0  0  0  0  0  0  0  0  0
    9.0279    1.9881   23.7492 H   0  0  0  0  0  0  0  0  0  0  0  0
   10.7949   -0.0994   22.4253 H   0  0  0  0  0  0  0  0  0  0  0  0
    6.8044    0.4388   16.8592 H   0  0  0  0  0  0  0  0  0  0  0  0
    8.2585   -1.5522   21.1129 H   0  0  0  0  0  0  0  0  0  0  0  0
  1  2  1  0  0  0  0
  1  3  2  0  0  0  0
  2  6  2  0  0  0  0
  3 11  1  0  0  0  0
  4  7  2  0  0  0  0
  4 12  1  0  0  0  0
  5  8  1  0  0  0  0
  5 12  2  0  0  0  0
  6 14  1  0  0  0  0
  7 15  1  0  0  0  0
  8 15  2  0  0  0  0
  9 13  1  0  0  0  0
  9 26  2  0  0  0  0
 10 13  2  0  0  0  0
 10 29  1  0  0  0  0
 11 14  2  0  0  0  0
 11 16  1  0  0  0  0
 12 25  1  0  0  0  0
 13 24  1  0  0  0  0
 14 28  1  0  0  0  0
 15 30  1  0  0  0  0
 16 27  2  0  0  0  0
 16 31  1  0  0  0  0
 17 25  1  0  0  0  0
 17 31  1  0  0  0  0
 17 32  2  0  0  0  0
 18 19  1  0  0  0  0
 18 20  1  0  0  0  0
 19 21  1  0  0  0  0
 20 22  1  0  0  0  0
 21 30  1  0  0  0  0
 22 30  1  0  0  0  0
 23 29  1  0  0  0  0
 24 25  1  6  0  0  0
 26 29  1  0  0  0  0
 27 28  1  0  0  0  0
  1 33  1  0  0  0  0
  2 34  1  0  0  0  0
  3 35  1  0  0  0  0
  4 36  1  0  0  0  0
  5 37  1  0  0  0  0
  6 38  1  0  0  0  0
  7 39  1  0  0  0  0
  8 40  1  0  0  0  0
  9 41  1  0  0  0  0
 10 42  1  0  0  0  0
 18 43  1  0  0  0  0
 18 44  1  0  0  0  0
 19 45  1  0  0  0  0
 19 46  1  0  0  0  0
 20 47  1  0  0  0  0
 20 48  1  0  0  0  0
 21 49  1  0  0  0  0
 21 50  1  0  0  0  0
 22 51  1  0  0  0  0
 22 52  1  0  0  0  0
 23 53  1  0  0  0  0
 23 54  1  0  0  0  0
 23 55  1  0  0  0  0
 24 56  1  0  0  0  0
 24 57  1  0  0  0  0
 25 58  1  0  0  0  0
 28 59  1  0  0  0  0
 31 60  1  0  0  0  0
M  END
> <clash_score>
0

> <docking_score>
-6.9399566650390625

> <overlap_score>
0.9639798402786255

$$$$
BENZO_234_2
  -OEChem-08222022183D

 60 64  0     1  0  0  0  0  0999 V2000
    4.2750    1.7050   20.8490 C   0  0  0  0  0  0  0  0  0  0  0  0
    3.9160    2.0630   19.5520 C   0  0  0  0  0  0  0  0  0  0  0  0
   13.6270    0.7091   23.2981 C   0  0  0  0  0  0  0  0  0  0  0  0
    5.4210    0.9600   21.0930 C   0  0  0  0  0  0  0  0  0  0  0  0
   12.2510    0.4886   23.3574 C   0  0  0  0  0  0  0  0  0  0  0  0
    9.0720   -1.1280   24.8640 C   0  0  0  0  0  0  0  0  0  0  0  0
    9.7200   -2.2600   22.8630 C   0  0  0  0  0  0  0  0  0  0  0  0
    4.6890    1.6810   18.4640 C   0  0  0  0  0  0  0  0  0  0  0  0
    8.9960   -2.3380   25.5320 C   0  0  0  0  0  0  0  0  0  0  0  0
    9.6730   -3.4710   23.5300 C   0  0  0  0  0  0  0  0  0  0  0  0
   14.1301    2.0068   23.3918 C   0  0  0  0  0  0  0  0  0  0  0  0
   11.8810    2.8633   23.6037 C   0  0  0  0  0  0  0  0  0  0  0  0
    6.1790    0.5730   19.9990 C   0  0  0  0  0  0  0  0  0  0  0  0
    9.3350   -1.0880   23.5010 C   0  0  0  0  0  0  0  0  0  0  0  0
   11.3780    1.5657   23.5101 C   0  0  0  0  0  0  0  0  0  0  0  0
    5.8300    0.9190   18.6970 C   0  0  0  0  0  0  0  0  0  0  0  0
    9.3070   -3.5340   24.8780 C   0  0  0  0  0  0  0  0  0  0  0  0
   13.2570    3.0839   23.5445 C   0  0  0  0  0  0  0  0  0  0  0  0
    7.3170   -0.1610   19.8550 C   0  0  0  0  0  0  0  0  0  0  0  0
    9.0420    0.3700   21.5280 C   0  0  0  0  0  0  0  0  0  0  0  0
    7.3637   -6.1365   27.1885 C   0  0  0  0  0  0  0  0  0  0  0  0
    8.1962   -4.9739   27.7340 C   0  0  0  0  0  0  0  0  0  0  0  0
    7.1943   -6.0395   25.6706 C   0  0  0  0  0  0  0  0  0  0  0  0
    9.5197   -4.8493   26.9795 C   0  0  0  0  0  0  0  0  0  0  0  0
    8.5443   -5.8838   24.9636 C   0  0  0  0  0  0  0  0  0  0  0  0
    9.8870    1.3260   23.5730 C   0  0  0  0  0  0  0  0  0  0  0  0
    9.4560    0.1560   22.8130 C   0  0  2  0  0  0  0  0  0  0  0  0
    7.6390   -0.2680   18.5410 N   0  0  0  0  0  0  0  0  0  0  0  0
    6.7580    0.3810   17.8350 N   0  0  0  0  0  0  0  0  0  0  0  0
    9.2563   -4.7385   25.5420 N   0  0  0  0  0  0  0  0  0  0  0  0
    8.1890   -0.7180   20.8700 N   0  0  0  0  0  0  0  0  0  0  0  0
    9.2690    1.4140   20.9380 O   0  0  0  0  0  0  0  0  0  0  0  0
   13.8782    4.6848   23.6588 Cl  0  0  0  0  0  0  0  0  0  0  0  0
    3.6468    2.0173   21.6825 H   0  0  0  0  0  0  0  0  0  0  0  0
    3.0153    2.6527   19.3907 H   0  0  0  0  0  0  0  0  0  0  0  0
   14.3065   -0.1299   23.1790 H   0  0  0  0  0  0  0  0  0  0  0  0
    5.7015    0.6980   22.1071 H   0  0  0  0  0  0  0  0  0  0  0  0
   11.8679   -0.5259   23.2835 H   0  0  0  0  0  0  0  0  0  0  0  0
    8.9214   -0.1986   25.4206 H   0  0  0  0  0  0  0  0  0  0  0  0
   10.0622   -2.2326   21.8251 H   0  0  0  0  0  0  0  0  0  0  0  0
    4.4064    1.9744   17.4453 H   0  0  0  0  0  0  0  0  0  0  0  0
    8.6882   -2.3542   26.5803 H   0  0  0  0  0  0  0  0  0  0  0  0
    9.9258   -4.3896   22.9914 H   0  0  0  0  0  0  0  0  0  0  0  0
   15.2048    2.1638   23.3438 H   0  0  0  0  0  0  0  0  0  0  0  0
   11.1962    3.6997   23.7233 H   0  0  0  0  0  0  0  0  0  0  0  0
    7.8484   -7.0905   27.4464 H   0  0  0  0  0  0  0  0  0  0  0  0
    6.3761   -6.1442   27.6721 H   0  0  0  0  0  0  0  0  0  0  0  0
    7.6308   -4.0428   27.6404 H   0  0  0  0  0  0  0  0  0  0  0  0
    8.3917   -5.1316   28.7967 H   0  0  0  0  0  0  0  0  0  0  0  0
    6.6889   -6.9376   25.3006 H   0  0  0  0  0  0  0  0  0  0  0  0
    6.5516   -5.1860   25.4256 H   0  0  0  0  0  0  0  0  0  0  0  0
   10.0494   -3.9643   27.3413 H   0  0  0  0  0  0  0  0  0  0  0  0
   10.1432   -5.7258   27.1775 H   0  0  0  0  0  0  0  0  0  0  0  0
    9.1338   -6.7931   25.0863 H   0  0  0  0  0  0  0  0  0  0  0  0
    8.3657   -5.7262   23.8995 H   0  0  0  0  0  0  0  0  0  0  0  0
    9.5760    1.2490   24.6231 H   0  0  0  0  0  0  0  0  0  0  0  0
    9.3844    2.2230   23.1853 H   0  0  0  0  0  0  0  0  0  0  0  0
    8.0674    0.5009   23.2732 H   0  0  0  0  0  0  0  0  0  0  0  0
    6.8044    0.4388   16.8592 H   0  0  0  0  0  0  0  0  0  0  0  0
    8.2585   -1.5522   21.1129 H   0  0  0  0  0  0  0  0  0  0  0  0
  1  2  1  0  0  0  0
  1  4  2  0  0  0  0
  2  8  2  0  0  0  0
  3  5  2  0  0  0  0
  3 11  1  0  0  0  0
  4 13  1  0  0  0  0
  5 15  1  0  0  0  0
  6  9  2  0  0  0  0
  6 14  1  0  0  0  0
  7 10  1  0  0  0  0
  7 14  2  0  0  0  0
  8 16  1  0  0  0  0
  9 17  1  0  0  0  0
 10 17  2  0  0  0  0
 11 18  2  0  0  0  0
 12 15  2  0  0  0  0
 12 18  1  0  0  0  0
 13 16  2  0  0  0  0
 13 19  1  0  0  0  0
 14 27  1  0  0  0  0
 15 26  1  0  0  0  0
 16 29  1  0  0  0  0
 17 30  1  0  0  0  0
 18 33  1  0  0  0  0
 19 28  2  0  0  0  0
 19 31  1  0  0  0  0
 20 27  1  6  0  0  0
 20 31  1  0  0  0  0
 20 32  2  0  0  0  0
 21 22  1  0  0  0  0
 21 23  1  0  0  0  0
 22 24  1  0  0  0  0
 23 25  1  0  0  0  0
 24 30  1  0  0  0  0
 25 30  1  0  0  0  0
 26 27  1  0  0  0  0
 28 29  1  0  0  0  0
  1 34  1  0  0  0  0
  2 35  1  0  0  0  0
  3 36  1  0  0  0  0
  4 37  1  0  0  0  0
  5 38  1  0  0  0  0
  6 39  1  0  0  0  0
  7 40  1  0  0  0  0
  8 41  1  0  0  0  0
  9 42  1  0  0  0  0
 10 43  1  0  0  0  0
 11 44  1  0  0  0  0
 12 45  1  0  0  0  0
 21 46  1  0  0  0  0
 21 47  1  0  0  0  0
 22 48  1  0  0  0  0
 22 49  1  0  0  0  0
 23 50  1  0  0  0  0
 23 51  1  0  0  0  0
 24 52  1  0  0  0  0
 24 53  1  0  0  0  0
 25 54  1  0  0  0  0
 25 55  1  0  0  0  0
 26 56  1  0  0  0  0
 26 57  1  0  0  0  0
 27 58  1  0  0  0  0
 29 59  1  0  0  0  0
 31 60  1  0  0  0  0
M  END
> <clash_score>
0

> <docking_score>
-7.88582706451416

> <overlap_score>
1.0154396295547485

$$$$
BENZO_235_1
  -OEChem-08222022183D

 60 64  0     1  0  0  0  0  0999 V2000
    4.2750    1.7050   20.8490 C   0  0  0  0  0  0  0  0  0  0  0  0
    3.9160    2.0630   19.5520 C   0  0  0  0  0  0  0  0  0  0  0  0
    5.4210    0.9600   21.0930 C   0  0  0  0  0  0  0  0  0  0  0  0
    9.0720   -1.1280   24.8640 C   0  0  0  0  0  0  0  0  0  0  0  0
    9.7200   -2.2600   22.8630 C   0  0  0  0  0  0  0  0  0  0  0  0
    4.6890    1.6810   18.4640 C   0  0  0  0  0  0  0  0  0  0  0  0
    8.9960   -2.3380   25.5320 C   0  0  0  0  0  0  0  0  0  0  0  0
    9.6730   -3.4710   23.5300 C   0  0  0  0  0  0  0  0  0  0  0  0
   12.0594    2.7949   23.5898 C   0  0  0  0  0  0  0  0  0  0  0  0
   12.3731    0.6302   23.3648 C   0  0  0  0  0  0  0  0  0  0  0  0
    6.1790    0.5730   19.9990 C   0  0  0  0  0  0  0  0  0  0  0  0
    9.3350   -1.0880   23.5010 C   0  0  0  0  0  0  0  0  0  0  0  0
   11.3780    1.5657   23.5101 C   0  0  0  0  0  0  0  0  0  0  0  0
    5.8300    0.9190   18.6970 C   0  0  0  0  0  0  0  0  0  0  0  0
    9.3070   -3.5340   24.8780 C   0  0  0  0  0  0  0  0  0  0  0  0
    7.3170   -0.1610   19.8550 C   0  0  0  0  0  0  0  0  0  0  0  0
    9.0420    0.3700   21.5280 C   0  0  0  0  0  0  0  0  0  0  0  0
    7.3637   -6.1365   27.1885 C   0  0  0  0  0  0  0  0  0  0  0  0
    8.1962   -4.9739   27.7340 C   0  0  0  0  0  0  0  0  0  0  0  0
    7.1943   -6.0395   25.6706 C   0  0  0  0  0  0  0  0  0  0  0  0
    9.5197   -4.8493   26.9795 C   0  0  0  0  0  0  0  0  0  0  0  0
    8.5443   -5.8838   24.9636 C   0  0  0  0  0  0  0  0  0  0  0  0
   14.8715    0.7757   23.2396 C   0  0  0  0  0  0  0  0  0  0  0  0
    9.8870    1.3260   23.5730 C   0  0  0  0  0  0  0  0  0  0  0  0
    9.4560    0.1560   22.8130 C   0  0  1  0  0  0  0  0  0  0  0  0
   13.3850    2.6563   23.5026 N   0  0  0  0  0  0  0  0  0  0  0  0
    7.6390   -0.2680   18.5410 N   0  0  0  0  0  0  0  0  0  0  0  0
    6.7580    0.3810   17.8350 N   0  0  0  0  0  0  0  0  0  0  0  0
   13.5445    1.3288   23.3666 N   0  0  0  0  0  0  0  0  0  0  0  0
    9.2563   -4.7385   25.5420 N   0  0  0  0  0  0  0  0  0  0  0  0
    8.1890   -0.7180   20.8700 N   0  0  0  0  0  0  0  0  0  0  0  0
    9.2690    1.4140   20.9380 O   0  0  0  0  0  0  0  0  0  0  0  0
    3.6468    2.0173   21.6825 H   0  0  0  0  0  0  0  0  0  0  0  0
    3.0153    2.6527   19.3907 H   0  0  0  0  0  0  0  0  0  0  0  0
    5.7015    0.6980   22.1071 H   0  0  0  0  0  0  0  0  0  0  0  0
    8.9214   -0.1986   25.4206 H   0  0  0  0  0  0  0  0  0  0  0  0
   10.0622   -2.2326   21.8251 H   0  0  0  0  0  0  0  0  0  0  0  0
    4.4064    1.9744   17.4453 H   0  0  0  0  0  0  0  0  0  0  0  0
    8.6882   -2.3542   26.5803 H   0  0  0  0  0  0  0  0  0  0  0  0
    9.9258   -4.3896   22.9914 H   0  0  0  0  0  0  0  0  0  0  0  0
   11.6476    3.7871   23.7088 H   0  0  0  0  0  0  0  0  0  0  0  0
   12.3482   -0.4464   23.2641 H   0  0  0  0  0  0  0  0  0  0  0  0
    7.8484   -7.0905   27.4464 H   0  0  0  0  0  0  0  0  0  0  0  0
    6.3761   -6.1442   27.6721 H   0  0  0  0  0  0  0  0  0  0  0  0
    7.6308   -4.0428   27.6404 H   0  0  0  0  0  0  0  0  0  0  0  0
    8.3917   -5.1316   28.7967 H   0  0  0  0  0  0  0  0  0  0  0  0
    6.6889   -6.9376   25.3006 H   0  0  0  0  0  0  0  0  0  0  0  0
    6.5516   -5.1860   25.4256 H   0  0  0  0  0  0  0  0  0  0  0  0
   10.0494   -3.9643   27.3413 H   0  0  0  0  0  0  0  0  0  0  0  0
   10.1432   -5.7258   27.1775 H   0  0  0  0  0  0  0  0  0  0  0  0
    9.1338   -6.7931   25.0863 H   0  0  0  0  0  0  0  0  0  0  0  0
    8.3657   -5.7262   23.8995 H   0  0  0  0  0  0  0  0  0  0  0  0
   15.1241    0.7456   22.1764 H   0  0  0  0  0  0  0  0  0  0  0  0
   15.5818    1.4045   23.7836 H   0  0  0  0  0  0  0  0  0  0  0  0
   14.8855   -0.2314   23.6656 H   0  0  0  0  0  0  0  0  0  0  0  0
    9.5760    1.2490   24.6231 H   0  0  0  0  0  0  0  0  0  0  0  0
    9.3844    2.2230   23.1853 H   0  0  0  0  0  0  0  0  0  0  0  0
    8.0674    0.5009   23.2732 H   0  0  0  0  0  0  0  0  0  0  0  0
    6.8044    0.4388   16.8592 H   0  0  0  0  0  0  0  0  0  0  0  0
    8.2585   -1.5522   21.1129 H   0  0  0  0  0  0  0  0  0  0  0  0
  1  2  1  0  0  0  0
  1  3  2  0  0  0  0
  2  6  2  0  0  0  0
  3 11  1  0  0  0  0
  4  7  2  0  0  0  0
  4 12  1  0  0  0  0
  5  8  1  0  0  0  0
  5 12  2  0  0  0  0
  6 14  1  0  0  0  0
  7 15  1  0  0  0  0
  8 15  2  0  0  0  0
  9 13  1  0  0  0  0
  9 26  2  0  0  0  0
 10 13  2  0  0  0  0
 10 29  1  0  0  0  0
 11 14  2  0  0  0  0
 11 16  1  0  0  0  0
 12 25  1  0  0  0  0
 13 24  1  0  0  0  0
 14 28  1  0  0  0  0
 15 30  1  0  0  0  0
 16 27  2  0  0  0  0
 16 31  1  0  0  0  0
 17 25  1  0  0  0  0
 17 31  1  0  0  0  0
 17 32  2  0  0  0  0
 18 19  1  0  0  0  0
 18 20  1  0  0  0  0
 19 21  1  0  0  0  0
 20 22  1  0  0  0  0
 21 30  1  0  0  0  0
 22 30  1  0  0  0  0
 23 29  1  0  0  0  0
 24 25  1  1  0  0  0
 26 29  1  0  0  0  0
 27 28  1  0  0  0  0
  1 33  1  0  0  0  0
  2 34  1  0  0  0  0
  3 35  1  0  0  0  0
  4 36  1  0  0  0  0
  5 37  1  0  0  0  0
  6 38  1  0  0  0  0
  7 39  1  0  0  0  0
  8 40  1  0  0  0  0
  9 41  1  0  0  0  0
 10 42  1  0  0  0  0
 18 43  1  0  0  0  0
 18 44  1  0  0  0  0
 19 45  1  0  0  0  0
 19 46  1  0  0  0  0
 20 47  1  0  0  0  0
 20 48  1  0  0  0  0
 21 49  1  0  0  0  0
 21 50  1  0  0  0  0
 22 51  1  0  0  0  0
 22 52  1  0  0  0  0
 23 53  1  0  0  0  0
 23 54  1  0  0  0  0
 23 55  1  0  0  0  0
 24 56  1  0  0  0  0
 24 57  1  0  0  0  0
 25 58  1  0  0  0  0
 28 59  1  0  0  0  0
 31 60  1  0  0  0  0
M  END
> <clash_score>
0

> <docking_score>
-8.195533752441406

> <overlap_score>
1.0146235227584839

$$$$
BENZO_238_1
  -OEChem-08222022183D

 48 51  0     1  0  0  0  0  0999 V2000
    4.2750    1.7050   20.8490 C   0  0  0  0  0  0  0  0  0  0  0  0
    3.9160    2.0630   19.5520 C   0  0  0  0  0  0  0  0  0  0  0  0
   13.6189    0.6768   23.2648 C   0  0  0  0  0  0  0  0  0  0  0  0
    5.4210    0.9600   21.0930 C   0  0  0  0  0  0  0  0  0  0  0  0
   12.2417    0.4681   23.3366 C   0  0  0  0  0  0  0  0  0  0  0  0
    8.9960   -2.3380   25.5320 C   0  0  0  0  0  0  0  0  0  0  0  0
    9.6730   -3.4710   23.5300 C   0  0  0  0  0  0  0  0  0  0  0  0
    9.0720   -1.1280   24.8640 C   0  0  0  0  0  0  0  0  0  0  0  0
    9.7200   -2.2600   22.8630 C   0  0  0  0  0  0  0  0  0  0  0  0
    4.6890    1.6810   18.4640 C   0  0  0  0  0  0  0  0  0  0  0  0
   14.1339    1.9702   23.3527 C   0  0  0  0  0  0  0  0  0  0  0  0
   11.8943    2.8462   23.5844 C   0  0  0  0  0  0  0  0  0  0  0  0
    6.1790    0.5730   19.9990 C   0  0  0  0  0  0  0  0  0  0  0  0
    9.3070   -3.5340   24.8780 C   0  0  0  0  0  0  0  0  0  0  0  0
    9.3350   -1.0880   23.5010 C   0  0  0  0  0  0  0  0  0  0  0  0
   11.3794    1.5528   23.4964 C   0  0  0  0  0  0  0  0  0  0  0  0
    5.8300    0.9190   18.6970 C   0  0  0  0  0  0  0  0  0  0  0  0
   13.2716    3.0548   23.5125 C   0  0  0  0  0  0  0  0  0  0  0  0
    7.3170   -0.1610   19.8550 C   0  0  0  0  0  0  0  0  0  0  0  0
    9.0420    0.3700   21.5280 C   0  0  0  0  0  0  0  0  0  0  0  0
    9.2507   -4.8268   25.5895 C   0  0  0  0  0  0  0  0  0  0  0  0
    9.8870    1.3260   23.5730 C   0  0  0  0  0  0  0  0  0  0  0  0
    9.4560    0.1560   22.8130 C   0  0  1  0  0  0  0  0  0  0  0  0
    7.6390   -0.2680   18.5410 N   0  0  0  0  0  0  0  0  0  0  0  0
    6.7580    0.3810   17.8350 N   0  0  0  0  0  0  0  0  0  0  0  0
    8.1890   -0.7180   20.8700 N   0  0  0  0  0  0  0  0  0  0  0  0
    9.2690    1.4140   20.9380 O   0  0  0  0  0  0  0  0  0  0  0  0
   13.9075    4.6504   23.6198 Cl  0  0  0  0  0  0  0  0  0  0  0  0
    3.6468    2.0173   21.6825 H   0  0  0  0  0  0  0  0  0  0  0  0
    3.0153    2.6527   19.3907 H   0  0  0  0  0  0  0  0  0  0  0  0
   14.2901   -0.1681   23.1402 H   0  0  0  0  0  0  0  0  0  0  0  0
    5.7015    0.6980   22.1071 H   0  0  0  0  0  0  0  0  0  0  0  0
   11.8492   -0.5431   23.2671 H   0  0  0  0  0  0  0  0  0  0  0  0
    8.6904   -2.3557   26.5808 H   0  0  0  0  0  0  0  0  0  0  0  0
    9.9249   -4.3911   22.9935 H   0  0  0  0  0  0  0  0  0  0  0  0
    8.9209   -0.1987   25.4207 H   0  0  0  0  0  0  0  0  0  0  0  0
   10.0640   -2.2315   21.8255 H   0  0  0  0  0  0  0  0  0  0  0  0
    4.4064    1.9744   17.4453 H   0  0  0  0  0  0  0  0  0  0  0  0
   15.2095    2.1179   23.2949 H   0  0  0  0  0  0  0  0  0  0  0  0
   11.2178    3.6885   23.7094 H   0  0  0  0  0  0  0  0  0  0  0  0
    8.2506   -5.2684   25.5009 H   0  0  0  0  0  0  0  0  0  0  0  0
    9.9820   -5.5375   25.1832 H   0  0  0  0  0  0  0  0  0  0  0  0
    9.4843   -4.7055   26.6554 H   0  0  0  0  0  0  0  0  0  0  0  0
    9.5854    1.2495   24.6258 H   0  0  0  0  0  0  0  0  0  0  0  0
    9.3886    2.2282   23.1920 H   0  0  0  0  0  0  0  0  0  0  0  0
    8.0686    0.4964   23.2745 H   0  0  0  0  0  0  0  0  0  0  0  0
    6.8044    0.4388   16.8592 H   0  0  0  0  0  0  0  0  0  0  0  0
    8.2434   -1.5614   21.0991 H   0  0  0  0  0  0  0  0  0  0  0  0
  1  2  1  0  0  0  0
  1  4  2  0  0  0  0
  2 10  2  0  0  0  0
  3  5  2  0  0  0  0
  3 11  1  0  0  0  0
  4 13  1  0  0  0  0
  5 16  1  0  0  0  0
  6  8  2  0  0  0  0
  6 14  1  0  0  0  0
  7  9  1  0  0  0  0
  7 14  2  0  0  0  0
  8 15  1  0  0  0  0
  9 15  2  0  0  0  0
 10 17  1  0  0  0  0
 11 18  2  0  0  0  0
 12 16  2  0  0  0  0
 12 18  1  0  0  0  0
 13 17  2  0  0  0  0
 13 19  1  0  0  0  0
 14 21  1  0  0  0  0
 15 23  1  0  0  0  0
 16 22  1  0  0  0  0
 17 25  1  0  0  0  0
 18 28  1  0  0  0  0
 19 24  2  0  0  0  0
 19 26  1  0  0  0  0
 20 23  1  0  0  0  0
 20 26  1  0  0  0  0
 20 27  2  0  0  0  0
 22 23  1  1  0  0  0
 24 25  1  0  0  0  0
  1 29  1  0  0  0  0
  2 30  1  0  0  0  0
  3 31  1  0  0  0  0
  4 32  1  0  0  0  0
  5 33  1  0  0  0  0
  6 34  1  0  0  0  0
  7 35  1  0  0  0  0
  8 36  1  0  0  0  0
  9 37  1  0  0  0  0
 10 38  1  0  0  0  0
 11 39  1  0  0  0  0
 12 40  1  0  0  0  0
 21 41  1  0  0  0  0
 21 42  1  0  0  0  0
 21 43  1  0  0  0  0
 22 44  1  0  0  0  0
 22 45  1  0  0  0  0
 23 46  1  0  0  0  0
 25 47  1  0  0  0  0
 26 48  1  0  0  0  0
M  END
> <clash_score>
0

> <docking_score>
-8.186286926269531

> <overlap_score>
0.9629614949226379

$$$$
BENZO_238_2
  -OEChem-08222022183D

 48 51  0     1  0  0  0  0  0999 V2000
    4.2750    1.7050   20.8490 C   0  0  0  0  0  0  0  0  0  0  0  0
    3.9160    2.0630   19.5520 C   0  0  0  0  0  0  0  0  0  0  0  0
   13.2976    2.5464   22.4233 C   0  0  0  0  0  0  0  0  0  0  0  0
    5.4210    0.9600   21.0930 C   0  0  0  0  0  0  0  0  0  0  0  0
   12.3059    1.8167   23.0786 C   0  0  0  0  0  0  0  0  0  0  0  0
    8.9960   -2.3380   25.5320 C   0  0  0  0  0  0  0  0  0  0  0  0
    9.6730   -3.4710   23.5300 C   0  0  0  0  0  0  0  0  0  0  0  0
    9.0720   -1.1280   24.8640 C   0  0  0  0  0  0  0  0  0  0  0  0
    9.7200   -2.2600   22.8630 C   0  0  0  0  0  0  0  0  0  0  0  0
    4.6890    1.6810   18.4640 C   0  0  0  0  0  0  0  0  0  0  0  0
   12.9446    3.5777   21.5528 C   0  0  0  0  0  0  0  0  0  0  0  0
   10.6080    3.1492   21.9930 C   0  0  0  0  0  0  0  0  0  0  0  0
    6.1790    0.5730   19.9990 C   0  0  0  0  0  0  0  0  0  0  0  0
    9.3070   -3.5340   24.8780 C   0  0  0  0  0  0  0  0  0  0  0  0
    9.3350   -1.0880   23.5010 C   0  0  0  0  0  0  0  0  0  0  0  0
   10.9611    2.1180   22.8635 C   0  0  0  0  0  0  0  0  0  0  0  0
    5.8300    0.9190   18.6970 C   0  0  0  0  0  0  0  0  0  0  0  0
   11.5998    3.8790   21.3377 C   0  0  0  0  0  0  0  0  0  0  0  0
    7.3170   -0.1610   19.8550 C   0  0  0  0  0  0  0  0  0  0  0  0
    9.0420    0.3700   21.5280 C   0  0  0  0  0  0  0  0  0  0  0  0
    9.2507   -4.8268   25.5895 C   0  0  0  0  0  0  0  0  0  0  0  0
    9.8870    1.3260   23.5730 C   0  0  0  0  0  0  0  0  0  0  0  0
    9.4560    0.1560   22.8130 C   0  0  2  0  0  0  0  0  0  0  0  0
    7.6390   -0.2680   18.5410 N   0  0  0  0  0  0  0  0  0  0  0  0
    6.7580    0.3810   17.8350 N   0  0  0  0  0  0  0  0  0  0  0  0
    8.1890   -0.7180   20.8700 N   0  0  0  0  0  0  0  0  0  0  0  0
    9.2690    1.4140   20.9380 O   0  0  0  0  0  0  0  0  0  0  0  0
   11.1647    5.1506   20.2627 Cl  0  0  0  0  0  0  0  0  0  0  0  0
    3.6468    2.0173   21.6825 H   0  0  0  0  0  0  0  0  0  0  0  0
    3.0153    2.6527   19.3907 H   0  0  0  0  0  0  0  0  0  0  0  0
   14.3448    2.3114   22.5909 H   0  0  0  0  0  0  0  0  0  0  0  0
    5.7015    0.6980   22.1071 H   0  0  0  0  0  0  0  0  0  0  0  0
   12.5902    1.0148   23.7550 H   0  0  0  0  0  0  0  0  0  0  0  0
    8.6904   -2.3557   26.5808 H   0  0  0  0  0  0  0  0  0  0  0  0
    9.9249   -4.3911   22.9935 H   0  0  0  0  0  0  0  0  0  0  0  0
    8.9209   -0.1987   25.4207 H   0  0  0  0  0  0  0  0  0  0  0  0
   10.0640   -2.2315   21.8255 H   0  0  0  0  0  0  0  0  0  0  0  0
    4.4064    1.9744   17.4453 H   0  0  0  0  0  0  0  0  0  0  0  0
   13.7282    4.1379   21.0487 H   0  0  0  0  0  0  0  0  0  0  0  0
    9.5581    3.3806   21.8290 H   0  0  0  0  0  0  0  0  0  0  0  0
    8.2506   -5.2684   25.5009 H   0  0  0  0  0  0  0  0  0  0  0  0
    9.9820   -5.5375   25.1832 H   0  0  0  0  0  0  0  0  0  0  0  0
    9.4843   -4.7055   26.6554 H   0  0  0  0  0  0  0  0  0  0  0  0
   10.2455    1.0419   24.5710 H   0  0  0  0  0  0  0  0  0  0  0  0
    9.0345    1.9965   23.7496 H   0  0  0  0  0  0  0  0  0  0  0  0
   10.7927   -0.1029   22.4279 H   0  0  0  0  0  0  0  0  0  0  0  0
    6.8044    0.4388   16.8592 H   0  0  0  0  0  0  0  0  0  0  0  0
    8.2434   -1.5614   21.0991 H   0  0  0  0  0  0  0  0  0  0  0  0
  1  2  1  0  0  0  0
  1  4  2  0  0  0  0
  2 10  2  0  0  0  0
  3  5  2  0  0  0  0
  3 11  1  0  0  0  0
  4 13  1  0  0  0  0
  5 16  1  0  0  0  0
  6  8  2  0  0  0  0
  6 14  1  0  0  0  0
  7  9  1  0  0  0  0
  7 14  2  0  0  0  0
  8 15  1  0  0  0  0
  9 15  2  0  0  0  0
 10 17  1  0  0  0  0
 11 18  2  0  0  0  0
 12 16  2  0  0  0  0
 12 18  1  0  0  0  0
 13 17  2  0  0  0  0
 13 19  1  0  0  0  0
 14 21  1  0  0  0  0
 15 23  1  0  0  0  0
 16 22  1  0  0  0  0
 17 25  1  0  0  0  0
 18 28  1  0  0  0  0
 19 24  2  0  0  0  0
 19 26  1  0  0  0  0
 20 23  1  0  0  0  0
 20 26  1  0  0  0  0
 20 27  2  0  0  0  0
 22 23  1  6  0  0  0
 24 25  1  0  0  0  0
  1 29  1  0  0  0  0
  2 30  1  0  0  0  0
  3 31  1  0  0  0  0
  4 32  1  0  0  0  0
  5 33  1  0  0  0  0
  6 34  1  0  0  0  0
  7 35  1  0  0  0  0
  8 36  1  0  0  0  0
  9 37  1  0  0  0  0
 10 38  1  0  0  0  0
 11 39  1  0  0  0  0
 12 40  1  0  0  0  0
 21 41  1  0  0  0  0
 21 42  1  0  0  0  0
 21 43  1  0  0  0  0
 22 44  1  0  0  0  0
 22 45  1  0  0  0  0
 23 46  1  0  0  0  0
 25 47  1  0  0  0  0
 26 48  1  0  0  0  0
M  END
> <clash_score>
2.210296696509743

> <docking_score>
-7.6881561279296875

> <overlap_score>
0.91526859998703

$$$$
BENZO_239_1
  -OEChem-08222022183D

 48 51  0     1  0  0  0  0  0999 V2000
    4.2750    1.7050   20.8490 C   0  0  0  0  0  0  0  0  0  0  0  0
    3.9160    2.0630   19.5520 C   0  0  0  0  0  0  0  0  0  0  0  0
    5.4210    0.9600   21.0930 C   0  0  0  0  0  0  0  0  0  0  0  0
    8.9960   -2.3380   25.5320 C   0  0  0  0  0  0  0  0  0  0  0  0
    9.6730   -3.4710   23.5300 C   0  0  0  0  0  0  0  0  0  0  0  0
    9.0720   -1.1280   24.8640 C   0  0  0  0  0  0  0  0  0  0  0  0
    9.7200   -2.2600   22.8630 C   0  0  0  0  0  0  0  0  0  0  0  0
    4.6890    1.6810   18.4640 C   0  0  0  0  0  0  0  0  0  0  0  0
   12.0720    2.7762   23.5689 C   0  0  0  0  0  0  0  0  0  0  0  0
   12.3651    0.6087   23.3429 C   0  0  0  0  0  0  0  0  0  0  0  0
    6.1790    0.5730   19.9990 C   0  0  0  0  0  0  0  0  0  0  0  0
    9.3070   -3.5340   24.8780 C   0  0  0  0  0  0  0  0  0  0  0  0
    9.3350   -1.0880   23.5010 C   0  0  0  0  0  0  0  0  0  0  0  0
   11.3794    1.5528   23.4964 C   0  0  0  0  0  0  0  0  0  0  0  0
    5.8300    0.9190   18.6970 C   0  0  0  0  0  0  0  0  0  0  0  0
    7.3170   -0.1610   19.8550 C   0  0  0  0  0  0  0  0  0  0  0  0
    9.0420    0.3700   21.5280 C   0  0  0  0  0  0  0  0  0  0  0  0
    9.2507   -4.8268   25.5895 C   0  0  0  0  0  0  0  0  0  0  0  0
   14.8634    0.7326   23.1949 C   0  0  0  0  0  0  0  0  0  0  0  0
    9.8870    1.3260   23.5730 C   0  0  0  0  0  0  0  0  0  0  0  0
    9.4560    0.1560   22.8130 C   0  0  1  0  0  0  0  0  0  0  0  0
   13.3955    2.6261   23.4698 N   0  0  0  0  0  0  0  0  0  0  0  0
    7.6390   -0.2680   18.5410 N   0  0  0  0  0  0  0  0  0  0  0  0
    6.7580    0.3810   17.8350 N   0  0  0  0  0  0  0  0  0  0  0  0
   13.5424    1.2972   23.3335 N   0  0  0  0  0  0  0  0  0  0  0  0
    8.1890   -0.7180   20.8700 N   0  0  0  0  0  0  0  0  0  0  0  0
    9.2690    1.4140   20.9380 O   0  0  0  0  0  0  0  0  0  0  0  0
    3.6468    2.0173   21.6825 H   0  0  0  0  0  0  0  0  0  0  0  0
    3.0153    2.6527   19.3907 H   0  0  0  0  0  0  0  0  0  0  0  0
    5.7015    0.6980   22.1071 H   0  0  0  0  0  0  0  0  0  0  0  0
    8.6904   -2.3557   26.5808 H   0  0  0  0  0  0  0  0  0  0  0  0
    9.9249   -4.3911   22.9935 H   0  0  0  0  0  0  0  0  0  0  0  0
    8.9209   -0.1987   25.4207 H   0  0  0  0  0  0  0  0  0  0  0  0
   10.0640   -2.2315   21.8255 H   0  0  0  0  0  0  0  0  0  0  0  0
    4.4064    1.9744   17.4453 H   0  0  0  0  0  0  0  0  0  0  0  0
   11.6698    3.7720   23.6907 H   0  0  0  0  0  0  0  0  0  0  0  0
   12.3300   -0.4677   23.2433 H   0  0  0  0  0  0  0  0  0  0  0  0
    8.2506   -5.2684   25.5009 H   0  0  0  0  0  0  0  0  0  0  0  0
    9.9820   -5.5375   25.1832 H   0  0  0  0  0  0  0  0  0  0  0  0
    9.4843   -4.7055   26.6554 H   0  0  0  0  0  0  0  0  0  0  0  0
   15.1060    0.6995   22.1295 H   0  0  0  0  0  0  0  0  0  0  0  0
   15.5839    1.3558   23.7319 H   0  0  0  0  0  0  0  0  0  0  0  0
   14.8726   -0.2742   23.6217 H   0  0  0  0  0  0  0  0  0  0  0  0
    9.5854    1.2495   24.6258 H   0  0  0  0  0  0  0  0  0  0  0  0
    9.3886    2.2282   23.1920 H   0  0  0  0  0  0  0  0  0  0  0  0
    8.0686    0.4964   23.2745 H   0  0  0  0  0  0  0  0  0  0  0  0
    6.8044    0.4388   16.8592 H   0  0  0  0  0  0  0  0  0  0  0  0
    8.2434   -1.5614   21.0991 H   0  0  0  0  0  0  0  0  0  0  0  0
  1  2  1  0  0  0  0
  1  3  2  0  0  0  0
  2  8  2  0  0  0  0
  3 11  1  0  0  0  0
  4  6  2  0  0  0  0
  4 12  1  0  0  0  0
  5  7  1  0  0  0  0
  5 12  2  0  0  0  0
  6 13  1  0  0  0  0
  7 13  2  0  0  0  0
  8 15  1  0  0  0  0
  9 14  1  0  0  0  0
  9 22  2  0  0  0  0
 10 14  2  0  0  0  0
 10 25  1  0  0  0  0
 11 15  2  0  0  0  0
 11 16  1  0  0  0  0
 12 18  1  0  0  0  0
 13 21  1  0  0  0  0
 14 20  1  0  0  0  0
 15 24  1  0  0  0  0
 16 23  2  0  0  0  0
 16 26  1  0  0  0  0
 17 21  1  0  0  0  0
 17 26  1  0  0  0  0
 17 27  2  0  0  0  0
 19 25  1  0  0  0  0
 20 21  1  1  0  0  0
 22 25  1  0  0  0  0
 23 24  1  0  0  0  0
  1 28  1  0  0  0  0
  2 29  1  0  0  0  0
  3 30  1  0  0  0  0
  4 31  1  0  0  0  0
  5 32  1  0  0  0  0
  6 33  1  0  0  0  0
  7 34  1  0  0  0  0
  8 35  1  0  0  0  0
  9 36  1  0  0  0  0
 10 37  1  0  0  0  0
 18 38  1  0  0  0  0
 18 39  1  0  0  0  0
 18 40  1  0  0  0  0
 19 41  1  0  0  0  0
 19 42  1  0  0  0  0
 19 43  1  0  0  0  0
 20 44  1  0  0  0  0
 20 45  1  0  0  0  0
 21 46  1  0  0  0  0
 24 47  1  0  0  0  0
 26 48  1  0  0  0  0
M  END
> <clash_score>
0

> <docking_score>
-8.51754093170166

> <overlap_score>
0.9617199301719666

$$$$
BENZO_239_2
  -OEChem-08222022183D

 48 51  0     1  0  0  0  0  0999 V2000
    4.2750    1.7050   20.8490 C   0  0  0  0  0  0  0  0  0  0  0  0
    3.9160    2.0630   19.5520 C   0  0  0  0  0  0  0  0  0  0  0  0
    5.4210    0.9600   21.0930 C   0  0  0  0  0  0  0  0  0  0  0  0
    8.9960   -2.3380   25.5320 C   0  0  0  0  0  0  0  0  0  0  0  0
    9.6730   -3.4710   23.5300 C   0  0  0  0  0  0  0  0  0  0  0  0
    9.0720   -1.1280   24.8640 C   0  0  0  0  0  0  0  0  0  0  0  0
    9.7200   -2.2600   22.8630 C   0  0  0  0  0  0  0  0  0  0  0  0
    4.6890    1.6810   18.4640 C   0  0  0  0  0  0  0  0  0  0  0  0
   12.3565    1.9564   22.9554 C   0  0  0  0  0  0  0  0  0  0  0  0
   10.7932    3.1569   21.9808 C   0  0  0  0  0  0  0  0  0  0  0  0
    6.1790    0.5730   19.9990 C   0  0  0  0  0  0  0  0  0  0  0  0
    9.3070   -3.5340   24.8780 C   0  0  0  0  0  0  0  0  0  0  0  0
    9.3350   -1.0880   23.5010 C   0  0  0  0  0  0  0  0  0  0  0  0
   10.9611    2.1180   22.8635 C   0  0  0  0  0  0  0  0  0  0  0  0
    5.8300    0.9190   18.6970 C   0  0  0  0  0  0  0  0  0  0  0  0
    7.3170   -0.1610   19.8550 C   0  0  0  0  0  0  0  0  0  0  0  0
    9.0420    0.3700   21.5280 C   0  0  0  0  0  0  0  0  0  0  0  0
    9.2507   -4.8268   25.5895 C   0  0  0  0  0  0  0  0  0  0  0  0
   12.3862    4.6002   20.6933 C   0  0  0  0  0  0  0  0  0  0  0  0
    9.8870    1.3260   23.5730 C   0  0  0  0  0  0  0  0  0  0  0  0
    9.4560    0.1560   22.8130 C   0  0  2  0  0  0  0  0  0  0  0  0
   13.0274    2.8231   22.1920 N   0  0  0  0  0  0  0  0  0  0  0  0
    7.6390   -0.2680   18.5410 N   0  0  0  0  0  0  0  0  0  0  0  0
    6.7580    0.3810   17.8350 N   0  0  0  0  0  0  0  0  0  0  0  0
   12.0493    3.5392   21.6118 N   0  0  0  0  0  0  0  0  0  0  0  0
    8.1890   -0.7180   20.8700 N   0  0  0  0  0  0  0  0  0  0  0  0
    9.2690    1.4140   20.9380 O   0  0  0  0  0  0  0  0  0  0  0  0
    3.6468    2.0173   21.6825 H   0  0  0  0  0  0  0  0  0  0  0  0
    3.0153    2.6527   19.3907 H   0  0  0  0  0  0  0  0  0  0  0  0
    5.7015    0.6980   22.1071 H   0  0  0  0  0  0  0  0  0  0  0  0
    8.6904   -2.3557   26.5808 H   0  0  0  0  0  0  0  0  0  0  0  0
    9.9249   -4.3911   22.9935 H   0  0  0  0  0  0  0  0  0  0  0  0
    8.9209   -0.1987   25.4207 H   0  0  0  0  0  0  0  0  0  0  0  0
   10.0640   -2.2315   21.8255 H   0  0  0  0  0  0  0  0  0  0  0  0
    4.4064    1.9744   17.4453 H   0  0  0  0  0  0  0  0  0  0  0  0
   12.9148    1.2434   23.5455 H   0  0  0  0  0  0  0  0  0  0  0  0
    9.9088    3.6436   21.5925 H   0  0  0  0  0  0  0  0  0  0  0  0
    8.2506   -5.2684   25.5009 H   0  0  0  0  0  0  0  0  0  0  0  0
    9.9820   -5.5375   25.1832 H   0  0  0  0  0  0  0  0  0  0  0  0
    9.4843   -4.7055   26.6554 H   0  0  0  0  0  0  0  0  0  0  0  0
   12.4913    5.5238   21.2686 H   0  0  0  0  0  0  0  0  0  0  0  0
   13.3235    4.3577   20.1848 H   0  0  0  0  0  0  0  0  0  0  0  0
   11.5908    4.7003   19.9494 H   0  0  0  0  0  0  0  0  0  0  0  0
   10.2455    1.0419   24.5710 H   0  0  0  0  0  0  0  0  0  0  0  0
    9.0345    1.9965   23.7496 H   0  0  0  0  0  0  0  0  0  0  0  0
   10.7927   -0.1029   22.4279 H   0  0  0  0  0  0  0  0  0  0  0  0
    6.8044    0.4388   16.8592 H   0  0  0  0  0  0  0  0  0  0  0  0
    8.2434   -1.5614   21.0991 H   0  0  0  0  0  0  0  0  0  0  0  0
  1  2  1  0  0  0  0
  1  3  2  0  0  0  0
  2  8  2  0  0  0  0
  3 11  1  0  0  0  0
  4  6  2  0  0  0  0
  4 12  1  0  0  0  0
  5  7  1  0  0  0  0
  5 12  2  0  0  0  0
  6 13  1  0  0  0  0
  7 13  2  0  0  0  0
  8 15  1  0  0  0  0
  9 14  1  0  0  0  0
  9 22  2  0  0  0  0
 10 14  2  0  0  0  0
 10 25  1  0  0  0  0
 11 15  2  0  0  0  0
 11 16  1  0  0  0  0
 12 18  1  0  0  0  0
 13 21  1  0  0  0  0
 14 20  1  0  0  0  0
 15 24  1  0  0  0  0
 16 23  2  0  0  0  0
 16 26  1  0  0  0  0
 17 21  1  0  0  0  0
 17 26  1  0  0  0  0
 17 27  2  0  0  0  0
 19 25  1  0  0  0  0
 20 21  1  6  0  0  0
 22 25  1  0  0  0  0
 23 24  1  0  0  0  0
  1 28  1  0  0  0  0
  2 29  1  0  0  0  0
  3 30  1  0  0  0  0
  4 31  1  0  0  0  0
  5 32  1  0  0  0  0
  6 33  1  0  0  0  0
  7 34  1  0  0  0  0
  8 35  1  0  0  0  0
  9 36  1  0  0  0  0
 10 37  1  0  0  0  0
 18 38  1  0  0  0  0
 18 39  1  0  0  0  0
 18 40  1  0  0  0  0
 19 41  1  0  0  0  0
 19 42  1  0  0  0  0
 19 43  1  0  0  0  0
 20 44  1  0  0  0  0
 20 45  1  0  0  0  0
 21 46  1  0  0  0  0
 24 47  1  0  0  0  0
 26 48  1  0  0  0  0
M  END
> <clash_score>
0

> <docking_score>
-7.15296745300293

> <overlap_score>
0.9096473455429077

$$$$
BENZO_240_1
  -OEChem-08222022183D

 46 49  0     1  0  0  0  0  0999 V2000
    4.2750    1.7050   20.8490 C   0  0  0  0  0  0  0  0  0  0  0  0
    3.9160    2.0630   19.5520 C   0  0  0  0  0  0  0  0  0  0  0  0
    5.4210    0.9600   21.0930 C   0  0  0  0  0  0  0  0  0  0  0  0
    9.0720   -1.1280   24.8640 C   0  0  0  0  0  0  0  0  0  0  0  0
    9.7200   -2.2600   22.8630 C   0  0  0  0  0  0  0  0  0  0  0  0
    4.6890    1.6810   18.4640 C   0  0  0  0  0  0  0  0  0  0  0  0
    8.9960   -2.3380   25.5320 C   0  0  0  0  0  0  0  0  0  0  0  0
    9.6730   -3.4710   23.5300 C   0  0  0  0  0  0  0  0  0  0  0  0
   12.3398    0.5029   23.4216 C   0  0  0  0  0  0  0  0  0  0  0  0
   13.6291    0.9843   23.3622 C   0  0  0  0  0  0  0  0  0  0  0  0
   11.9713    2.7968   23.4917 C   0  0  0  0  0  0  0  0  0  0  0  0
    6.1790    0.5730   19.9990 C   0  0  0  0  0  0  0  0  0  0  0  0
    9.3350   -1.0880   23.5010 C   0  0  0  0  0  0  0  0  0  0  0  0
   11.3794    1.5528   23.4964 C   0  0  0  0  0  0  0  0  0  0  0  0
    5.8300    0.9190   18.6970 C   0  0  0  0  0  0  0  0  0  0  0  0
    9.3070   -3.5340   24.8780 C   0  0  0  0  0  0  0  0  0  0  0  0
    7.3170   -0.1610   19.8550 C   0  0  0  0  0  0  0  0  0  0  0  0
    9.0420    0.3700   21.5280 C   0  0  0  0  0  0  0  0  0  0  0  0
    9.5904   -5.8808   24.7806 C   0  0  0  0  0  0  0  0  0  0  0  0
    9.8870    1.3260   23.5730 C   0  0  0  0  0  0  0  0  0  0  0  0
    9.4560    0.1560   22.8130 C   0  0  1  0  0  0  0  0  0  0  0  0
    7.6390   -0.2680   18.5410 N   0  0  0  0  0  0  0  0  0  0  0  0
    6.7580    0.3810   17.8350 N   0  0  0  0  0  0  0  0  0  0  0  0
    8.1890   -0.7180   20.8700 N   0  0  0  0  0  0  0  0  0  0  0  0
    9.2690    1.4140   20.9380 O   0  0  0  0  0  0  0  0  0  0  0  0
    9.2567   -4.7121   25.5280 O   0  0  0  0  0  0  0  0  0  0  0  0
   13.6781    2.6957   23.3969 S   0  0  0  0  0  0  0  0  0  0  0  0
    3.6468    2.0173   21.6825 H   0  0  0  0  0  0  0  0  0  0  0  0
    3.0153    2.6527   19.3907 H   0  0  0  0  0  0  0  0  0  0  0  0
    5.7015    0.6980   22.1071 H   0  0  0  0  0  0  0  0  0  0  0  0
    8.9224   -0.1986   25.4209 H   0  0  0  0  0  0  0  0  0  0  0  0
   10.0638   -2.2321   21.8253 H   0  0  0  0  0  0  0  0  0  0  0  0
    4.4064    1.9744   17.4453 H   0  0  0  0  0  0  0  0  0  0  0  0
    8.6903   -2.3588   26.5807 H   0  0  0  0  0  0  0  0  0  0  0  0
    9.9258   -4.3917   22.9962 H   0  0  0  0  0  0  0  0  0  0  0  0
   12.1014   -0.5532   23.4119 H   0  0  0  0  0  0  0  0  0  0  0  0
   14.5445    0.4131   23.3009 H   0  0  0  0  0  0  0  0  0  0  0  0
   11.4871    3.7623   23.5403 H   0  0  0  0  0  0  0  0  0  0  0  0
    9.5095   -6.7607   25.4235 H   0  0  0  0  0  0  0  0  0  0  0  0
   10.6094   -5.7898   24.3961 H   0  0  0  0  0  0  0  0  0  0  0  0
    8.8947   -5.9784   23.9439 H   0  0  0  0  0  0  0  0  0  0  0  0
    9.5854    1.2495   24.6258 H   0  0  0  0  0  0  0  0  0  0  0  0
    9.3886    2.2282   23.1920 H   0  0  0  0  0  0  0  0  0  0  0  0
    8.0686    0.4964   23.2745 H   0  0  0  0  0  0  0  0  0  0  0  0
    6.8044    0.4388   16.8592 H   0  0  0  0  0  0  0  0  0  0  0  0
    8.2434   -1.5614   21.0991 H   0  0  0  0  0  0  0  0  0  0  0  0
  1  2  1  0  0  0  0
  1  3  2  0  0  0  0
  2  6  2  0  0  0  0
  3 12  1  0  0  0  0
  4  7  2  0  0  0  0
  4 13  1  0  0  0  0
  5  8  1  0  0  0  0
  5 13  2  0  0  0  0
  6 15  1  0  0  0  0
  7 16  1  0  0  0  0
  8 16  2  0  0  0  0
  9 10  2  0  0  0  0
  9 14  1  0  0  0  0
 10 27  1  0  0  0  0
 11 14  2  0  0  0  0
 11 27  1  0  0  0  0
 12 15  2  0  0  0  0
 12 17  1  0  0  0  0
 13 21  1  0  0  0  0
 14 20  1  0  0  0  0
 15 23  1  0  0  0  0
 16 26  1  0  0  0  0
 17 22  2  0  0  0  0
 17 24  1  0  0  0  0
 18 21  1  0  0  0  0
 18 24  1  0  0  0  0
 18 25  2  0  0  0  0
 19 26  1  0  0  0  0
 20 21  1  1  0  0  0
 22 23  1  0  0  0  0
  1 28  1  0  0  0  0
  2 29  1  0  0  0  0
  3 30  1  0  0  0  0
  4 31  1  0  0  0  0
  5 32  1  0  0  0  0
  6 33  1  0  0  0  0
  7 34  1  0  0  0  0
  8 35  1  0  0  0  0
  9 36  1  0  0  0  0
 10 37  1  0  0  0  0
 11 38  1  0  0  0  0
 19 39  1  0  0  0  0
 19 40  1  0  0  0  0
 19 41  1  0  0  0  0
 20 42  1  0  0  0  0
 20 43  1  0  0  0  0
 21 44  1  0  0  0  0
 23 45  1  0  0  0  0
 24 46  1  0  0  0  0
M  END
> <clash_score>
0

> <docking_score>
-8.647985458374023

> <overlap_score>
0.970275342464447

$$$$
BENZO_241_1
  -OEChem-08222022183D

 49 52  0     1  0  0  0  0  0999 V2000
   14.1341    1.9700   23.3555 C   0  0  0  0  0  0  0  0  0  0  0  0
    4.2750    1.7050   20.8490 C   0  0  0  0  0  0  0  0  0  0  0  0
   13.2717    3.0548   23.5141 C   0  0  0  0  0  0  0  0  0  0  0  0
   13.6192    0.6767   23.2672 C   0  0  0  0  0  0  0  0  0  0  0  0
    3.9160    2.0630   19.5520 C   0  0  0  0  0  0  0  0  0  0  0  0
    5.4210    0.9600   21.0930 C   0  0  0  0  0  0  0  0  0  0  0  0
   11.8943    2.8461   23.5846 C   0  0  0  0  0  0  0  0  0  0  0  0
   12.2418    0.4681   23.3377 C   0  0  0  0  0  0  0  0  0  0  0  0
    9.0720   -1.1280   24.8640 C   0  0  0  0  0  0  0  0  0  0  0  0
    9.7200   -2.2600   22.8630 C   0  0  0  0  0  0  0  0  0  0  0  0
    4.6890    1.6810   18.4640 C   0  0  0  0  0  0  0  0  0  0  0  0
    8.9960   -2.3380   25.5320 C   0  0  0  0  0  0  0  0  0  0  0  0
    9.6730   -3.4710   23.5300 C   0  0  0  0  0  0  0  0  0  0  0  0
    6.1790    0.5730   19.9990 C   0  0  0  0  0  0  0  0  0  0  0  0
   11.3794    1.5528   23.4964 C   0  0  0  0  0  0  0  0  0  0  0  0
    9.3350   -1.0880   23.5010 C   0  0  0  0  0  0  0  0  0  0  0  0
    5.8300    0.9190   18.6970 C   0  0  0  0  0  0  0  0  0  0  0  0
    9.3070   -3.5340   24.8780 C   0  0  0  0  0  0  0  0  0  0  0  0
    7.3170   -0.1610   19.8550 C   0  0  0  0  0  0  0  0  0  0  0  0
    9.0420    0.3700   21.5280 C   0  0  0  0  0  0  0  0  0  0  0  0
    8.8744   -4.6797   26.9022 C   0  0  0  0  0  0  0  0  0  0  0  0
    9.8870    1.3260   23.5730 C   0  0  0  0  0  0  0  0  0  0  0  0
    9.4560    0.1560   22.8130 C   0  0  1  0  0  0  0  0  0  0  0  0
    7.6390   -0.2680   18.5410 N   0  0  0  0  0  0  0  0  0  0  0  0
    6.7580    0.3810   17.8350 N   0  0  0  0  0  0  0  0  0  0  0  0
    8.1890   -0.7180   20.8700 N   0  0  0  0  0  0  0  0  0  0  0  0
    9.2690    1.4140   20.9380 O   0  0  0  0  0  0  0  0  0  0  0  0
    9.2567   -4.7121   25.5280 O   0  0  0  0  0  0  0  0  0  0  0  0
   15.2065    2.1328   23.2992 H   0  0  0  0  0  0  0  0  0  0  0  0
    3.6468    2.0173   21.6825 H   0  0  0  0  0  0  0  0  0  0  0  0
   13.6724    4.0620   23.5817 H   0  0  0  0  0  0  0  0  0  0  0  0
   14.2903   -0.1680   23.1426 H   0  0  0  0  0  0  0  0  0  0  0  0
    3.0153    2.6527   19.3907 H   0  0  0  0  0  0  0  0  0  0  0  0
    5.7015    0.6980   22.1071 H   0  0  0  0  0  0  0  0  0  0  0  0
   11.2299    3.6973   23.7085 H   0  0  0  0  0  0  0  0  0  0  0  0
   11.8496   -0.5431   23.2682 H   0  0  0  0  0  0  0  0  0  0  0  0
    8.9224   -0.1986   25.4209 H   0  0  0  0  0  0  0  0  0  0  0  0
   10.0638   -2.2321   21.8253 H   0  0  0  0  0  0  0  0  0  0  0  0
    4.4064    1.9744   17.4453 H   0  0  0  0  0  0  0  0  0  0  0  0
    8.6903   -2.3588   26.5807 H   0  0  0  0  0  0  0  0  0  0  0  0
    9.9258   -4.3917   22.9962 H   0  0  0  0  0  0  0  0  0  0  0  0
    8.8744   -5.6954   27.3053 H   0  0  0  0  0  0  0  0  0  0  0  0
    7.8781   -4.2399   26.9939 H   0  0  0  0  0  0  0  0  0  0  0  0
    9.5921   -4.0702   27.4565 H   0  0  0  0  0  0  0  0  0  0  0  0
    9.5854    1.2495   24.6258 H   0  0  0  0  0  0  0  0  0  0  0  0
    9.3886    2.2282   23.1920 H   0  0  0  0  0  0  0  0  0  0  0  0
    8.0686    0.4964   23.2745 H   0  0  0  0  0  0  0  0  0  0  0  0
    6.8044    0.4388   16.8592 H   0  0  0  0  0  0  0  0  0  0  0  0
    8.2434   -1.5614   21.0991 H   0  0  0  0  0  0  0  0  0  0  0  0
  1  3  1  0  0  0  0
  1  4  2  0  0  0  0
  2  5  1  0  0  0  0
  2  6  2  0  0  0  0
  3  7  2  0  0  0  0
  4  8  1  0  0  0  0
  5 11  2  0  0  0  0
  6 14  1  0  0  0  0
  7 15  1  0  0  0  0
  8 15  2  0  0  0  0
  9 12  2  0  0  0  0
  9 16  1  0  0  0  0
 10 13  1  0  0  0  0
 10 16  2  0  0  0  0
 11 17  1  0  0  0  0
 12 18  1  0  0  0  0
 13 18  2  0  0  0  0
 14 17  2  0  0  0  0
 14 19  1  0  0  0  0
 15 22  1  0  0  0  0
 16 23  1  0  0  0  0
 17 25  1  0  0  0  0
 18 28  1  0  0  0  0
 19 24  2  0  0  0  0
 19 26  1  0  0  0  0
 20 23  1  0  0  0  0
 20 26  1  0  0  0  0
 20 27  2  0  0  0  0
 21 28  1  0  0  0  0
 22 23  1  1  0  0  0
 24 25  1  0  0  0  0
  1 29  1  0  0  0  0
  2 30  1  0  0  0  0
  3 31  1  0  0  0  0
  4 32  1  0  0  0  0
  5 33  1  0  0  0  0
  6 34  1  0  0  0  0
  7 35  1  0  0  0  0
  8 36  1  0  0  0  0
  9 37  1  0  0  0  0
 10 38  1  0  0  0  0
 11 39  1  0  0  0  0
 12 40  1  0  0  0  0
 13 41  1  0  0  0  0
 21 42  1  0  0  0  0
 21 43  1  0  0  0  0
 21 44  1  0  0  0  0
 22 45  1  0  0  0  0
 22 46  1  0  0  0  0
 23 47  1  0  0  0  0
 25 48  1  0  0  0  0
 26 49  1  0  0  0  0
M  END
> <clash_score>
0

> <docking_score>
-8.21131706237793

> <overlap_score>
0.9831551909446716

$$$$
BENZO_241_2
  -OEChem-08222022183D

 49 52  0     1  0  0  0  0  0999 V2000
   12.9427    3.5803   21.5528 C   0  0  0  0  0  0  0  0  0  0  0  0
    4.2750    1.7050   20.8490 C   0  0  0  0  0  0  0  0  0  0  0  0
   13.2971    2.5494   22.4231 C   0  0  0  0  0  0  0  0  0  0  0  0
   11.5975    3.8801   21.3380 C   0  0  0  0  0  0  0  0  0  0  0  0
    3.9160    2.0630   19.5520 C   0  0  0  0  0  0  0  0  0  0  0  0
    5.4210    0.9600   21.0930 C   0  0  0  0  0  0  0  0  0  0  0  0
   12.3064    1.8183   23.0783 C   0  0  0  0  0  0  0  0  0  0  0  0
   10.6067    3.1489   21.9933 C   0  0  0  0  0  0  0  0  0  0  0  0
    9.0720   -1.1280   24.8640 C   0  0  0  0  0  0  0  0  0  0  0  0
    9.7200   -2.2600   22.8630 C   0  0  0  0  0  0  0  0  0  0  0  0
    4.6890    1.6810   18.4640 C   0  0  0  0  0  0  0  0  0  0  0  0
    8.9960   -2.3380   25.5320 C   0  0  0  0  0  0  0  0  0  0  0  0
    9.6730   -3.4710   23.5300 C   0  0  0  0  0  0  0  0  0  0  0  0
    6.1790    0.5730   19.9990 C   0  0  0  0  0  0  0  0  0  0  0  0
   10.9611    2.1180   22.8635 C   0  0  0  0  0  0  0  0  0  0  0  0
    9.3350   -1.0880   23.5010 C   0  0  0  0  0  0  0  0  0  0  0  0
    5.8300    0.9190   18.6970 C   0  0  0  0  0  0  0  0  0  0  0  0
    9.3070   -3.5340   24.8780 C   0  0  0  0  0  0  0  0  0  0  0  0
    7.3170   -0.1610   19.8550 C   0  0  0  0  0  0  0  0  0  0  0  0
    9.0420    0.3700   21.5280 C   0  0  0  0  0  0  0  0  0  0  0  0
    8.8744   -4.6797   26.9022 C   0  0  0  0  0  0  0  0  0  0  0  0
    9.8870    1.3260   23.5730 C   0  0  0  0  0  0  0  0  0  0  0  0
    9.4560    0.1560   22.8130 C   0  0  2  0  0  0  0  0  0  0  0  0
    7.6390   -0.2680   18.5410 N   0  0  0  0  0  0  0  0  0  0  0  0
    6.7580    0.3810   17.8350 N   0  0  0  0  0  0  0  0  0  0  0  0
    8.1890   -0.7180   20.8700 N   0  0  0  0  0  0  0  0  0  0  0  0
    9.2690    1.4140   20.9380 O   0  0  0  0  0  0  0  0  0  0  0  0
    9.2567   -4.7121   25.5280 O   0  0  0  0  0  0  0  0  0  0  0  0
   13.7143    4.1504   21.0437 H   0  0  0  0  0  0  0  0  0  0  0  0
    3.6468    2.0173   21.6825 H   0  0  0  0  0  0  0  0  0  0  0  0
   14.3446    2.3166   22.5913 H   0  0  0  0  0  0  0  0  0  0  0  0
   11.3212    4.6833   20.6614 H   0  0  0  0  0  0  0  0  0  0  0  0
    3.0153    2.6527   19.3907 H   0  0  0  0  0  0  0  0  0  0  0  0
    5.7015    0.6980   22.1071 H   0  0  0  0  0  0  0  0  0  0  0  0
   12.5919    1.0166   23.7545 H   0  0  0  0  0  0  0  0  0  0  0  0
    9.5611    3.3895   21.8196 H   0  0  0  0  0  0  0  0  0  0  0  0
    8.9224   -0.1986   25.4209 H   0  0  0  0  0  0  0  0  0  0  0  0
   10.0638   -2.2321   21.8253 H   0  0  0  0  0  0  0  0  0  0  0  0
    4.4064    1.9744   17.4453 H   0  0  0  0  0  0  0  0  0  0  0  0
    8.6903   -2.3588   26.5807 H   0  0  0  0  0  0  0  0  0  0  0  0
    9.9258   -4.3917   22.9962 H   0  0  0  0  0  0  0  0  0  0  0  0
    8.8744   -5.6954   27.3053 H   0  0  0  0  0  0  0  0  0  0  0  0
    7.8781   -4.2399   26.9939 H   0  0  0  0  0  0  0  0  0  0  0  0
    9.5921   -4.0702   27.4565 H   0  0  0  0  0  0  0  0  0  0  0  0
   10.2455    1.0419   24.5710 H   0  0  0  0  0  0  0  0  0  0  0  0
    9.0345    1.9965   23.7496 H   0  0  0  0  0  0  0  0  0  0  0  0
   10.7927   -0.1029   22.4279 H   0  0  0  0  0  0  0  0  0  0  0  0
    6.8044    0.4388   16.8592 H   0  0  0  0  0  0  0  0  0  0  0  0
    8.2434   -1.5614   21.0991 H   0  0  0  0  0  0  0  0  0  0  0  0
  1  3  1  0  0  0  0
  1  4  2  0  0  0  0
  2  5  1  0  0  0  0
  2  6  2  0  0  0  0
  3  7  2  0  0  0  0
  4  8  1  0  0  0  0
  5 11  2  0  0  0  0
  6 14  1  0  0  0  0
  7 15  1  0  0  0  0
  8 15  2  0  0  0  0
  9 12  2  0  0  0  0
  9 16  1  0  0  0  0
 10 13  1  0  0  0  0
 10 16  2  0  0  0  0
 11 17  1  0  0  0  0
 12 18  1  0  0  0  0
 13 18  2  0  0  0  0
 14 17  2  0  0  0  0
 14 19  1  0  0  0  0
 15 22  1  0  0  0  0
 16 23  1  0  0  0  0
 17 25  1  0  0  0  0
 18 28  1  0  0  0  0
 19 24  2  0  0  0  0
 19 26  1  0  0  0  0
 20 23  1  0  0  0  0
 20 26  1  0  0  0  0
 20 27  2  0  0  0  0
 21 28  1  0  0  0  0
 22 23  1  6  0  0  0
 24 25  1  0  0  0  0
  1 29  1  0  0  0  0
  2 30  1  0  0  0  0
  3 31  1  0  0  0  0
  4 32  1  0  0  0  0
  5 33  1  0  0  0  0
  6 34  1  0  0  0  0
  7 35  1  0  0  0  0
  8 36  1  0  0  0  0
  9 37  1  0  0  0  0
 10 38  1  0  0  0  0
 11 39  1  0  0  0  0
 12 40  1  0  0  0  0
 13 41  1  0  0  0  0
 21 42  1  0  0  0  0
 21 43  1  0  0  0  0
 21 44  1  0  0  0  0
 22 45  1  0  0  0  0
 22 46  1  0  0  0  0
 23 47  1  0  0  0  0
 25 48  1  0  0  0  0
 26 49  1  0  0  0  0
M  END
> <clash_score>
0.6163884981584906

> <docking_score>
-8.131513595581055

> <overlap_score>
0.9387645125389099

$$$$
BENZO_240_2
  -OEChem-08222022183D

 46 49  0     1  0  0  0  0  0999 V2000
    4.2750    1.7050   20.8490 C   0  0  0  0  0  0  0  0  0  0  0  0
    3.9160    2.0630   19.5520 C   0  0  0  0  0  0  0  0  0  0  0  0
    5.4210    0.9600   21.0930 C   0  0  0  0  0  0  0  0  0  0  0  0
    9.0720   -1.1280   24.8640 C   0  0  0  0  0  0  0  0  0  0  0  0
    9.7200   -2.2600   22.8630 C   0  0  0  0  0  0  0  0  0  0  0  0
    4.6890    1.6810   18.4640 C   0  0  0  0  0  0  0  0  0  0  0  0
    8.9960   -2.3380   25.5320 C   0  0  0  0  0  0  0  0  0  0  0  0
    9.6730   -3.4710   23.5300 C   0  0  0  0  0  0  0  0  0  0  0  0
   12.3907    0.6679   23.6950 C   0  0  0  0  0  0  0  0  0  0  0  0
   13.4189    0.5308   24.6014 C   0  0  0  0  0  0  0  0  0  0  0  0
   11.3314    1.2632   25.6763 C   0  0  0  0  0  0  0  0  0  0  0  0
    6.1790    0.5730   19.9990 C   0  0  0  0  0  0  0  0  0  0  0  0
    9.3350   -1.0880   23.5010 C   0  0  0  0  0  0  0  0  0  0  0  0
   11.1814    1.0923   24.3176 C   0  0  0  0  0  0  0  0  0  0  0  0
    5.8300    0.9190   18.6970 C   0  0  0  0  0  0  0  0  0  0  0  0
    9.3070   -3.5340   24.8780 C   0  0  0  0  0  0  0  0  0  0  0  0
    7.3170   -0.1610   19.8550 C   0  0  0  0  0  0  0  0  0  0  0  0
    9.0420    0.3700   21.5280 C   0  0  0  0  0  0  0  0  0  0  0  0
    8.8744   -4.6797   26.9022 C   0  0  0  0  0  0  0  0  0  0  0  0
    9.8870    1.3260   23.5730 C   0  0  0  0  0  0  0  0  0  0  0  0
    9.4560    0.1560   22.8130 C   0  0  2  0  0  0  0  0  0  0  0  0
    7.6390   -0.2680   18.5410 N   0  0  0  0  0  0  0  0  0  0  0  0
    6.7580    0.3810   17.8350 N   0  0  0  0  0  0  0  0  0  0  0  0
    8.1890   -0.7180   20.8700 N   0  0  0  0  0  0  0  0  0  0  0  0
    9.2690    1.4140   20.9380 O   0  0  0  0  0  0  0  0  0  0  0  0
    9.2567   -4.7121   25.5280 O   0  0  0  0  0  0  0  0  0  0  0  0
   12.9250    0.9128   26.1959 S   0  0  0  0  0  0  0  0  0  0  0  0
    3.6468    2.0173   21.6825 H   0  0  0  0  0  0  0  0  0  0  0  0
    3.0153    2.6527   19.3907 H   0  0  0  0  0  0  0  0  0  0  0  0
    5.7015    0.6980   22.1071 H   0  0  0  0  0  0  0  0  0  0  0  0
    8.9224   -0.1986   25.4209 H   0  0  0  0  0  0  0  0  0  0  0  0
   10.0638   -2.2321   21.8253 H   0  0  0  0  0  0  0  0  0  0  0  0
    4.4064    1.9744   17.4453 H   0  0  0  0  0  0  0  0  0  0  0  0
    8.6903   -2.3588   26.5807 H   0  0  0  0  0  0  0  0  0  0  0  0
    9.9258   -4.3917   22.9962 H   0  0  0  0  0  0  0  0  0  0  0  0
   12.5049    0.4716   22.6364 H   0  0  0  0  0  0  0  0  0  0  0  0
   14.4362    0.2239   24.4037 H   0  0  0  0  0  0  0  0  0  0  0  0
   10.5839    1.5757   26.3924 H   0  0  0  0  0  0  0  0  0  0  0  0
    8.8744   -5.6954   27.3053 H   0  0  0  0  0  0  0  0  0  0  0  0
    7.8781   -4.2399   26.9939 H   0  0  0  0  0  0  0  0  0  0  0  0
    9.5921   -4.0702   27.4565 H   0  0  0  0  0  0  0  0  0  0  0  0
    9.1131    1.6463   24.2828 H   0  0  0  0  0  0  0  0  0  0  0  0
   10.0354    2.1807   22.8984 H   0  0  0  0  0  0  0  0  0  0  0  0
   10.7927   -0.1029   22.4279 H   0  0  0  0  0  0  0  0  0  0  0  0
    6.8044    0.4388   16.8592 H   0  0  0  0  0  0  0  0  0  0  0  0
    8.2434   -1.5614   21.0991 H   0  0  0  0  0  0  0  0  0  0  0  0
  1  2  1  0  0  0  0
  1  3  2  0  0  0  0
  2  6  2  0  0  0  0
  3 12  1  0  0  0  0
  4  7  2  0  0  0  0
  4 13  1  0  0  0  0
  5  8  1  0  0  0  0
  5 13  2  0  0  0  0
  6 15  1  0  0  0  0
  7 16  1  0  0  0  0
  8 16  2  0  0  0  0
  9 10  2  0  0  0  0
  9 14  1  0  0  0  0
 10 27  1  0  0  0  0
 11 14  2  0  0  0  0
 11 27  1  0  0  0  0
 12 15  2  0  0  0  0
 12 17  1  0  0  0  0
 13 21  1  0  0  0  0
 14 20  1  0  0  0  0
 15 23  1  0  0  0  0
 16 26  1  0  0  0  0
 17 22  2  0  0  0  0
 17 24  1  0  0  0  0
 18 21  1  0  0  0  0
 18 24  1  0  0  0  0
 18 25  2  0  0  0  0
 19 26  1  0  0  0  0
 20 21  1  6  0  0  0
 22 23  1  0  0  0  0
  1 28  1  0  0  0  0
  2 29  1  0  0  0  0
  3 30  1  0  0  0  0
  4 31  1  0  0  0  0
  5 32  1  0  0  0  0
  6 33  1  0  0  0  0
  7 34  1  0  0  0  0
  8 35  1  0  0  0  0
  9 36  1  0  0  0  0
 10 37  1  0  0  0  0
 11 38  1  0  0  0  0
 19 39  1  0  0  0  0
 19 40  1  0  0  0  0
 19 41  1  0  0  0  0
 20 42  1  0  0  0  0
 20 43  1  0  0  0  0
 21 44  1  0  0  0  0
 23 45  1  0  0  0  0
 24 46  1  0  0  0  0
M  END
> <clash_score>
0.6216896927623251

> <docking_score>
-6.561349868774414

> <overlap_score>
0.8906734585762024

$$$$
BENZO_242_1
  -OEChem-08222022183D

 49 52  0     1  0  0  0  0  0999 V2000
    4.2750    1.7050   20.8490 C   0  0  0  0  0  0  0  0  0  0  0  0
    3.9160    2.0630   19.5520 C   0  0  0  0  0  0  0  0  0  0  0  0
   13.6189    0.6768   23.2648 C   0  0  0  0  0  0  0  0  0  0  0  0
    5.4210    0.9600   21.0930 C   0  0  0  0  0  0  0  0  0  0  0  0
   12.2417    0.4681   23.3366 C   0  0  0  0  0  0  0  0  0  0  0  0
    9.0720   -1.1280   24.8640 C   0  0  0  0  0  0  0  0  0  0  0  0
    9.7200   -2.2600   22.8630 C   0  0  0  0  0  0  0  0  0  0  0  0
    4.6890    1.6810   18.4640 C   0  0  0  0  0  0  0  0  0  0  0  0
    8.9960   -2.3380   25.5320 C   0  0  0  0  0  0  0  0  0  0  0  0
    9.6730   -3.4710   23.5300 C   0  0  0  0  0  0  0  0  0  0  0  0
   14.1339    1.9702   23.3527 C   0  0  0  0  0  0  0  0  0  0  0  0
   11.8943    2.8462   23.5844 C   0  0  0  0  0  0  0  0  0  0  0  0
    6.1790    0.5730   19.9990 C   0  0  0  0  0  0  0  0  0  0  0  0
    9.3350   -1.0880   23.5010 C   0  0  0  0  0  0  0  0  0  0  0  0
   11.3794    1.5528   23.4964 C   0  0  0  0  0  0  0  0  0  0  0  0
    5.8300    0.9190   18.6970 C   0  0  0  0  0  0  0  0  0  0  0  0
    9.3070   -3.5340   24.8780 C   0  0  0  0  0  0  0  0  0  0  0  0
   13.2716    3.0548   23.5125 C   0  0  0  0  0  0  0  0  0  0  0  0
    7.3170   -0.1610   19.8550 C   0  0  0  0  0  0  0  0  0  0  0  0
    9.0420    0.3700   21.5280 C   0  0  0  0  0  0  0  0  0  0  0  0
    8.8744   -4.6797   26.9022 C   0  0  0  0  0  0  0  0  0  0  0  0
    9.8870    1.3260   23.5730 C   0  0  0  0  0  0  0  0  0  0  0  0
    9.4560    0.1560   22.8130 C   0  0  1  0  0  0  0  0  0  0  0  0
    7.6390   -0.2680   18.5410 N   0  0  0  0  0  0  0  0  0  0  0  0
    6.7580    0.3810   17.8350 N   0  0  0  0  0  0  0  0  0  0  0  0
    8.1890   -0.7180   20.8700 N   0  0  0  0  0  0  0  0  0  0  0  0
    9.2690    1.4140   20.9380 O   0  0  0  0  0  0  0  0  0  0  0  0
    9.2567   -4.7121   25.5280 O   0  0  0  0  0  0  0  0  0  0  0  0
   13.9075    4.6504   23.6198 Cl  0  0  0  0  0  0  0  0  0  0  0  0
    3.6468    2.0173   21.6825 H   0  0  0  0  0  0  0  0  0  0  0  0
    3.0153    2.6527   19.3907 H   0  0  0  0  0  0  0  0  0  0  0  0
   14.2901   -0.1681   23.1402 H   0  0  0  0  0  0  0  0  0  0  0  0
    5.7015    0.6980   22.1071 H   0  0  0  0  0  0  0  0  0  0  0  0
   11.8492   -0.5431   23.2671 H   0  0  0  0  0  0  0  0  0  0  0  0
    8.9224   -0.1986   25.4209 H   0  0  0  0  0  0  0  0  0  0  0  0
   10.0638   -2.2321   21.8253 H   0  0  0  0  0  0  0  0  0  0  0  0
    4.4064    1.9744   17.4453 H   0  0  0  0  0  0  0  0  0  0  0  0
    8.6903   -2.3588   26.5807 H   0  0  0  0  0  0  0  0  0  0  0  0
    9.9258   -4.3917   22.9962 H   0  0  0  0  0  0  0  0  0  0  0  0
   15.2095    2.1179   23.2949 H   0  0  0  0  0  0  0  0  0  0  0  0
   11.2178    3.6885   23.7094 H   0  0  0  0  0  0  0  0  0  0  0  0
    8.8744   -5.6954   27.3053 H   0  0  0  0  0  0  0  0  0  0  0  0
    7.8781   -4.2399   26.9939 H   0  0  0  0  0  0  0  0  0  0  0  0
    9.5921   -4.0702   27.4565 H   0  0  0  0  0  0  0  0  0  0  0  0
    9.5854    1.2495   24.6258 H   0  0  0  0  0  0  0  0  0  0  0  0
    9.3886    2.2282   23.1920 H   0  0  0  0  0  0  0  0  0  0  0  0
    8.0686    0.4964   23.2745 H   0  0  0  0  0  0  0  0  0  0  0  0
    6.8044    0.4388   16.8592 H   0  0  0  0  0  0  0  0  0  0  0  0
    8.2434   -1.5614   21.0991 H   0  0  0  0  0  0  0  0  0  0  0  0
  1  2  1  0  0  0  0
  1  4  2  0  0  0  0
  2  8  2  0  0  0  0
  3  5  2  0  0  0  0
  3 11  1  0  0  0  0
  4 13  1  0  0  0  0
  5 15  1  0  0  0  0
  6  9  2  0  0  0  0
  6 14  1  0  0  0  0
  7 10  1  0  0  0  0
  7 14  2  0  0  0  0
  8 16  1  0  0  0  0
  9 17  1  0  0  0  0
 10 17  2  0  0  0  0
 11 18  2  0  0  0  0
 12 15  2  0  0  0  0
 12 18  1  0  0  0  0
 13 16  2  0  0  0  0
 13 19  1  0  0  0  0
 14 23  1  0  0  0  0
 15 22  1  0  0  0  0
 16 25  1  0  0  0  0
 17 28  1  0  0  0  0
 18 29  1  0  0  0  0
 19 24  2  0  0  0  0
 19 26  1  0  0  0  0
 20 23  1  0  0  0  0
 20 26  1  0  0  0  0
 20 27  2  0  0  0  0
 21 28  1  0  0  0  0
 22 23  1  1  0  0  0
 24 25  1  0  0  0  0
  1 30  1  0  0  0  0
  2 31  1  0  0  0  0
  3 32  1  0  0  0  0
  4 33  1  0  0  0  0
  5 34  1  0  0  0  0
  6 35  1  0  0  0  0
  7 36  1  0  0  0  0
  8 37  1  0  0  0  0
  9 38  1  0  0  0  0
 10 39  1  0  0  0  0
 11 40  1  0  0  0  0
 12 41  1  0  0  0  0
 21 42  1  0  0  0  0
 21 43  1  0  0  0  0
 21 44  1  0  0  0  0
 22 45  1  0  0  0  0
 22 46  1  0  0  0  0
 23 47  1  0  0  0  0
 25 48  1  0  0  0  0
 26 49  1  0  0  0  0
M  END
> <clash_score>
0

> <docking_score>
-7.920672416687012

> <overlap_score>
0.9852194786071777

$$$$
BENZO_242_2
  -OEChem-08222022183D

 49 52  0     1  0  0  0  0  0999 V2000
    4.2750    1.7050   20.8490 C   0  0  0  0  0  0  0  0  0  0  0  0
    3.9160    2.0630   19.5520 C   0  0  0  0  0  0  0  0  0  0  0  0
   13.2976    2.5464   22.4233 C   0  0  0  0  0  0  0  0  0  0  0  0
    5.4210    0.9600   21.0930 C   0  0  0  0  0  0  0  0  0  0  0  0
   12.3059    1.8167   23.0786 C   0  0  0  0  0  0  0  0  0  0  0  0
    9.0720   -1.1280   24.8640 C   0  0  0  0  0  0  0  0  0  0  0  0
    9.7200   -2.2600   22.8630 C   0  0  0  0  0  0  0  0  0  0  0  0
    4.6890    1.6810   18.4640 C   0  0  0  0  0  0  0  0  0  0  0  0
    8.9960   -2.3380   25.5320 C   0  0  0  0  0  0  0  0  0  0  0  0
    9.6730   -3.4710   23.5300 C   0  0  0  0  0  0  0  0  0  0  0  0
   12.9446    3.5777   21.5528 C   0  0  0  0  0  0  0  0  0  0  0  0
   10.6080    3.1492   21.9930 C   0  0  0  0  0  0  0  0  0  0  0  0
    6.1790    0.5730   19.9990 C   0  0  0  0  0  0  0  0  0  0  0  0
    9.3350   -1.0880   23.5010 C   0  0  0  0  0  0  0  0  0  0  0  0
   10.9611    2.1180   22.8635 C   0  0  0  0  0  0  0  0  0  0  0  0
    5.8300    0.9190   18.6970 C   0  0  0  0  0  0  0  0  0  0  0  0
    9.3070   -3.5340   24.8780 C   0  0  0  0  0  0  0  0  0  0  0  0
   11.5998    3.8790   21.3377 C   0  0  0  0  0  0  0  0  0  0  0  0
    7.3170   -0.1610   19.8550 C   0  0  0  0  0  0  0  0  0  0  0  0
    9.0420    0.3700   21.5280 C   0  0  0  0  0  0  0  0  0  0  0  0
    9.5904   -5.8808   24.7806 C   0  0  0  0  0  0  0  0  0  0  0  0
    9.8870    1.3260   23.5730 C   0  0  0  0  0  0  0  0  0  0  0  0
    9.4560    0.1560   22.8130 C   0  0  2  0  0  0  0  0  0  0  0  0
    7.6390   -0.2680   18.5410 N   0  0  0  0  0  0  0  0  0  0  0  0
    6.7580    0.3810   17.8350 N   0  0  0  0  0  0  0  0  0  0  0  0
    8.1890   -0.7180   20.8700 N   0  0  0  0  0  0  0  0  0  0  0  0
    9.2690    1.4140   20.9380 O   0  0  0  0  0  0  0  0  0  0  0  0
    9.2567   -4.7121   25.5280 O   0  0  0  0  0  0  0  0  0  0  0  0
   11.1647    5.1506   20.2627 Cl  0  0  0  0  0  0  0  0  0  0  0  0
    3.6468    2.0173   21.6825 H   0  0  0  0  0  0  0  0  0  0  0  0
    3.0153    2.6527   19.3907 H   0  0  0  0  0  0  0  0  0  0  0  0
   14.3448    2.3114   22.5909 H   0  0  0  0  0  0  0  0  0  0  0  0
    5.7015    0.6980   22.1071 H   0  0  0  0  0  0  0  0  0  0  0  0
   12.5902    1.0148   23.7550 H   0  0  0  0  0  0  0  0  0  0  0  0
    8.9224   -0.1986   25.4209 H   0  0  0  0  0  0  0  0  0  0  0  0
   10.0638   -2.2321   21.8253 H   0  0  0  0  0  0  0  0  0  0  0  0
    4.4064    1.9744   17.4453 H   0  0  0  0  0  0  0  0  0  0  0  0
    8.6903   -2.3588   26.5807 H   0  0  0  0  0  0  0  0  0  0  0  0
    9.9258   -4.3917   22.9962 H   0  0  0  0  0  0  0  0  0  0  0  0
   13.7282    4.1379   21.0487 H   0  0  0  0  0  0  0  0  0  0  0  0
    9.5581    3.3806   21.8290 H   0  0  0  0  0  0  0  0  0  0  0  0
    9.5095   -6.7607   25.4235 H   0  0  0  0  0  0  0  0  0  0  0  0
   10.6094   -5.7898   24.3961 H   0  0  0  0  0  0  0  0  0  0  0  0
    8.8947   -5.9784   23.9439 H   0  0  0  0  0  0  0  0  0  0  0  0
   10.2455    1.0419   24.5710 H   0  0  0  0  0  0  0  0  0  0  0  0
    9.0345    1.9965   23.7496 H   0  0  0  0  0  0  0  0  0  0  0  0
   10.7927   -0.1029   22.4279 H   0  0  0  0  0  0  0  0  0  0  0  0
    6.8044    0.4388   16.8592 H   0  0  0  0  0  0  0  0  0  0  0  0
    8.2434   -1.5614   21.0991 H   0  0  0  0  0  0  0  0  0  0  0  0
  1  2  1  0  0  0  0
  1  4  2  0  0  0  0
  2  8  2  0  0  0  0
  3  5  2  0  0  0  0
  3 11  1  0  0  0  0
  4 13  1  0  0  0  0
  5 15  1  0  0  0  0
  6  9  2  0  0  0  0
  6 14  1  0  0  0  0
  7 10  1  0  0  0  0
  7 14  2  0  0  0  0
  8 16  1  0  0  0  0
  9 17  1  0  0  0  0
 10 17  2  0  0  0  0
 11 18  2  0  0  0  0
 12 15  2  0  0  0  0
 12 18  1  0  0  0  0
 13 16  2  0  0  0  0
 13 19  1  0  0  0  0
 14 23  1  0  0  0  0
 15 22  1  0  0  0  0
 16 25  1  0  0  0  0
 17 28  1  0  0  0  0
 18 29  1  0  0  0  0
 19 24  2  0  0  0  0
 19 26  1  0  0  0  0
 20 23  1  0  0  0  0
 20 26  1  0  0  0  0
 20 27  2  0  0  0  0
 21 28  1  0  0  0  0
 22 23  1  6  0  0  0
 24 25  1  0  0  0  0
  1 30  1  0  0  0  0
  2 31  1  0  0  0  0
  3 32  1  0  0  0  0
  4 33  1  0  0  0  0
  5 34  1  0  0  0  0
  6 35  1  0  0  0  0
  7 36  1  0  0  0  0
  8 37  1  0  0  0  0
  9 38  1  0  0  0  0
 10 39  1  0  0  0  0
 11 40  1  0  0  0  0
 12 41  1  0  0  0  0
 21 42  1  0  0  0  0
 21 43  1  0  0  0  0
 21 44  1  0  0  0  0
 22 45  1  0  0  0  0
 22 46  1  0  0  0  0
 23 47  1  0  0  0  0
 25 48  1  0  0  0  0
 26 49  1  0  0  0  0
M  END
> <clash_score>
2.210296696509743

> <docking_score>
-7.39504337310791

> <overlap_score>
0.940075159072876

$$$$
BENZO_243_2
  -OEChem-08222022183D

 49 52  0     1  0  0  0  0  0999 V2000
    4.2750    1.7050   20.8490 C   0  0  0  0  0  0  0  0  0  0  0  0
    3.9160    2.0630   19.5520 C   0  0  0  0  0  0  0  0  0  0  0  0
    5.4210    0.9600   21.0930 C   0  0  0  0  0  0  0  0  0  0  0  0
    9.0720   -1.1280   24.8640 C   0  0  0  0  0  0  0  0  0  0  0  0
    9.7200   -2.2600   22.8630 C   0  0  0  0  0  0  0  0  0  0  0  0
    4.6890    1.6810   18.4640 C   0  0  0  0  0  0  0  0  0  0  0  0
    8.9960   -2.3380   25.5320 C   0  0  0  0  0  0  0  0  0  0  0  0
    9.6730   -3.4710   23.5300 C   0  0  0  0  0  0  0  0  0  0  0  0
   12.3565    1.9564   22.9554 C   0  0  0  0  0  0  0  0  0  0  0  0
   10.7932    3.1569   21.9808 C   0  0  0  0  0  0  0  0  0  0  0  0
    6.1790    0.5730   19.9990 C   0  0  0  0  0  0  0  0  0  0  0  0
    9.3350   -1.0880   23.5010 C   0  0  0  0  0  0  0  0  0  0  0  0
   10.9611    2.1180   22.8635 C   0  0  0  0  0  0  0  0  0  0  0  0
    5.8300    0.9190   18.6970 C   0  0  0  0  0  0  0  0  0  0  0  0
    9.3070   -3.5340   24.8780 C   0  0  0  0  0  0  0  0  0  0  0  0
    7.3170   -0.1610   19.8550 C   0  0  0  0  0  0  0  0  0  0  0  0
    9.0420    0.3700   21.5280 C   0  0  0  0  0  0  0  0  0  0  0  0
   12.3862    4.6002   20.6933 C   0  0  0  0  0  0  0  0  0  0  0  0
    8.8744   -4.6797   26.9022 C   0  0  0  0  0  0  0  0  0  0  0  0
    9.8870    1.3260   23.5730 C   0  0  0  0  0  0  0  0  0  0  0  0
    9.4560    0.1560   22.8130 C   0  0  2  0  0  0  0  0  0  0  0  0
   13.0274    2.8231   22.1920 N   0  0  0  0  0  0  0  0  0  0  0  0
    7.6390   -0.2680   18.5410 N   0  0  0  0  0  0  0  0  0  0  0  0
    6.7580    0.3810   17.8350 N   0  0  0  0  0  0  0  0  0  0  0  0
   12.0493    3.5392   21.6118 N   0  0  0  0  0  0  0  0  0  0  0  0
    8.1890   -0.7180   20.8700 N   0  0  0  0  0  0  0  0  0  0  0  0
    9.2690    1.4140   20.9380 O   0  0  0  0  0  0  0  0  0  0  0  0
    9.2567   -4.7121   25.5280 O   0  0  0  0  0  0  0  0  0  0  0  0
    3.6468    2.0173   21.6825 H   0  0  0  0  0  0  0  0  0  0  0  0
    3.0153    2.6527   19.3907 H   0  0  0  0  0  0  0  0  0  0  0  0
    5.7015    0.6980   22.1071 H   0  0  0  0  0  0  0  0  0  0  0  0
    8.9224   -0.1986   25.4209 H   0  0  0  0  0  0  0  0  0  0  0  0
   10.0638   -2.2321   21.8253 H   0  0  0  0  0  0  0  0  0  0  0  0
    4.4064    1.9744   17.4453 H   0  0  0  0  0  0  0  0  0  0  0  0
    8.6903   -2.3588   26.5807 H   0  0  0  0  0  0  0  0  0  0  0  0
    9.9258   -4.3917   22.9962 H   0  0  0  0  0  0  0  0  0  0  0  0
   12.9148    1.2434   23.5455 H   0  0  0  0  0  0  0  0  0  0  0  0
    9.9088    3.6436   21.5925 H   0  0  0  0  0  0  0  0  0  0  0  0
   12.4913    5.5238   21.2686 H   0  0  0  0  0  0  0  0  0  0  0  0
   13.3235    4.3577   20.1848 H   0  0  0  0  0  0  0  0  0  0  0  0
   11.5908    4.7003   19.9494 H   0  0  0  0  0  0  0  0  0  0  0  0
    8.8744   -5.6954   27.3053 H   0  0  0  0  0  0  0  0  0  0  0  0
    7.8781   -4.2399   26.9939 H   0  0  0  0  0  0  0  0  0  0  0  0
    9.5921   -4.0702   27.4565 H   0  0  0  0  0  0  0  0  0  0  0  0
   10.2455    1.0419   24.5710 H   0  0  0  0  0  0  0  0  0  0  0  0
    9.0345    1.9965   23.7496 H   0  0  0  0  0  0  0  0  0  0  0  0
   10.7927   -0.1029   22.4279 H   0  0  0  0  0  0  0  0  0  0  0  0
    6.8044    0.4388   16.8592 H   0  0  0  0  0  0  0  0  0  0  0  0
    8.2434   -1.5614   21.0991 H   0  0  0  0  0  0  0  0  0  0  0  0
  1  2  1  0  0  0  0
  1  3  2  0  0  0  0
  2  6  2  0  0  0  0
  3 11  1  0  0  0  0
  4  7  2  0  0  0  0
  4 12  1  0  0  0  0
  5  8  1  0  0  0  0
  5 12  2  0  0  0  0
  6 14  1  0  0  0  0
  7 15  1  0  0  0  0
  8 15  2  0  0  0  0
  9 13  1  0  0  0  0
  9 22  2  0  0  0  0
 10 13  2  0  0  0  0
 10 25  1  0  0  0  0
 11 14  2  0  0  0  0
 11 16  1  0  0  0  0
 12 21  1  0  0  0  0
 13 20  1  0  0  0  0
 14 24  1  0  0  0  0
 15 28  1  0  0  0  0
 16 23  2  0  0  0  0
 16 26  1  0  0  0  0
 17 21  1  0  0  0  0
 17 26  1  0  0  0  0
 17 27  2  0  0  0  0
 18 25  1  0  0  0  0
 19 28  1  0  0  0  0
 20 21  1  6  0  0  0
 22 25  1  0  0  0  0
 23 24  1  0  0  0  0
  1 29  1  0  0  0  0
  2 30  1  0  0  0  0
  3 31  1  0  0  0  0
  4 32  1  0  0  0  0
  5 33  1  0  0  0  0
  6 34  1  0  0  0  0
  7 35  1  0  0  0  0
  8 36  1  0  0  0  0
  9 37  1  0  0  0  0
 10 38  1  0  0  0  0
 18 39  1  0  0  0  0
 18 40  1  0  0  0  0
 18 41  1  0  0  0  0
 19 42  1  0  0  0  0
 19 43  1  0  0  0  0
 19 44  1  0  0  0  0
 20 45  1  0  0  0  0
 20 46  1  0  0  0  0
 21 47  1  0  0  0  0
 24 48  1  0  0  0  0
 26 49  1  0  0  0  0
M  END
> <clash_score>
0

> <docking_score>
-6.8873515129089355

> <overlap_score>
0.9320233464241028

$$$$
BENZO_243_1
  -OEChem-08222022183D

 49 52  0     1  0  0  0  0  0999 V2000
    4.2750    1.7050   20.8490 C   0  0  0  0  0  0  0  0  0  0  0  0
    3.9160    2.0630   19.5520 C   0  0  0  0  0  0  0  0  0  0  0  0
    5.4210    0.9600   21.0930 C   0  0  0  0  0  0  0  0  0  0  0  0
    9.0720   -1.1280   24.8640 C   0  0  0  0  0  0  0  0  0  0  0  0
    9.7200   -2.2600   22.8630 C   0  0  0  0  0  0  0  0  0  0  0  0
    4.6890    1.6810   18.4640 C   0  0  0  0  0  0  0  0  0  0  0  0
    8.9960   -2.3380   25.5320 C   0  0  0  0  0  0  0  0  0  0  0  0
    9.6730   -3.4710   23.5300 C   0  0  0  0  0  0  0  0  0  0  0  0
   12.0720    2.7762   23.5689 C   0  0  0  0  0  0  0  0  0  0  0  0
   12.3651    0.6087   23.3429 C   0  0  0  0  0  0  0  0  0  0  0  0
    6.1790    0.5730   19.9990 C   0  0  0  0  0  0  0  0  0  0  0  0
    9.3350   -1.0880   23.5010 C   0  0  0  0  0  0  0  0  0  0  0  0
   11.3794    1.5528   23.4964 C   0  0  0  0  0  0  0  0  0  0  0  0
    5.8300    0.9190   18.6970 C   0  0  0  0  0  0  0  0  0  0  0  0
    9.3070   -3.5340   24.8780 C   0  0  0  0  0  0  0  0  0  0  0  0
    7.3170   -0.1610   19.8550 C   0  0  0  0  0  0  0  0  0  0  0  0
    9.0420    0.3700   21.5280 C   0  0  0  0  0  0  0  0  0  0  0  0
   14.8634    0.7326   23.1949 C   0  0  0  0  0  0  0  0  0  0  0  0
    8.8744   -4.6797   26.9022 C   0  0  0  0  0  0  0  0  0  0  0  0
    9.8870    1.3260   23.5730 C   0  0  0  0  0  0  0  0  0  0  0  0
    9.4560    0.1560   22.8130 C   0  0  1  0  0  0  0  0  0  0  0  0
   13.3955    2.6261   23.4698 N   0  0  0  0  0  0  0  0  0  0  0  0
    7.6390   -0.2680   18.5410 N   0  0  0  0  0  0  0  0  0  0  0  0
    6.7580    0.3810   17.8350 N   0  0  0  0  0  0  0  0  0  0  0  0
   13.5424    1.2972   23.3335 N   0  0  0  0  0  0  0  0  0  0  0  0
    8.1890   -0.7180   20.8700 N   0  0  0  0  0  0  0  0  0  0  0  0
    9.2690    1.4140   20.9380 O   0  0  0  0  0  0  0  0  0  0  0  0
    9.2567   -4.7121   25.5280 O   0  0  0  0  0  0  0  0  0  0  0  0
    3.6468    2.0173   21.6825 H   0  0  0  0  0  0  0  0  0  0  0  0
    3.0153    2.6527   19.3907 H   0  0  0  0  0  0  0  0  0  0  0  0
    5.7015    0.6980   22.1071 H   0  0  0  0  0  0  0  0  0  0  0  0
    8.9224   -0.1986   25.4209 H   0  0  0  0  0  0  0  0  0  0  0  0
   10.0638   -2.2321   21.8253 H   0  0  0  0  0  0  0  0  0  0  0  0
    4.4064    1.9744   17.4453 H   0  0  0  0  0  0  0  0  0  0  0  0
    8.6903   -2.3588   26.5807 H   0  0  0  0  0  0  0  0  0  0  0  0
    9.9258   -4.3917   22.9962 H   0  0  0  0  0  0  0  0  0  0  0  0
   11.6698    3.7720   23.6907 H   0  0  0  0  0  0  0  0  0  0  0  0
   12.3300   -0.4677   23.2433 H   0  0  0  0  0  0  0  0  0  0  0  0
   15.1060    0.6995   22.1295 H   0  0  0  0  0  0  0  0  0  0  0  0
   15.5839    1.3558   23.7319 H   0  0  0  0  0  0  0  0  0  0  0  0
   14.8726   -0.2742   23.6217 H   0  0  0  0  0  0  0  0  0  0  0  0
    8.8744   -5.6954   27.3053 H   0  0  0  0  0  0  0  0  0  0  0  0
    7.8781   -4.2399   26.9939 H   0  0  0  0  0  0  0  0  0  0  0  0
    9.5921   -4.0702   27.4565 H   0  0  0  0  0  0  0  0  0  0  0  0
    9.5854    1.2495   24.6258 H   0  0  0  0  0  0  0  0  0  0  0  0
    9.3886    2.2282   23.1920 H   0  0  0  0  0  0  0  0  0  0  0  0
    8.0686    0.4964   23.2745 H   0  0  0  0  0  0  0  0  0  0  0  0
    6.8044    0.4388   16.8592 H   0  0  0  0  0  0  0  0  0  0  0  0
    8.2434   -1.5614   21.0991 H   0  0  0  0  0  0  0  0  0  0  0  0
  1  2  1  0  0  0  0
  1  3  2  0  0  0  0
  2  6  2  0  0  0  0
  3 11  1  0  0  0  0
  4  7  2  0  0  0  0
  4 12  1  0  0  0  0
  5  8  1  0  0  0  0
  5 12  2  0  0  0  0
  6 14  1  0  0  0  0
  7 15  1  0  0  0  0
  8 15  2  0  0  0  0
  9 13  1  0  0  0  0
  9 22  2  0  0  0  0
 10 13  2  0  0  0  0
 10 25  1  0  0  0  0
 11 14  2  0  0  0  0
 11 16  1  0  0  0  0
 12 21  1  0  0  0  0
 13 20  1  0  0  0  0
 14 24  1  0  0  0  0
 15 28  1  0  0  0  0
 16 23  2  0  0  0  0
 16 26  1  0  0  0  0
 17 21  1  0  0  0  0
 17 26  1  0  0  0  0
 17 27  2  0  0  0  0
 18 25  1  0  0  0  0
 19 28  1  0  0  0  0
 20 21  1  1  0  0  0
 22 25  1  0  0  0  0
 23 24  1  0  0  0  0
  1 29  1  0  0  0  0
  2 30  1  0  0  0  0
  3 31  1  0  0  0  0
  4 32  1  0  0  0  0
  5 33  1  0  0  0  0
  6 34  1  0  0  0  0
  7 35  1  0  0  0  0
  8 36  1  0  0  0  0
  9 37  1  0  0  0  0
 10 38  1  0  0  0  0
 18 39  1  0  0  0  0
 18 40  1  0  0  0  0
 18 41  1  0  0  0  0
 19 42  1  0  0  0  0
 19 43  1  0  0  0  0
 19 44  1  0  0  0  0
 20 45  1  0  0  0  0
 20 46  1  0  0  0  0
 21 47  1  0  0  0  0
 24 48  1  0  0  0  0
 26 49  1  0  0  0  0
M  END
> <clash_score>
0

> <docking_score>
-8.25192928314209

> <overlap_score>
0.9840041399002075

$$$$
BENZO_245_1
  -OEChem-08222022183D

 59 63  0     1  0  0  0  0  0999 V2000
   12.9362    3.6201   21.5881 C   0  0  0  0  0  0  0  0  0  0  0  0
    4.2750    1.7050   20.8490 C   0  0  0  0  0  0  0  0  0  0  0  0
   13.2938    2.5836   22.4503 C   0  0  0  0  0  0  0  0  0  0  0  0
   11.5899    3.9127   21.3699 C   0  0  0  0  0  0  0  0  0  0  0  0
    3.9160    2.0630   19.5520 C   0  0  0  0  0  0  0  0  0  0  0  0
    5.4210    0.9600   21.0930 C   0  0  0  0  0  0  0  0  0  0  0  0
   12.3051    1.8395   23.0941 C   0  0  0  0  0  0  0  0  0  0  0  0
   10.6012    3.1686   22.0138 C   0  0  0  0  0  0  0  0  0  0  0  0
    9.0720   -1.1280   24.8640 C   0  0  0  0  0  0  0  0  0  0  0  0
    9.7200   -2.2600   22.8630 C   0  0  0  0  0  0  0  0  0  0  0  0
    4.6890    1.6810   18.4640 C   0  0  0  0  0  0  0  0  0  0  0  0
    8.9960   -2.3380   25.5320 C   0  0  0  0  0  0  0  0  0  0  0  0
    9.6730   -3.4710   23.5300 C   0  0  0  0  0  0  0  0  0  0  0  0
    6.1790    0.5730   19.9990 C   0  0  0  0  0  0  0  0  0  0  0  0
   10.9588    2.1320   22.8759 C   0  0  0  0  0  0  0  0  0  0  0  0
    9.3350   -1.0880   23.5010 C   0  0  0  0  0  0  0  0  0  0  0  0
    5.8300    0.9190   18.6970 C   0  0  0  0  0  0  0  0  0  0  0  0
    9.3070   -3.5340   24.8780 C   0  0  0  0  0  0  0  0  0  0  0  0
    7.3170   -0.1610   19.8550 C   0  0  0  0  0  0  0  0  0  0  0  0
    8.3596   -5.0074   26.6306 C   0  0  0  0  0  0  0  0  0  0  0  0
    9.0420    0.3700   21.5280 C   0  0  0  0  0  0  0  0  0  0  0  0
    8.4719   -6.3982   27.2294 C   0  0  0  0  0  0  0  0  0  0  0  0
    9.9251   -6.7607   27.4801 C   0  0  0  0  0  0  0  0  0  0  0  0
   10.7833   -6.6095   26.2280 C   0  0  0  0  0  0  0  0  0  0  0  0
   10.0539   -5.9100   25.0821 C   0  0  0  0  0  0  0  0  0  0  0  0
    9.8870    1.3260   23.5730 C   0  0  0  0  0  0  0  0  0  0  0  0
    9.4560    0.1560   22.8130 C   0  0  1  0  0  0  0  0  0  0  0  0
    7.6390   -0.2680   18.5410 N   0  0  0  0  0  0  0  0  0  0  0  0
    6.7580    0.3810   17.8350 N   0  0  0  0  0  0  0  0  0  0  0  0
    9.2529   -4.7797   25.5643 N   0  0  0  0  0  0  0  0  0  0  0  0
    8.1890   -0.7180   20.8700 N   0  0  0  0  0  0  0  0  0  0  0  0
    7.4954   -4.2357   27.0448 O   0  0  0  0  0  0  0  0  0  0  0  0
    9.2690    1.4140   20.9380 O   0  0  0  0  0  0  0  0  0  0  0  0
   13.7061    4.2003   21.0880 H   0  0  0  0  0  0  0  0  0  0  0  0
    3.6468    2.0173   21.6825 H   0  0  0  0  0  0  0  0  0  0  0  0
   14.3420    2.3564   22.6212 H   0  0  0  0  0  0  0  0  0  0  0  0
   11.3111    4.7204   20.6996 H   0  0  0  0  0  0  0  0  0  0  0  0
    3.0153    2.6527   19.3907 H   0  0  0  0  0  0  0  0  0  0  0  0
    5.7015    0.6980   22.1071 H   0  0  0  0  0  0  0  0  0  0  0  0
   12.5931    1.0335   23.7640 H   0  0  0  0  0  0  0  0  0  0  0  0
    9.5548    3.4036   21.8376 H   0  0  0  0  0  0  0  0  0  0  0  0
    8.9202   -0.1986   25.4206 H   0  0  0  0  0  0  0  0  0  0  0  0
   10.0631   -2.2319   21.8252 H   0  0  0  0  0  0  0  0  0  0  0  0
    4.4064    1.9744   17.4453 H   0  0  0  0  0  0  0  0  0  0  0  0
    8.6898   -2.3534   26.5810 H   0  0  0  0  0  0  0  0  0  0  0  0
    9.9254   -4.3899   22.9914 H   0  0  0  0  0  0  0  0  0  0  0  0
    7.9324   -6.4149   28.1639 H   0  0  0  0  0  0  0  0  0  0  0  0
    8.0254   -7.0921   26.5330 H   0  0  0  0  0  0  0  0  0  0  0  0
   10.3386   -6.1268   28.2921 H   0  0  0  0  0  0  0  0  0  0  0  0
    9.9903   -7.8025   27.8535 H   0  0  0  0  0  0  0  0  0  0  0  0
   11.7036   -6.0405   26.4770 H   0  0  0  0  0  0  0  0  0  0  0  0
   11.1411   -7.6069   25.8917 H   0  0  0  0  0  0  0  0  0  0  0  0
   10.7783   -5.5162   24.3756 H   0  0  0  0  0  0  0  0  0  0  0  0
    9.4042   -6.6189   24.5805 H   0  0  0  0  0  0  0  0  0  0  0  0
   10.2417    1.0375   24.5711 H   0  0  0  0  0  0  0  0  0  0  0  0
    9.0279    1.9881   23.7492 H   0  0  0  0  0  0  0  0  0  0  0  0
   10.7949   -0.0994   22.4253 H   0  0  0  0  0  0  0  0  0  0  0  0
    6.8044    0.4388   16.8592 H   0  0  0  0  0  0  0  0  0  0  0  0
    8.2585   -1.5522   21.1129 H   0  0  0  0  0  0  0  0  0  0  0  0
  1  3  1  0  0  0  0
  1  4  2  0  0  0  0
  2  5  1  0  0  0  0
  2  6  2  0  0  0  0
  3  7  2  0  0  0  0
  4  8  1  0  0  0  0
  5 11  2  0  0  0  0
  6 14  1  0  0  0  0
  7 15  1  0  0  0  0
  8 15  2  0  0  0  0
  9 12  2  0  0  0  0
  9 16  1  0  0  0  0
 10 13  1  0  0  0  0
 10 16  2  0  0  0  0
 11 17  1  0  0  0  0
 12 18  1  0  0  0  0
 13 18  2  0  0  0  0
 14 17  2  0  0  0  0
 14 19  1  0  0  0  0
 15 26  1  0  0  0  0
 16 27  1  0  0  0  0
 17 29  1  0  0  0  0
 18 30  1  0  0  0  0
 19 28  2  0  0  0  0
 19 31  1  0  0  0  0
 20 22  1  0  0  0  0
 20 30  1  0  0  0  0
 20 32  2  0  0  0  0
 21 27  1  1  0  0  0
 21 31  1  0  0  0  0
 21 33  2  0  0  0  0
 22 23  1  0  0  0  0
 23 24  1  0  0  0  0
 24 25  1  0  0  0  0
 25 30  1  0  0  0  0
 26 27  1  0  0  0  0
 28 29  1  0  0  0  0
  1 34  1  0  0  0  0
  2 35  1  0  0  0  0
  3 36  1  0  0  0  0
  4 37  1  0  0  0  0
  5 38  1  0  0  0  0
  6 39  1  0  0  0  0
  7 40  1  0  0  0  0
  8 41  1  0  0  0  0
  9 42  1  0  0  0  0
 10 43  1  0  0  0  0
 11 44  1  0  0  0  0
 12 45  1  0  0  0  0
 13 46  1  0  0  0  0
 22 47  1  0  0  0  0
 22 48  1  0  0  0  0
 23 49  1  0  0  0  0
 23 50  1  0  0  0  0
 24 51  1  0  0  0  0
 24 52  1  0  0  0  0
 25 53  1  0  0  0  0
 25 54  1  0  0  0  0
 26 55  1  0  0  0  0
 26 56  1  0  0  0  0
 27 57  1  0  0  0  0
 29 58  1  0  0  0  0
 31 59  1  0  0  0  0
M  END
> <clash_score>
1.3959141479736985

> <docking_score>
-7.517014503479004

> <overlap_score>
0.9816223978996277

$$$$
BENZO_244_1
  -OEChem-08222022183D

 56 60  0     1  0  0  0  0  0999 V2000
    4.2750    1.7050   20.8490 C   0  0  0  0  0  0  0  0  0  0  0  0
    3.9160    2.0630   19.5520 C   0  0  0  0  0  0  0  0  0  0  0  0
    5.4210    0.9600   21.0930 C   0  0  0  0  0  0  0  0  0  0  0  0
    9.0720   -1.1280   24.8640 C   0  0  0  0  0  0  0  0  0  0  0  0
    9.7200   -2.2600   22.8630 C   0  0  0  0  0  0  0  0  0  0  0  0
    4.6890    1.6810   18.4640 C   0  0  0  0  0  0  0  0  0  0  0  0
    8.9960   -2.3380   25.5320 C   0  0  0  0  0  0  0  0  0  0  0  0
    9.6730   -3.4710   23.5300 C   0  0  0  0  0  0  0  0  0  0  0  0
   12.3967    0.6931   23.7036 C   0  0  0  0  0  0  0  0  0  0  0  0
   13.4249    0.5732   24.6125 C   0  0  0  0  0  0  0  0  0  0  0  0
   11.3289    1.2940   25.6787 C   0  0  0  0  0  0  0  0  0  0  0  0
    6.1790    0.5730   19.9990 C   0  0  0  0  0  0  0  0  0  0  0  0
    9.3350   -1.0880   23.5010 C   0  0  0  0  0  0  0  0  0  0  0  0
   11.1825    1.1108   24.3212 C   0  0  0  0  0  0  0  0  0  0  0  0
    5.8300    0.9190   18.6970 C   0  0  0  0  0  0  0  0  0  0  0  0
    9.3070   -3.5340   24.8780 C   0  0  0  0  0  0  0  0  0  0  0  0
    7.3170   -0.1610   19.8550 C   0  0  0  0  0  0  0  0  0  0  0  0
    8.3596   -5.0074   26.6306 C   0  0  0  0  0  0  0  0  0  0  0  0
    9.0420    0.3700   21.5280 C   0  0  0  0  0  0  0  0  0  0  0  0
    8.4719   -6.3982   27.2294 C   0  0  0  0  0  0  0  0  0  0  0  0
    9.9251   -6.7607   27.4801 C   0  0  0  0  0  0  0  0  0  0  0  0
   10.7833   -6.6095   26.2280 C   0  0  0  0  0  0  0  0  0  0  0  0
   10.0539   -5.9100   25.0821 C   0  0  0  0  0  0  0  0  0  0  0  0
    9.8870    1.3260   23.5730 C   0  0  0  0  0  0  0  0  0  0  0  0
    9.4560    0.1560   22.8130 C   0  0  1  0  0  0  0  0  0  0  0  0
    7.6390   -0.2680   18.5410 N   0  0  0  0  0  0  0  0  0  0  0  0
    6.7580    0.3810   17.8350 N   0  0  0  0  0  0  0  0  0  0  0  0
    9.2529   -4.7797   25.5643 N   0  0  0  0  0  0  0  0  0  0  0  0
    8.1890   -0.7180   20.8700 N   0  0  0  0  0  0  0  0  0  0  0  0
    7.4954   -4.2357   27.0448 O   0  0  0  0  0  0  0  0  0  0  0  0
    9.2690    1.4140   20.9380 O   0  0  0  0  0  0  0  0  0  0  0  0
   12.9251    0.9632   26.2032 S   0  0  0  0  0  0  0  0  0  0  0  0
    3.6468    2.0173   21.6825 H   0  0  0  0  0  0  0  0  0  0  0  0
    3.0153    2.6527   19.3907 H   0  0  0  0  0  0  0  0  0  0  0  0
    5.7015    0.6980   22.1071 H   0  0  0  0  0  0  0  0  0  0  0  0
    8.9202   -0.1986   25.4206 H   0  0  0  0  0  0  0  0  0  0  0  0
   10.0631   -2.2319   21.8252 H   0  0  0  0  0  0  0  0  0  0  0  0
    4.4064    1.9744   17.4453 H   0  0  0  0  0  0  0  0  0  0  0  0
    8.6898   -2.3534   26.5810 H   0  0  0  0  0  0  0  0  0  0  0  0
    9.9254   -4.3899   22.9914 H   0  0  0  0  0  0  0  0  0  0  0  0
   12.5144    0.4894   22.6467 H   0  0  0  0  0  0  0  0  0  0  0  0
   14.4454    0.2745   24.4187 H   0  0  0  0  0  0  0  0  0  0  0  0
   10.5774    1.6049   26.3912 H   0  0  0  0  0  0  0  0  0  0  0  0
    7.9324   -6.4149   28.1639 H   0  0  0  0  0  0  0  0  0  0  0  0
    8.0254   -7.0921   26.5330 H   0  0  0  0  0  0  0  0  0  0  0  0
   10.3386   -6.1268   28.2921 H   0  0  0  0  0  0  0  0  0  0  0  0
    9.9903   -7.8025   27.8535 H   0  0  0  0  0  0  0  0  0  0  0  0
   11.7036   -6.0405   26.4770 H   0  0  0  0  0  0  0  0  0  0  0  0
   11.1411   -7.6069   25.8917 H   0  0  0  0  0  0  0  0  0  0  0  0
   10.7783   -5.5162   24.3756 H   0  0  0  0  0  0  0  0  0  0  0  0
    9.4042   -6.6189   24.5805 H   0  0  0  0  0  0  0  0  0  0  0  0
    9.1090    1.6445   24.2791 H   0  0  0  0  0  0  0  0  0  0  0  0
   10.0281    2.1767   22.8918 H   0  0  0  0  0  0  0  0  0  0  0  0
   10.7949   -0.0994   22.4253 H   0  0  0  0  0  0  0  0  0  0  0  0
    6.8044    0.4388   16.8592 H   0  0  0  0  0  0  0  0  0  0  0  0
    8.2585   -1.5522   21.1129 H   0  0  0  0  0  0  0  0  0  0  0  0
  1  2  1  0  0  0  0
  1  3  2  0  0  0  0
  2  6  2  0  0  0  0
  3 12  1  0  0  0  0
  4  7  2  0  0  0  0
  4 13  1  0  0  0  0
  5  8  1  0  0  0  0
  5 13  2  0  0  0  0
  6 15  1  0  0  0  0
  7 16  1  0  0  0  0
  8 16  2  0  0  0  0
  9 10  2  0  0  0  0
  9 14  1  0  0  0  0
 10 32  1  0  0  0  0
 11 14  2  0  0  0  0
 11 32  1  0  0  0  0
 12 15  2  0  0  0  0
 12 17  1  0  0  0  0
 13 25  1  0  0  0  0
 14 24  1  0  0  0  0
 15 27  1  0  0  0  0
 16 28  1  0  0  0  0
 17 26  2  0  0  0  0
 17 29  1  0  0  0  0
 18 20  1  0  0  0  0
 18 28  1  0  0  0  0
 18 30  2  0  0  0  0
 19 25  1  1  0  0  0
 19 29  1  0  0  0  0
 19 31  2  0  0  0  0
 20 21  1  0  0  0  0
 21 22  1  0  0  0  0
 22 23  1  0  0  0  0
 23 28  1  0  0  0  0
 24 25  1  0  0  0  0
 26 27  1  0  0  0  0
  1 33  1  0  0  0  0
  2 34  1  0  0  0  0
  3 35  1  0  0  0  0
  4 36  1  0  0  0  0
  5 37  1  0  0  0  0
  6 38  1  0  0  0  0
  7 39  1  0  0  0  0
  8 40  1  0  0  0  0
  9 41  1  0  0  0  0
 10 42  1  0  0  0  0
 11 43  1  0  0  0  0
 20 44  1  0  0  0  0
 20 45  1  0  0  0  0
 21 46  1  0  0  0  0
 21 47  1  0  0  0  0
 22 48  1  0  0  0  0
 22 49  1  0  0  0  0
 23 50  1  0  0  0  0
 23 51  1  0  0  0  0
 24 52  1  0  0  0  0
 24 53  1  0  0  0  0
 25 54  1  0  0  0  0
 27 55  1  0  0  0  0
 29 56  1  0  0  0  0
M  END
> <clash_score>
1.4148822703907502

> <docking_score>
-5.943652153015137

> <overlap_score>
0.9339728951454163

$$$$
BENZO_245_2
  -OEChem-08222022183D

 59 63  0     1  0  0  0  0  0999 V2000
   14.1299    2.0083   23.3926 C   0  0  0  0  0  0  0  0  0  0  0  0
    4.2750    1.7050   20.8490 C   0  0  0  0  0  0  0  0  0  0  0  0
   13.5950    1.2059   24.4004 C   0  0  0  0  0  0  0  0  0  0  0  0
   13.2889    2.5894   22.4436 C   0  0  0  0  0  0  0  0  0  0  0  0
    3.9160    2.0630   19.5520 C   0  0  0  0  0  0  0  0  0  0  0  0
    5.4210    0.9600   21.0930 C   0  0  0  0  0  0  0  0  0  0  0  0
   12.2191    0.9845   24.4591 C   0  0  0  0  0  0  0  0  0  0  0  0
   11.9129    2.3681   22.5023 C   0  0  0  0  0  0  0  0  0  0  0  0
    9.0720   -1.1280   24.8640 C   0  0  0  0  0  0  0  0  0  0  0  0
    9.7200   -2.2600   22.8630 C   0  0  0  0  0  0  0  0  0  0  0  0
    4.6890    1.6810   18.4640 C   0  0  0  0  0  0  0  0  0  0  0  0
    8.9960   -2.3380   25.5320 C   0  0  0  0  0  0  0  0  0  0  0  0
    9.6730   -3.4710   23.5300 C   0  0  0  0  0  0  0  0  0  0  0  0
    6.1790    0.5730   19.9990 C   0  0  0  0  0  0  0  0  0  0  0  0
   11.3780    1.5656   23.5101 C   0  0  0  0  0  0  0  0  0  0  0  0
    9.3350   -1.0880   23.5010 C   0  0  0  0  0  0  0  0  0  0  0  0
    5.8300    0.9190   18.6970 C   0  0  0  0  0  0  0  0  0  0  0  0
    9.3070   -3.5340   24.8780 C   0  0  0  0  0  0  0  0  0  0  0  0
    7.3170   -0.1610   19.8550 C   0  0  0  0  0  0  0  0  0  0  0  0
    8.3596   -5.0074   26.6306 C   0  0  0  0  0  0  0  0  0  0  0  0
    9.0420    0.3700   21.5280 C   0  0  0  0  0  0  0  0  0  0  0  0
    8.4719   -6.3982   27.2294 C   0  0  0  0  0  0  0  0  0  0  0  0
    9.9251   -6.7607   27.4801 C   0  0  0  0  0  0  0  0  0  0  0  0
   10.7833   -6.6095   26.2280 C   0  0  0  0  0  0  0  0  0  0  0  0
   10.0539   -5.9100   25.0821 C   0  0  0  0  0  0  0  0  0  0  0  0
    9.8870    1.3260   23.5730 C   0  0  0  0  0  0  0  0  0  0  0  0
    9.4560    0.1560   22.8130 C   0  0  2  0  0  0  0  0  0  0  0  0
    7.6390   -0.2680   18.5410 N   0  0  0  0  0  0  0  0  0  0  0  0
    6.7580    0.3810   17.8350 N   0  0  0  0  0  0  0  0  0  0  0  0
    9.2529   -4.7797   25.5643 N   0  0  0  0  0  0  0  0  0  0  0  0
    8.1890   -0.7180   20.8700 N   0  0  0  0  0  0  0  0  0  0  0  0
    7.4954   -4.2357   27.0448 O   0  0  0  0  0  0  0  0  0  0  0  0
    9.2690    1.4140   20.9380 O   0  0  0  0  0  0  0  0  0  0  0  0
   15.2011    2.1816   23.3478 H   0  0  0  0  0  0  0  0  0  0  0  0
    3.6468    2.0173   21.6825 H   0  0  0  0  0  0  0  0  0  0  0  0
   14.2496    0.7542   25.1401 H   0  0  0  0  0  0  0  0  0  0  0  0
   13.7049    3.2151   21.6595 H   0  0  0  0  0  0  0  0  0  0  0  0
    3.0153    2.6527   19.3907 H   0  0  0  0  0  0  0  0  0  0  0  0
    5.7015    0.6980   22.1071 H   0  0  0  0  0  0  0  0  0  0  0  0
   11.8112    0.3577   25.2478 H   0  0  0  0  0  0  0  0  0  0  0  0
   11.2654    2.8248   21.7586 H   0  0  0  0  0  0  0  0  0  0  0  0
    8.9202   -0.1986   25.4206 H   0  0  0  0  0  0  0  0  0  0  0  0
   10.0631   -2.2319   21.8252 H   0  0  0  0  0  0  0  0  0  0  0  0
    4.4064    1.9744   17.4453 H   0  0  0  0  0  0  0  0  0  0  0  0
    8.6898   -2.3534   26.5810 H   0  0  0  0  0  0  0  0  0  0  0  0
    9.9254   -4.3899   22.9914 H   0  0  0  0  0  0  0  0  0  0  0  0
    7.9324   -6.4149   28.1639 H   0  0  0  0  0  0  0  0  0  0  0  0
    8.0254   -7.0921   26.5330 H   0  0  0  0  0  0  0  0  0  0  0  0
   10.3386   -6.1268   28.2921 H   0  0  0  0  0  0  0  0  0  0  0  0
    9.9903   -7.8025   27.8535 H   0  0  0  0  0  0  0  0  0  0  0  0
   11.7036   -6.0405   26.4770 H   0  0  0  0  0  0  0  0  0  0  0  0
   11.1411   -7.6069   25.8917 H   0  0  0  0  0  0  0  0  0  0  0  0
   10.7783   -5.5162   24.3756 H   0  0  0  0  0  0  0  0  0  0  0  0
    9.4042   -6.6189   24.5805 H   0  0  0  0  0  0  0  0  0  0  0  0
    9.5761    1.2490   24.6231 H   0  0  0  0  0  0  0  0  0  0  0  0
    9.3845    2.2231   23.1854 H   0  0  0  0  0  0  0  0  0  0  0  0
    8.0674    0.5009   23.2732 H   0  0  0  0  0  0  0  0  0  0  0  0
    6.8044    0.4388   16.8592 H   0  0  0  0  0  0  0  0  0  0  0  0
    8.2585   -1.5522   21.1129 H   0  0  0  0  0  0  0  0  0  0  0  0
  1  3  1  0  0  0  0
  1  4  2  0  0  0  0
  2  5  1  0  0  0  0
  2  6  2  0  0  0  0
  3  7  2  0  0  0  0
  4  8  1  0  0  0  0
  5 11  2  0  0  0  0
  6 14  1  0  0  0  0
  7 15  1  0  0  0  0
  8 15  2  0  0  0  0
  9 12  2  0  0  0  0
  9 16  1  0  0  0  0
 10 13  1  0  0  0  0
 10 16  2  0  0  0  0
 11 17  1  0  0  0  0
 12 18  1  0  0  0  0
 13 18  2  0  0  0  0
 14 17  2  0  0  0  0
 14 19  1  0  0  0  0
 15 26  1  0  0  0  0
 16 27  1  0  0  0  0
 17 29  1  0  0  0  0
 18 30  1  0  0  0  0
 19 28  2  0  0  0  0
 19 31  1  0  0  0  0
 20 22  1  0  0  0  0
 20 30  1  0  0  0  0
 20 32  2  0  0  0  0
 21 27  1  6  0  0  0
 21 31  1  0  0  0  0
 21 33  2  0  0  0  0
 22 23  1  0  0  0  0
 23 24  1  0  0  0  0
 24 25  1  0  0  0  0
 25 30  1  0  0  0  0
 26 27  1  0  0  0  0
 28 29  1  0  0  0  0
  1 34  1  0  0  0  0
  2 35  1  0  0  0  0
  3 36  1  0  0  0  0
  4 37  1  0  0  0  0
  5 38  1  0  0  0  0
  6 39  1  0  0  0  0
  7 40  1  0  0  0  0
  8 41  1  0  0  0  0
  9 42  1  0  0  0  0
 10 43  1  0  0  0  0
 11 44  1  0  0  0  0
 12 45  1  0  0  0  0
 13 46  1  0  0  0  0
 22 47  1  0  0  0  0
 22 48  1  0  0  0  0
 23 49  1  0  0  0  0
 23 50  1  0  0  0  0
 24 51  1  0  0  0  0
 24 52  1  0  0  0  0
 25 53  1  0  0  0  0
 25 54  1  0  0  0  0
 26 55  1  0  0  0  0
 26 56  1  0  0  0  0
 27 57  1  0  0  0  0
 29 58  1  0  0  0  0
 31 59  1  0  0  0  0
M  END
> <clash_score>
0.7790931276820443

> <docking_score>
-7.612059593200684

> <overlap_score>
1.018000602722168

$$$$
BENZO_244_2
  -OEChem-08222022183D

 56 60  0     1  0  0  0  0  0999 V2000
    4.2750    1.7050   20.8490 C   0  0  0  0  0  0  0  0  0  0  0  0
    3.9160    2.0630   19.5520 C   0  0  0  0  0  0  0  0  0  0  0  0
    5.4210    0.9600   21.0930 C   0  0  0  0  0  0  0  0  0  0  0  0
    9.0720   -1.1280   24.8640 C   0  0  0  0  0  0  0  0  0  0  0  0
    9.7200   -2.2600   22.8630 C   0  0  0  0  0  0  0  0  0  0  0  0
    4.6890    1.6810   18.4640 C   0  0  0  0  0  0  0  0  0  0  0  0
    8.9960   -2.3380   25.5320 C   0  0  0  0  0  0  0  0  0  0  0  0
    9.6730   -3.4710   23.5300 C   0  0  0  0  0  0  0  0  0  0  0  0
   12.3482    0.5240   23.4466 C   0  0  0  0  0  0  0  0  0  0  0  0
   13.6337    1.0165   23.3985 C   0  0  0  0  0  0  0  0  0  0  0  0
   11.9591    2.8147   23.5083 C   0  0  0  0  0  0  0  0  0  0  0  0
    6.1790    0.5730   19.9990 C   0  0  0  0  0  0  0  0  0  0  0  0
    9.3350   -1.0880   23.5010 C   0  0  0  0  0  0  0  0  0  0  0  0
   11.3780    1.5656   23.5101 C   0  0  0  0  0  0  0  0  0  0  0  0
    5.8300    0.9190   18.6970 C   0  0  0  0  0  0  0  0  0  0  0  0
    9.3070   -3.5340   24.8780 C   0  0  0  0  0  0  0  0  0  0  0  0
    7.3170   -0.1610   19.8550 C   0  0  0  0  0  0  0  0  0  0  0  0
    8.3596   -5.0074   26.6306 C   0  0  0  0  0  0  0  0  0  0  0  0
    9.0420    0.3700   21.5280 C   0  0  0  0  0  0  0  0  0  0  0  0
    8.4719   -6.3982   27.2294 C   0  0  0  0  0  0  0  0  0  0  0  0
    9.9251   -6.7607   27.4801 C   0  0  0  0  0  0  0  0  0  0  0  0
   10.7833   -6.6095   26.2280 C   0  0  0  0  0  0  0  0  0  0  0  0
   10.0539   -5.9100   25.0821 C   0  0  0  0  0  0  0  0  0  0  0  0
    9.8870    1.3260   23.5730 C   0  0  0  0  0  0  0  0  0  0  0  0
    9.4560    0.1560   22.8130 C   0  0  2  0  0  0  0  0  0  0  0  0
    7.6390   -0.2680   18.5410 N   0  0  0  0  0  0  0  0  0  0  0  0
    6.7580    0.3810   17.8350 N   0  0  0  0  0  0  0  0  0  0  0  0
    9.2529   -4.7797   25.5643 N   0  0  0  0  0  0  0  0  0  0  0  0
    8.1890   -0.7180   20.8700 N   0  0  0  0  0  0  0  0  0  0  0  0
    7.4954   -4.2357   27.0448 O   0  0  0  0  0  0  0  0  0  0  0  0
    9.2690    1.4140   20.9380 O   0  0  0  0  0  0  0  0  0  0  0  0
   13.6675    2.7283   23.4300 S   0  0  0  0  0  0  0  0  0  0  0  0
    3.6468    2.0173   21.6825 H   0  0  0  0  0  0  0  0  0  0  0  0
    3.0153    2.6527   19.3907 H   0  0  0  0  0  0  0  0  0  0  0  0
    5.7015    0.6980   22.1071 H   0  0  0  0  0  0  0  0  0  0  0  0
    8.9202   -0.1986   25.4206 H   0  0  0  0  0  0  0  0  0  0  0  0
   10.0631   -2.2319   21.8252 H   0  0  0  0  0  0  0  0  0  0  0  0
    4.4064    1.9744   17.4453 H   0  0  0  0  0  0  0  0  0  0  0  0
    8.6898   -2.3534   26.5810 H   0  0  0  0  0  0  0  0  0  0  0  0
    9.9254   -4.3899   22.9914 H   0  0  0  0  0  0  0  0  0  0  0  0
   12.1191   -0.5341   23.4370 H   0  0  0  0  0  0  0  0  0  0  0  0
   14.5547    0.4532   23.3470 H   0  0  0  0  0  0  0  0  0  0  0  0
   11.4661    3.7761   23.5503 H   0  0  0  0  0  0  0  0  0  0  0  0
    7.9324   -6.4149   28.1639 H   0  0  0  0  0  0  0  0  0  0  0  0
    8.0254   -7.0921   26.5330 H   0  0  0  0  0  0  0  0  0  0  0  0
   10.3386   -6.1268   28.2921 H   0  0  0  0  0  0  0  0  0  0  0  0
    9.9903   -7.8025   27.8535 H   0  0  0  0  0  0  0  0  0  0  0  0
   11.7036   -6.0405   26.4770 H   0  0  0  0  0  0  0  0  0  0  0  0
   11.1411   -7.6069   25.8917 H   0  0  0  0  0  0  0  0  0  0  0  0
   10.7783   -5.5162   24.3756 H   0  0  0  0  0  0  0  0  0  0  0  0
    9.4042   -6.6189   24.5805 H   0  0  0  0  0  0  0  0  0  0  0  0
    9.5761    1.2490   24.6231 H   0  0  0  0  0  0  0  0  0  0  0  0
    9.3845    2.2231   23.1854 H   0  0  0  0  0  0  0  0  0  0  0  0
    8.0674    0.5009   23.2732 H   0  0  0  0  0  0  0  0  0  0  0  0
    6.8044    0.4388   16.8592 H   0  0  0  0  0  0  0  0  0  0  0  0
    8.2585   -1.5522   21.1129 H   0  0  0  0  0  0  0  0  0  0  0  0
  1  2  1  0  0  0  0
  1  3  2  0  0  0  0
  2  6  2  0  0  0  0
  3 12  1  0  0  0  0
  4  7  2  0  0  0  0
  4 13  1  0  0  0  0
  5  8  1  0  0  0  0
  5 13  2  0  0  0  0
  6 15  1  0  0  0  0
  7 16  1  0  0  0  0
  8 16  2  0  0  0  0
  9 10  2  0  0  0  0
  9 14  1  0  0  0  0
 10 32  1  0  0  0  0
 11 14  2  0  0  0  0
 11 32  1  0  0  0  0
 12 15  2  0  0  0  0
 12 17  1  0  0  0  0
 13 25  1  0  0  0  0
 14 24  1  0  0  0  0
 15 27  1  0  0  0  0
 16 28  1  0  0  0  0
 17 26  2  0  0  0  0
 17 29  1  0  0  0  0
 18 20  1  0  0  0  0
 18 28  1  0  0  0  0
 18 30  2  0  0  0  0
 19 25  1  6  0  0  0
 19 29  1  0  0  0  0
 19 31  2  0  0  0  0
 20 21  1  0  0  0  0
 21 22  1  0  0  0  0
 22 23  1  0  0  0  0
 23 28  1  0  0  0  0
 24 25  1  0  0  0  0
 26 27  1  0  0  0  0
  1 33  1  0  0  0  0
  2 34  1  0  0  0  0
  3 35  1  0  0  0  0
  4 36  1  0  0  0  0
  5 37  1  0  0  0  0
  6 38  1  0  0  0  0
  7 39  1  0  0  0  0
  8 40  1  0  0  0  0
  9 41  1  0  0  0  0
 10 42  1  0  0  0  0
 11 43  1  0  0  0  0
 20 44  1  0  0  0  0
 20 45  1  0  0  0  0
 21 46  1  0  0  0  0
 21 47  1  0  0  0  0
 22 48  1  0  0  0  0
 22 49  1  0  0  0  0
 23 50  1  0  0  0  0
 23 51  1  0  0  0  0
 24 52  1  0  0  0  0
 24 53  1  0  0  0  0
 25 54  1  0  0  0  0
 27 55  1  0  0  0  0
 29 56  1  0  0  0  0
M  END
> <clash_score>
0.7790931276820443

> <docking_score>
-7.987748146057129

> <overlap_score>
1.0096060037612915

$$$$
BENZO_246_1
  -OEChem-08222022183D

 59 63  0     1  0  0  0  0  0999 V2000
    4.2750    1.7050   20.8490 C   0  0  0  0  0  0  0  0  0  0  0  0
    3.9160    2.0630   19.5520 C   0  0  0  0  0  0  0  0  0  0  0  0
    6.3943    2.2386   24.7613 C   0  0  0  0  0  0  0  0  0  0  0  0
    5.4210    0.9600   21.0930 C   0  0  0  0  0  0  0  0  0  0  0  0
    7.4442    1.5740   24.1277 C   0  0  0  0  0  0  0  0  0  0  0  0
    9.0720   -1.1280   24.8640 C   0  0  0  0  0  0  0  0  0  0  0  0
    9.7200   -2.2600   22.8630 C   0  0  0  0  0  0  0  0  0  0  0  0
    4.6890    1.6810   18.4640 C   0  0  0  0  0  0  0  0  0  0  0  0
    8.9960   -2.3380   25.5320 C   0  0  0  0  0  0  0  0  0  0  0  0
    9.6730   -3.4710   23.5300 C   0  0  0  0  0  0  0  0  0  0  0  0
    6.6498    3.3769   25.5260 C   0  0  0  0  0  0  0  0  0  0  0  0
    9.0052    3.1857   25.0236 C   0  0  0  0  0  0  0  0  0  0  0  0
    6.1790    0.5730   19.9990 C   0  0  0  0  0  0  0  0  0  0  0  0
    9.3350   -1.0880   23.5010 C   0  0  0  0  0  0  0  0  0  0  0  0
    8.7497    2.0475   24.2588 C   0  0  0  0  0  0  0  0  0  0  0  0
    5.8300    0.9190   18.6970 C   0  0  0  0  0  0  0  0  0  0  0  0
    9.3070   -3.5340   24.8780 C   0  0  0  0  0  0  0  0  0  0  0  0
    7.9552    3.8504   25.6571 C   0  0  0  0  0  0  0  0  0  0  0  0
    7.3170   -0.1610   19.8550 C   0  0  0  0  0  0  0  0  0  0  0  0
    8.3596   -5.0075   26.6307 C   0  0  0  0  0  0  0  0  0  0  0  0
    9.0420    0.3700   21.5280 C   0  0  0  0  0  0  0  0  0  0  0  0
    8.4579   -6.4048   27.2167 C   0  0  0  0  0  0  0  0  0  0  0  0
    8.4717   -7.4504   26.1157 C   0  0  0  0  0  0  0  0  0  0  0  0
    9.5645   -7.1893   25.0840 C   0  0  0  0  0  0  0  0  0  0  0  0
   10.2327   -5.8252   25.2500 C   0  0  0  0  0  0  0  0  0  0  0  0
    9.8870    1.3260   23.5730 C   0  0  0  0  0  0  0  0  0  0  0  0
    9.4560    0.1560   22.8130 C   0  0  1  0  0  0  0  0  0  0  0  0
    7.6390   -0.2680   18.5410 N   0  0  0  0  0  0  0  0  0  0  0  0
    6.7580    0.3810   17.8350 N   0  0  0  0  0  0  0  0  0  0  0  0
    9.2529   -4.7799   25.5644 N   0  0  0  0  0  0  0  0  0  0  0  0
    8.1890   -0.7180   20.8700 N   0  0  0  0  0  0  0  0  0  0  0  0
    7.5989   -4.1866   27.1423 O   0  0  0  0  0  0  0  0  0  0  0  0
    9.2690    1.4140   20.9380 O   0  0  0  0  0  0  0  0  0  0  0  0
    8.2700    5.2542   26.6017 Cl  0  0  0  0  0  0  0  0  0  0  0  0
    3.6468    2.0173   21.6825 H   0  0  0  0  0  0  0  0  0  0  0  0
    3.0153    2.6527   19.3907 H   0  0  0  0  0  0  0  0  0  0  0  0
    5.3779    1.8695   24.6590 H   0  0  0  0  0  0  0  0  0  0  0  0
    5.7015    0.6980   22.1071 H   0  0  0  0  0  0  0  0  0  0  0  0
    7.2359    0.6877   23.5339 H   0  0  0  0  0  0  0  0  0  0  0  0
    8.9202   -0.1986   25.4206 H   0  0  0  0  0  0  0  0  0  0  0  0
   10.0631   -2.2319   21.8252 H   0  0  0  0  0  0  0  0  0  0  0  0
    4.4064    1.9744   17.4453 H   0  0  0  0  0  0  0  0  0  0  0  0
    8.6898   -2.3534   26.5810 H   0  0  0  0  0  0  0  0  0  0  0  0
    9.9254   -4.3899   22.9914 H   0  0  0  0  0  0  0  0  0  0  0  0
    5.8217    3.8847   26.0144 H   0  0  0  0  0  0  0  0  0  0  0  0
   10.0247    3.5513   25.1223 H   0  0  0  0  0  0  0  0  0  0  0  0
    9.3705   -6.4746   27.7883 H   0  0  0  0  0  0  0  0  0  0  0  0
    7.6054   -6.5499   27.8634 H   0  0  0  0  0  0  0  0  0  0  0  0
    8.6096   -8.4605   26.5547 H   0  0  0  0  0  0  0  0  0  0  0  0
    7.4835   -7.4764   25.6139 H   0  0  0  0  0  0  0  0  0  0  0  0
   10.3359   -7.9850   25.1529 H   0  0  0  0  0  0  0  0  0  0  0  0
    9.1459   -7.2795   24.0580 H   0  0  0  0  0  0  0  0  0  0  0  0
   10.9408   -5.8640   26.0724 H   0  0  0  0  0  0  0  0  0  0  0  0
   10.7522   -5.5631   24.3346 H   0  0  0  0  0  0  0  0  0  0  0  0
   10.4307    2.0325   22.9323 H   0  0  0  0  0  0  0  0  0  0  0  0
   10.6065    1.0196   24.3450 H   0  0  0  0  0  0  0  0  0  0  0  0
   10.7949   -0.0994   22.4253 H   0  0  0  0  0  0  0  0  0  0  0  0
    6.8044    0.4388   16.8592 H   0  0  0  0  0  0  0  0  0  0  0  0
    8.2585   -1.5522   21.1129 H   0  0  0  0  0  0  0  0  0  0  0  0
  1  2  1  0  0  0  0
  1  4  2  0  0  0  0
  2  8  2  0  0  0  0
  3  5  2  0  0  0  0
  3 11  1  0  0  0  0
  4 13  1  0  0  0  0
  5 15  1  0  0  0  0
  6  9  2  0  0  0  0
  6 14  1  0  0  0  0
  7 10  1  0  0  0  0
  7 14  2  0  0  0  0
  8 16  1  0  0  0  0
  9 17  1  0  0  0  0
 10 17  2  0  0  0  0
 11 18  2  0  0  0  0
 12 15  2  0  0  0  0
 12 18  1  0  0  0  0
 13 16  2  0  0  0  0
 13 19  1  0  0  0  0
 14 27  1  0  0  0  0
 15 26  1  0  0  0  0
 16 29  1  0  0  0  0
 17 30  1  0  0  0  0
 18 34  1  0  0  0  0
 19 28  2  0  0  0  0
 19 31  1  0  0  0  0
 20 22  1  0  0  0  0
 20 30  1  0  0  0  0
 20 32  2  0  0  0  0
 21 27  1  1  0  0  0
 21 31  1  0  0  0  0
 21 33  2  0  0  0  0
 22 23  1  0  0  0  0
 23 24  1  0  0  0  0
 24 25  1  0  0  0  0
 25 30  1  0  0  0  0
 26 27  1  0  0  0  0
 28 29  1  0  0  0  0
  1 35  1  0  0  0  0
  2 36  1  0  0  0  0
  3 37  1  0  0  0  0
  4 38  1  0  0  0  0
  5 39  1  0  0  0  0
  6 40  1  0  0  0  0
  7 41  1  0  0  0  0
  8 42  1  0  0  0  0
  9 43  1  0  0  0  0
 10 44  1  0  0  0  0
 11 45  1  0  0  0  0
 12 46  1  0  0  0  0
 22 47  1  0  0  0  0
 22 48  1  0  0  0  0
 23 49  1  0  0  0  0
 23 50  1  0  0  0  0
 24 51  1  0  0  0  0
 24 52  1  0  0  0  0
 25 53  1  0  0  0  0
 25 54  1  0  0  0  0
 26 55  1  0  0  0  0
 26 56  1  0  0  0  0
 27 57  1  0  0  0  0
 29 58  1  0  0  0  0
 31 59  1  0  0  0  0
M  END
> <clash_score>
0.6354372295654396

> <docking_score>
-6.807447910308838

> <overlap_score>
0.8705697059631348

$$$$
BENZO_247_2
  -OEChem-08222022183D

 59 63  0     1  0  0  0  0  0999 V2000
    4.2750    1.7050   20.8490 C   0  0  0  0  0  0  0  0  0  0  0  0
    3.9160    2.0630   19.5520 C   0  0  0  0  0  0  0  0  0  0  0  0
    5.4210    0.9600   21.0930 C   0  0  0  0  0  0  0  0  0  0  0  0
    9.0720   -1.1280   24.8640 C   0  0  0  0  0  0  0  0  0  0  0  0
    9.7200   -2.2600   22.8630 C   0  0  0  0  0  0  0  0  0  0  0  0
    4.6890    1.6810   18.4640 C   0  0  0  0  0  0  0  0  0  0  0  0
    8.9960   -2.3380   25.5320 C   0  0  0  0  0  0  0  0  0  0  0  0
    9.6730   -3.4710   23.5300 C   0  0  0  0  0  0  0  0  0  0  0  0
   12.3549    1.9791   22.9727 C   0  0  0  0  0  0  0  0  0  0  0  0
   10.7877    3.1780   22.0022 C   0  0  0  0  0  0  0  0  0  0  0  0
    6.1790    0.5730   19.9990 C   0  0  0  0  0  0  0  0  0  0  0  0
    9.3350   -1.0880   23.5010 C   0  0  0  0  0  0  0  0  0  0  0  0
   10.9588    2.1320   22.8759 C   0  0  0  0  0  0  0  0  0  0  0  0
    5.8300    0.9190   18.6970 C   0  0  0  0  0  0  0  0  0  0  0  0
    9.3070   -3.5340   24.8780 C   0  0  0  0  0  0  0  0  0  0  0  0
    7.3170   -0.1610   19.8550 C   0  0  0  0  0  0  0  0  0  0  0  0
    8.3596   -5.0074   26.6306 C   0  0  0  0  0  0  0  0  0  0  0  0
    9.0420    0.3700   21.5280 C   0  0  0  0  0  0  0  0  0  0  0  0
    8.4719   -6.3982   27.2294 C   0  0  0  0  0  0  0  0  0  0  0  0
    9.9251   -6.7607   27.4801 C   0  0  0  0  0  0  0  0  0  0  0  0
   10.7833   -6.6095   26.2280 C   0  0  0  0  0  0  0  0  0  0  0  0
   10.0539   -5.9100   25.0821 C   0  0  0  0  0  0  0  0  0  0  0  0
   12.3765    4.6443   20.7356 C   0  0  0  0  0  0  0  0  0  0  0  0
    9.8870    1.3260   23.5730 C   0  0  0  0  0  0  0  0  0  0  0  0
    9.4560    0.1560   22.8130 C   0  0  2  0  0  0  0  0  0  0  0  0
   13.0232    2.8575   22.2206 N   0  0  0  0  0  0  0  0  0  0  0  0
    7.6390   -0.2680   18.5410 N   0  0  0  0  0  0  0  0  0  0  0  0
    6.7580    0.3810   17.8350 N   0  0  0  0  0  0  0  0  0  0  0  0
   12.0428    3.5724   21.6427 N   0  0  0  0  0  0  0  0  0  0  0  0
    9.2529   -4.7797   25.5643 N   0  0  0  0  0  0  0  0  0  0  0  0
    8.1890   -0.7180   20.8700 N   0  0  0  0  0  0  0  0  0  0  0  0
    7.4954   -4.2357   27.0448 O   0  0  0  0  0  0  0  0  0  0  0  0
    9.2690    1.4140   20.9380 O   0  0  0  0  0  0  0  0  0  0  0  0
    3.6468    2.0173   21.6825 H   0  0  0  0  0  0  0  0  0  0  0  0
    3.0153    2.6527   19.3907 H   0  0  0  0  0  0  0  0  0  0  0  0
    5.7015    0.6980   22.1071 H   0  0  0  0  0  0  0  0  0  0  0  0
    8.9202   -0.1986   25.4206 H   0  0  0  0  0  0  0  0  0  0  0  0
   10.0631   -2.2319   21.8252 H   0  0  0  0  0  0  0  0  0  0  0  0
    4.4064    1.9744   17.4453 H   0  0  0  0  0  0  0  0  0  0  0  0
    8.6898   -2.3534   26.5810 H   0  0  0  0  0  0  0  0  0  0  0  0
    9.9254   -4.3899   22.9914 H   0  0  0  0  0  0  0  0  0  0  0  0
   12.9154    1.2645   23.5586 H   0  0  0  0  0  0  0  0  0  0  0  0
    9.9018    3.6623   21.6144 H   0  0  0  0  0  0  0  0  0  0  0  0
    7.9324   -6.4149   28.1639 H   0  0  0  0  0  0  0  0  0  0  0  0
    8.0254   -7.0921   26.5330 H   0  0  0  0  0  0  0  0  0  0  0  0
   10.3386   -6.1268   28.2921 H   0  0  0  0  0  0  0  0  0  0  0  0
    9.9903   -7.8025   27.8535 H   0  0  0  0  0  0  0  0  0  0  0  0
   11.7036   -6.0405   26.4770 H   0  0  0  0  0  0  0  0  0  0  0  0
   11.1411   -7.6069   25.8917 H   0  0  0  0  0  0  0  0  0  0  0  0
   10.7783   -5.5162   24.3756 H   0  0  0  0  0  0  0  0  0  0  0  0
    9.4042   -6.6189   24.5805 H   0  0  0  0  0  0  0  0  0  0  0  0
   12.4727    5.5631   21.3201 H   0  0  0  0  0  0  0  0  0  0  0  0
   13.3178    4.4130   20.2292 H   0  0  0  0  0  0  0  0  0  0  0  0
   11.5839    4.7459   19.9891 H   0  0  0  0  0  0  0  0  0  0  0  0
   10.2417    1.0375   24.5711 H   0  0  0  0  0  0  0  0  0  0  0  0
    9.0279    1.9881   23.7492 H   0  0  0  0  0  0  0  0  0  0  0  0
   10.7949   -0.0994   22.4253 H   0  0  0  0  0  0  0  0  0  0  0  0
    6.8044    0.4388   16.8592 H   0  0  0  0  0  0  0  0  0  0  0  0
    8.2585   -1.5522   21.1129 H   0  0  0  0  0  0  0  0  0  0  0  0
  1  2  1  0  0  0  0
  1  3  2  0  0  0  0
  2  6  2  0  0  0  0
  3 11  1  0  0  0  0
  4  7  2  0  0  0  0
  4 12  1  0  0  0  0
  5  8  1  0  0  0  0
  5 12  2  0  0  0  0
  6 14  1  0  0  0  0
  7 15  1  0  0  0  0
  8 15  2  0  0  0  0
  9 13  1  0  0  0  0
  9 26  2  0  0  0  0
 10 13  2  0  0  0  0
 10 29  1  0  0  0  0
 11 14  2  0  0  0  0
 11 16  1  0  0  0  0
 12 25  1  0  0  0  0
 13 24  1  0  0  0  0
 14 28  1  0  0  0  0
 15 30  1  0  0  0  0
 16 27  2  0  0  0  0
 16 31  1  0  0  0  0
 17 19  1  0  0  0  0
 17 30  1  0  0  0  0
 17 32  2  0  0  0  0
 18 25  1  0  0  0  0
 18 31  1  0  0  0  0
 18 33  2  0  0  0  0
 19 20  1  0  0  0  0
 20 21  1  0  0  0  0
 21 22  1  0  0  0  0
 22 30  1  0  0  0  0
 23 29  1  0  0  0  0
 24 25  1  6  0  0  0
 26 29  1  0  0  0  0
 27 28  1  0  0  0  0
  1 34  1  0  0  0  0
  2 35  1  0  0  0  0
  3 36  1  0  0  0  0
  4 37  1  0  0  0  0
  5 38  1  0  0  0  0
  6 39  1  0  0  0  0
  7 40  1  0  0  0  0
  8 41  1  0  0  0  0
  9 42  1  0  0  0  0
 10 43  1  0  0  0  0
 19 44  1  0  0  0  0
 19 45  1  0  0  0  0
 20 46  1  0  0  0  0
 20 47  1  0  0  0  0
 21 48  1  0  0  0  0
 21 49  1  0  0  0  0
 22 50  1  0  0  0  0
 22 51  1  0  0  0  0
 23 52  1  0  0  0  0
 23 53  1  0  0  0  0
 23 54  1  0  0  0  0
 24 55  1  0  0  0  0
 24 56  1  0  0  0  0
 25 57  1  0  0  0  0
 28 58  1  0  0  0  0
 31 59  1  0  0  0  0
M  END
> <clash_score>
0.7790931276820443

> <docking_score>
-6.2808074951171875

> <overlap_score>
0.974953293800354

$$$$
BENZO_246_2
  -OEChem-08222022183D

 59 63  0     1  0  0  0  0  0999 V2000
    4.2750    1.7050   20.8490 C   0  0  0  0  0  0  0  0  0  0  0  0
    3.9160    2.0630   19.5520 C   0  0  0  0  0  0  0  0  0  0  0  0
   13.6270    0.7091   23.2980 C   0  0  0  0  0  0  0  0  0  0  0  0
    5.4210    0.9600   21.0930 C   0  0  0  0  0  0  0  0  0  0  0  0
   12.2510    0.4885   23.3573 C   0  0  0  0  0  0  0  0  0  0  0  0
    9.0720   -1.1280   24.8640 C   0  0  0  0  0  0  0  0  0  0  0  0
    9.7200   -2.2600   22.8630 C   0  0  0  0  0  0  0  0  0  0  0  0
    4.6890    1.6810   18.4640 C   0  0  0  0  0  0  0  0  0  0  0  0
    8.9960   -2.3380   25.5320 C   0  0  0  0  0  0  0  0  0  0  0  0
    9.6730   -3.4710   23.5300 C   0  0  0  0  0  0  0  0  0  0  0  0
   14.1301    2.0067   23.3917 C   0  0  0  0  0  0  0  0  0  0  0  0
   11.8810    2.8633   23.6037 C   0  0  0  0  0  0  0  0  0  0  0  0
    6.1790    0.5730   19.9990 C   0  0  0  0  0  0  0  0  0  0  0  0
    9.3350   -1.0880   23.5010 C   0  0  0  0  0  0  0  0  0  0  0  0
   11.3780    1.5656   23.5101 C   0  0  0  0  0  0  0  0  0  0  0  0
    5.8300    0.9190   18.6970 C   0  0  0  0  0  0  0  0  0  0  0  0
    9.3070   -3.5340   24.8780 C   0  0  0  0  0  0  0  0  0  0  0  0
   13.2571    3.0838   23.5445 C   0  0  0  0  0  0  0  0  0  0  0  0
    7.3170   -0.1610   19.8550 C   0  0  0  0  0  0  0  0  0  0  0  0
    8.3596   -5.0074   26.6306 C   0  0  0  0  0  0  0  0  0  0  0  0
    9.0420    0.3700   21.5280 C   0  0  0  0  0  0  0  0  0  0  0  0
    8.4719   -6.3982   27.2294 C   0  0  0  0  0  0  0  0  0  0  0  0
    9.9251   -6.7607   27.4801 C   0  0  0  0  0  0  0  0  0  0  0  0
   10.7833   -6.6095   26.2280 C   0  0  0  0  0  0  0  0  0  0  0  0
   10.0539   -5.9100   25.0821 C   0  0  0  0  0  0  0  0  0  0  0  0
    9.8870    1.3260   23.5730 C   0  0  0  0  0  0  0  0  0  0  0  0
    9.4560    0.1560   22.8130 C   0  0  2  0  0  0  0  0  0  0  0  0
    7.6390   -0.2680   18.5410 N   0  0  0  0  0  0  0  0  0  0  0  0
    6.7580    0.3810   17.8350 N   0  0  0  0  0  0  0  0  0  0  0  0
    9.2529   -4.7797   25.5643 N   0  0  0  0  0  0  0  0  0  0  0  0
    8.1890   -0.7180   20.8700 N   0  0  0  0  0  0  0  0  0  0  0  0
    7.4954   -4.2357   27.0448 O   0  0  0  0  0  0  0  0  0  0  0  0
    9.2690    1.4140   20.9380 O   0  0  0  0  0  0  0  0  0  0  0  0
   13.8782    4.6847   23.6587 Cl  0  0  0  0  0  0  0  0  0  0  0  0
    3.6468    2.0173   21.6825 H   0  0  0  0  0  0  0  0  0  0  0  0
    3.0153    2.6527   19.3907 H   0  0  0  0  0  0  0  0  0  0  0  0
   14.3065   -0.1300   23.1789 H   0  0  0  0  0  0  0  0  0  0  0  0
    5.7015    0.6980   22.1071 H   0  0  0  0  0  0  0  0  0  0  0  0
   11.8679   -0.5259   23.2834 H   0  0  0  0  0  0  0  0  0  0  0  0
    8.9202   -0.1986   25.4206 H   0  0  0  0  0  0  0  0  0  0  0  0
   10.0631   -2.2319   21.8252 H   0  0  0  0  0  0  0  0  0  0  0  0
    4.4064    1.9744   17.4453 H   0  0  0  0  0  0  0  0  0  0  0  0
    8.6898   -2.3534   26.5810 H   0  0  0  0  0  0  0  0  0  0  0  0
    9.9254   -4.3899   22.9914 H   0  0  0  0  0  0  0  0  0  0  0  0
   15.2048    2.1637   23.3436 H   0  0  0  0  0  0  0  0  0  0  0  0
   11.1962    3.6997   23.7233 H   0  0  0  0  0  0  0  0  0  0  0  0
    7.9324   -6.4149   28.1639 H   0  0  0  0  0  0  0  0  0  0  0  0
    8.0254   -7.0921   26.5330 H   0  0  0  0  0  0  0  0  0  0  0  0
   10.3386   -6.1268   28.2921 H   0  0  0  0  0  0  0  0  0  0  0  0
    9.9903   -7.8025   27.8535 H   0  0  0  0  0  0  0  0  0  0  0  0
   11.7036   -6.0405   26.4770 H   0  0  0  0  0  0  0  0  0  0  0  0
   11.1411   -7.6069   25.8917 H   0  0  0  0  0  0  0  0  0  0  0  0
   10.7783   -5.5162   24.3756 H   0  0  0  0  0  0  0  0  0  0  0  0
    9.4042   -6.6189   24.5805 H   0  0  0  0  0  0  0  0  0  0  0  0
    9.5761    1.2490   24.6231 H   0  0  0  0  0  0  0  0  0  0  0  0
    9.3844    2.2231   23.1854 H   0  0  0  0  0  0  0  0  0  0  0  0
    8.0674    0.5009   23.2732 H   0  0  0  0  0  0  0  0  0  0  0  0
    6.8044    0.4388   16.8592 H   0  0  0  0  0  0  0  0  0  0  0  0
    8.2585   -1.5522   21.1129 H   0  0  0  0  0  0  0  0  0  0  0  0
  1  2  1  0  0  0  0
  1  4  2  0  0  0  0
  2  8  2  0  0  0  0
  3  5  2  0  0  0  0
  3 11  1  0  0  0  0
  4 13  1  0  0  0  0
  5 15  1  0  0  0  0
  6  9  2  0  0  0  0
  6 14  1  0  0  0  0
  7 10  1  0  0  0  0
  7 14  2  0  0  0  0
  8 16  1  0  0  0  0
  9 17  1  0  0  0  0
 10 17  2  0  0  0  0
 11 18  2  0  0  0  0
 12 15  2  0  0  0  0
 12 18  1  0  0  0  0
 13 16  2  0  0  0  0
 13 19  1  0  0  0  0
 14 27  1  0  0  0  0
 15 26  1  0  0  0  0
 16 29  1  0  0  0  0
 17 30  1  0  0  0  0
 18 34  1  0  0  0  0
 19 28  2  0  0  0  0
 19 31  1  0  0  0  0
 20 22  1  0  0  0  0
 20 30  1  0  0  0  0
 20 32  2  0  0  0  0
 21 27  1  6  0  0  0
 21 31  1  0  0  0  0
 21 33  2  0  0  0  0
 22 23  1  0  0  0  0
 23 24  1  0  0  0  0
 24 25  1  0  0  0  0
 25 30  1  0  0  0  0
 26 27  1  0  0  0  0
 28 29  1  0  0  0  0
  1 35  1  0  0  0  0
  2 36  1  0  0  0  0
  3 37  1  0  0  0  0
  4 38  1  0  0  0  0
  5 39  1  0  0  0  0
  6 40  1  0  0  0  0
  7 41  1  0  0  0  0
  8 42  1  0  0  0  0
  9 43  1  0  0  0  0
 10 44  1  0  0  0  0
 11 45  1  0  0  0  0
 12 46  1  0  0  0  0
 22 47  1  0  0  0  0
 22 48  1  0  0  0  0
 23 49  1  0  0  0  0
 23 50  1  0  0  0  0
 24 51  1  0  0  0  0
 24 52  1  0  0  0  0
 25 53  1  0  0  0  0
 25 54  1  0  0  0  0
 26 55  1  0  0  0  0
 26 56  1  0  0  0  0
 27 57  1  0  0  0  0
 29 58  1  0  0  0  0
 31 59  1  0  0  0  0
M  END
> <clash_score>
0.7790931276820443

> <docking_score>
-7.226884841918945

> <overlap_score>
1.0263028144836426

$$$$
BENZO_247_1
  -OEChem-08222022183D

 59 63  0     1  0  0  0  0  0999 V2000
    4.2750    1.7050   20.8490 C   0  0  0  0  0  0  0  0  0  0  0  0
    3.9160    2.0630   19.5520 C   0  0  0  0  0  0  0  0  0  0  0  0
    5.4210    0.9600   21.0930 C   0  0  0  0  0  0  0  0  0  0  0  0
    9.0720   -1.1280   24.8640 C   0  0  0  0  0  0  0  0  0  0  0  0
    9.7200   -2.2600   22.8630 C   0  0  0  0  0  0  0  0  0  0  0  0
    4.6890    1.6810   18.4640 C   0  0  0  0  0  0  0  0  0  0  0  0
    8.9960   -2.3380   25.5320 C   0  0  0  0  0  0  0  0  0  0  0  0
    9.6730   -3.4710   23.5300 C   0  0  0  0  0  0  0  0  0  0  0  0
   12.0594    2.7949   23.5898 C   0  0  0  0  0  0  0  0  0  0  0  0
   12.3731    0.6302   23.3648 C   0  0  0  0  0  0  0  0  0  0  0  0
    6.1790    0.5730   19.9990 C   0  0  0  0  0  0  0  0  0  0  0  0
    9.3350   -1.0880   23.5010 C   0  0  0  0  0  0  0  0  0  0  0  0
   11.3780    1.5656   23.5101 C   0  0  0  0  0  0  0  0  0  0  0  0
    5.8300    0.9190   18.6970 C   0  0  0  0  0  0  0  0  0  0  0  0
    9.3070   -3.5340   24.8780 C   0  0  0  0  0  0  0  0  0  0  0  0
    7.3170   -0.1610   19.8550 C   0  0  0  0  0  0  0  0  0  0  0  0
    8.3596   -5.0074   26.6306 C   0  0  0  0  0  0  0  0  0  0  0  0
    9.0420    0.3700   21.5280 C   0  0  0  0  0  0  0  0  0  0  0  0
    8.4719   -6.3982   27.2294 C   0  0  0  0  0  0  0  0  0  0  0  0
    9.9251   -6.7607   27.4801 C   0  0  0  0  0  0  0  0  0  0  0  0
   10.7833   -6.6095   26.2280 C   0  0  0  0  0  0  0  0  0  0  0  0
   10.0539   -5.9100   25.0821 C   0  0  0  0  0  0  0  0  0  0  0  0
   14.8715    0.7755   23.2395 C   0  0  0  0  0  0  0  0  0  0  0  0
    9.8870    1.3260   23.5730 C   0  0  0  0  0  0  0  0  0  0  0  0
    9.4560    0.1560   22.8130 C   0  0  1  0  0  0  0  0  0  0  0  0
   13.3850    2.6562   23.5025 N   0  0  0  0  0  0  0  0  0  0  0  0
    7.6390   -0.2680   18.5410 N   0  0  0  0  0  0  0  0  0  0  0  0
    6.7580    0.3810   17.8350 N   0  0  0  0  0  0  0  0  0  0  0  0
   13.5445    1.3287   23.3665 N   0  0  0  0  0  0  0  0  0  0  0  0
    9.2529   -4.7797   25.5643 N   0  0  0  0  0  0  0  0  0  0  0  0
    8.1890   -0.7180   20.8700 N   0  0  0  0  0  0  0  0  0  0  0  0
    7.4954   -4.2357   27.0448 O   0  0  0  0  0  0  0  0  0  0  0  0
    9.2690    1.4140   20.9380 O   0  0  0  0  0  0  0  0  0  0  0  0
    3.6468    2.0173   21.6825 H   0  0  0  0  0  0  0  0  0  0  0  0
    3.0153    2.6527   19.3907 H   0  0  0  0  0  0  0  0  0  0  0  0
    5.7015    0.6980   22.1071 H   0  0  0  0  0  0  0  0  0  0  0  0
    8.9202   -0.1986   25.4206 H   0  0  0  0  0  0  0  0  0  0  0  0
   10.0631   -2.2319   21.8252 H   0  0  0  0  0  0  0  0  0  0  0  0
    4.4064    1.9744   17.4453 H   0  0  0  0  0  0  0  0  0  0  0  0
    8.6898   -2.3534   26.5810 H   0  0  0  0  0  0  0  0  0  0  0  0
    9.9254   -4.3899   22.9914 H   0  0  0  0  0  0  0  0  0  0  0  0
   11.6476    3.7871   23.7087 H   0  0  0  0  0  0  0  0  0  0  0  0
   12.3482   -0.4465   23.2641 H   0  0  0  0  0  0  0  0  0  0  0  0
    7.9324   -6.4149   28.1639 H   0  0  0  0  0  0  0  0  0  0  0  0
    8.0254   -7.0921   26.5330 H   0  0  0  0  0  0  0  0  0  0  0  0
   10.3386   -6.1268   28.2921 H   0  0  0  0  0  0  0  0  0  0  0  0
    9.9903   -7.8025   27.8535 H   0  0  0  0  0  0  0  0  0  0  0  0
   11.7036   -6.0405   26.4770 H   0  0  0  0  0  0  0  0  0  0  0  0
   11.1411   -7.6069   25.8917 H   0  0  0  0  0  0  0  0  0  0  0  0
   10.7783   -5.5162   24.3756 H   0  0  0  0  0  0  0  0  0  0  0  0
    9.4042   -6.6189   24.5805 H   0  0  0  0  0  0  0  0  0  0  0  0
   15.1240    0.7455   22.1763 H   0  0  0  0  0  0  0  0  0  0  0  0
   15.5818    1.4044   23.7835 H   0  0  0  0  0  0  0  0  0  0  0  0
   14.8855   -0.2315   23.6655 H   0  0  0  0  0  0  0  0  0  0  0  0
    9.5761    1.2490   24.6231 H   0  0  0  0  0  0  0  0  0  0  0  0
    9.3845    2.2231   23.1854 H   0  0  0  0  0  0  0  0  0  0  0  0
    8.0674    0.5009   23.2732 H   0  0  0  0  0  0  0  0  0  0  0  0
    6.8044    0.4388   16.8592 H   0  0  0  0  0  0  0  0  0  0  0  0
    8.2585   -1.5522   21.1129 H   0  0  0  0  0  0  0  0  0  0  0  0
  1  2  1  0  0  0  0
  1  3  2  0  0  0  0
  2  6  2  0  0  0  0
  3 11  1  0  0  0  0
  4  7  2  0  0  0  0
  4 12  1  0  0  0  0
  5  8  1  0  0  0  0
  5 12  2  0  0  0  0
  6 14  1  0  0  0  0
  7 15  1  0  0  0  0
  8 15  2  0  0  0  0
  9 13  1  0  0  0  0
  9 26  2  0  0  0  0
 10 13  2  0  0  0  0
 10 29  1  0  0  0  0
 11 14  2  0  0  0  0
 11 16  1  0  0  0  0
 12 25  1  0  0  0  0
 13 24  1  0  0  0  0
 14 28  1  0  0  0  0
 15 30  1  0  0  0  0
 16 27  2  0  0  0  0
 16 31  1  0  0  0  0
 17 19  1  0  0  0  0
 17 30  1  0  0  0  0
 17 32  2  0  0  0  0
 18 25  1  0  0  0  0
 18 31  1  0  0  0  0
 18 33  2  0  0  0  0
 19 20  1  0  0  0  0
 20 21  1  0  0  0  0
 21 22  1  0  0  0  0
 22 30  1  0  0  0  0
 23 29  1  0  0  0  0
 24 25  1  1  0  0  0
 26 29  1  0  0  0  0
 27 28  1  0  0  0  0
  1 34  1  0  0  0  0
  2 35  1  0  0  0  0
  3 36  1  0  0  0  0
  4 37  1  0  0  0  0
  5 38  1  0  0  0  0
  6 39  1  0  0  0  0
  7 40  1  0  0  0  0
  8 41  1  0  0  0  0
  9 42  1  0  0  0  0
 10 43  1  0  0  0  0
 19 44  1  0  0  0  0
 19 45  1  0  0  0  0
 20 46  1  0  0  0  0
 20 47  1  0  0  0  0
 21 48  1  0  0  0  0
 21 49  1  0  0  0  0
 22 50  1  0  0  0  0
 22 51  1  0  0  0  0
 23 52  1  0  0  0  0
 23 53  1  0  0  0  0
 23 54  1  0  0  0  0
 24 55  1  0  0  0  0
 24 56  1  0  0  0  0
 25 57  1  0  0  0  0
 28 58  1  0  0  0  0
 31 59  1  0  0  0  0
M  END
> <clash_score>
0.7790931276820443

> <docking_score>
-7.536629676818848

> <overlap_score>
1.0254992246627808

$$$$
BENZO_249_1
  -OEChem-08222022183D

 58 62  0     1  0  0  0  0  0999 V2000
   12.9362    3.6202   21.5882 C   0  0  0  0  0  0  0  0  0  0  0  0
    4.2750    1.7050   20.8490 C   0  0  0  0  0  0  0  0  0  0  0  0
   13.2938    2.5837   22.4503 C   0  0  0  0  0  0  0  0  0  0  0  0
   11.5898    3.9128   21.3700 C   0  0  0  0  0  0  0  0  0  0  0  0
    3.9160    2.0630   19.5520 C   0  0  0  0  0  0  0  0  0  0  0  0
    5.4210    0.9600   21.0930 C   0  0  0  0  0  0  0  0  0  0  0  0
   12.3051    1.8396   23.0941 C   0  0  0  0  0  0  0  0  0  0  0  0
   10.6012    3.1687   22.0138 C   0  0  0  0  0  0  0  0  0  0  0  0
    9.0720   -1.1280   24.8640 C   0  0  0  0  0  0  0  0  0  0  0  0
    9.7200   -2.2600   22.8630 C   0  0  0  0  0  0  0  0  0  0  0  0
    4.6890    1.6810   18.4640 C   0  0  0  0  0  0  0  0  0  0  0  0
    8.9960   -2.3380   25.5320 C   0  0  0  0  0  0  0  0  0  0  0  0
    9.6730   -3.4710   23.5300 C   0  0  0  0  0  0  0  0  0  0  0  0
    6.1790    0.5730   19.9990 C   0  0  0  0  0  0  0  0  0  0  0  0
   10.9588    2.1320   22.8759 C   0  0  0  0  0  0  0  0  0  0  0  0
    9.3350   -1.0880   23.5010 C   0  0  0  0  0  0  0  0  0  0  0  0
    5.8300    0.9190   18.6970 C   0  0  0  0  0  0  0  0  0  0  0  0
    9.3070   -3.5340   24.8780 C   0  0  0  0  0  0  0  0  0  0  0  0
    7.3170   -0.1610   19.8550 C   0  0  0  0  0  0  0  0  0  0  0  0
    9.0420    0.3700   21.5280 C   0  0  0  0  0  0  0  0  0  0  0  0
    9.5176   -4.8600   26.9769 C   0  0  0  0  0  0  0  0  0  0  0  0
    8.5166   -5.8725   24.9805 C   0  0  0  0  0  0  0  0  0  0  0  0
    8.1870   -5.0443   27.6986 C   0  0  0  0  0  0  0  0  0  0  0  0
    7.2201   -6.0348   25.7753 C   0  0  0  0  0  0  0  0  0  0  0  0
    9.8870    1.3260   23.5730 C   0  0  0  0  0  0  0  0  0  0  0  0
    9.4560    0.1560   22.8130 C   0  0  1  0  0  0  0  0  0  0  0  0
    7.6390   -0.2680   18.5410 N   0  0  0  0  0  0  0  0  0  0  0  0
    6.7580    0.3810   17.8350 N   0  0  0  0  0  0  0  0  0  0  0  0
    9.2564   -4.7368   25.5411 N   0  0  0  0  0  0  0  0  0  0  0  0
    8.1890   -0.7180   20.8700 N   0  0  0  0  0  0  0  0  0  0  0  0
    9.2690    1.4140   20.9380 O   0  0  0  0  0  0  0  0  0  0  0  0
    7.4995   -6.1856   27.1717 O   0  0  0  0  0  0  0  0  0  0  0  0
   13.7061    4.2004   21.0880 H   0  0  0  0  0  0  0  0  0  0  0  0
    3.6468    2.0173   21.6825 H   0  0  0  0  0  0  0  0  0  0  0  0
   14.3420    2.3564   22.6212 H   0  0  0  0  0  0  0  0  0  0  0  0
   11.3111    4.7205   20.6997 H   0  0  0  0  0  0  0  0  0  0  0  0
    3.0153    2.6527   19.3907 H   0  0  0  0  0  0  0  0  0  0  0  0
    5.7015    0.6980   22.1071 H   0  0  0  0  0  0  0  0  0  0  0  0
   12.5931    1.0336   23.7640 H   0  0  0  0  0  0  0  0  0  0  0  0
    9.5548    3.4036   21.8376 H   0  0  0  0  0  0  0  0  0  0  0  0
    8.9214   -0.1986   25.4206 H   0  0  0  0  0  0  0  0  0  0  0  0
   10.0622   -2.2326   21.8251 H   0  0  0  0  0  0  0  0  0  0  0  0
    4.4064    1.9744   17.4453 H   0  0  0  0  0  0  0  0  0  0  0  0
    8.6882   -2.3542   26.5803 H   0  0  0  0  0  0  0  0  0  0  0  0
    9.9258   -4.3896   22.9914 H   0  0  0  0  0  0  0  0  0  0  0  0
   10.0207   -3.9702   27.3608 H   0  0  0  0  0  0  0  0  0  0  0  0
   10.1536   -5.7313   27.1546 H   0  0  0  0  0  0  0  0  0  0  0  0
    9.1181   -6.7774   25.0751 H   0  0  0  0  0  0  0  0  0  0  0  0
    8.2812   -5.7063   23.9302 H   0  0  0  0  0  0  0  0  0  0  0  0
    8.3631   -5.2257   28.7609 H   0  0  0  0  0  0  0  0  0  0  0  0
    7.5532   -4.1574   27.6103 H   0  0  0  0  0  0  0  0  0  0  0  0
    6.5460   -5.1840   25.6220 H   0  0  0  0  0  0  0  0  0  0  0  0
    6.6948   -6.9355   25.4433 H   0  0  0  0  0  0  0  0  0  0  0  0
   10.2417    1.0375   24.5711 H   0  0  0  0  0  0  0  0  0  0  0  0
    9.0279    1.9881   23.7492 H   0  0  0  0  0  0  0  0  0  0  0  0
   10.7949   -0.0994   22.4253 H   0  0  0  0  0  0  0  0  0  0  0  0
    6.8044    0.4388   16.8592 H   0  0  0  0  0  0  0  0  0  0  0  0
    8.2585   -1.5522   21.1129 H   0  0  0  0  0  0  0  0  0  0  0  0
  1  3  1  0  0  0  0
  1  4  2  0  0  0  0
  2  5  1  0  0  0  0
  2  6  2  0  0  0  0
  3  7  2  0  0  0  0
  4  8  1  0  0  0  0
  5 11  2  0  0  0  0
  6 14  1  0  0  0  0
  7 15  1  0  0  0  0
  8 15  2  0  0  0  0
  9 12  2  0  0  0  0
  9 16  1  0  0  0  0
 10 13  1  0  0  0  0
 10 16  2  0  0  0  0
 11 17  1  0  0  0  0
 12 18  1  0  0  0  0
 13 18  2  0  0  0  0
 14 17  2  0  0  0  0
 14 19  1  0  0  0  0
 15 25  1  0  0  0  0
 16 26  1  0  0  0  0
 17 28  1  0  0  0  0
 18 29  1  0  0  0  0
 19 27  2  0  0  0  0
 19 30  1  0  0  0  0
 20 26  1  1  0  0  0
 20 30  1  0  0  0  0
 20 31  2  0  0  0  0
 21 23  1  0  0  0  0
 21 29  1  0  0  0  0
 22 24  1  0  0  0  0
 22 29  1  0  0  0  0
 23 32  1  0  0  0  0
 24 32  1  0  0  0  0
 25 26  1  0  0  0  0
 27 28  1  0  0  0  0
  1 33  1  0  0  0  0
  2 34  1  0  0  0  0
  3 35  1  0  0  0  0
  4 36  1  0  0  0  0
  5 37  1  0  0  0  0
  6 38  1  0  0  0  0
  7 39  1  0  0  0  0
  8 40  1  0  0  0  0
  9 41  1  0  0  0  0
 10 42  1  0  0  0  0
 11 43  1  0  0  0  0
 12 44  1  0  0  0  0
 13 45  1  0  0  0  0
 21 46  1  0  0  0  0
 21 47  1  0  0  0  0
 22 48  1  0  0  0  0
 22 49  1  0  0  0  0
 23 50  1  0  0  0  0
 23 51  1  0  0  0  0
 24 52  1  0  0  0  0
 24 53  1  0  0  0  0
 25 54  1  0  0  0  0
 25 55  1  0  0  0  0
 26 56  1  0  0  0  0
 28 57  1  0  0  0  0
 30 58  1  0  0  0  0
M  END
> <clash_score>
0.6168218093390128

> <docking_score>
-8.460826873779297

> <overlap_score>
0.9715526103973389

$$$$
BENZO_248_1
  -OEChem-08222022183D

 55 59  0     1  0  0  0  0  0999 V2000
    4.2750    1.7050   20.8490 C   0  0  0  0  0  0  0  0  0  0  0  0
    3.9160    2.0630   19.5520 C   0  0  0  0  0  0  0  0  0  0  0  0
    5.4210    0.9600   21.0930 C   0  0  0  0  0  0  0  0  0  0  0  0
    9.0720   -1.1280   24.8640 C   0  0  0  0  0  0  0  0  0  0  0  0
    9.7200   -2.2600   22.8630 C   0  0  0  0  0  0  0  0  0  0  0  0
    4.6890    1.6810   18.4640 C   0  0  0  0  0  0  0  0  0  0  0  0
    8.9960   -2.3380   25.5320 C   0  0  0  0  0  0  0  0  0  0  0  0
    9.6730   -3.4710   23.5300 C   0  0  0  0  0  0  0  0  0  0  0  0
   12.3967    0.6932   23.7036 C   0  0  0  0  0  0  0  0  0  0  0  0
   13.4249    0.5733   24.6125 C   0  0  0  0  0  0  0  0  0  0  0  0
   11.3289    1.2940   25.6787 C   0  0  0  0  0  0  0  0  0  0  0  0
    6.1790    0.5730   19.9990 C   0  0  0  0  0  0  0  0  0  0  0  0
    9.3350   -1.0880   23.5010 C   0  0  0  0  0  0  0  0  0  0  0  0
   11.1825    1.1108   24.3212 C   0  0  0  0  0  0  0  0  0  0  0  0
    5.8300    0.9190   18.6970 C   0  0  0  0  0  0  0  0  0  0  0  0
    9.3070   -3.5340   24.8780 C   0  0  0  0  0  0  0  0  0  0  0  0
    7.3170   -0.1610   19.8550 C   0  0  0  0  0  0  0  0  0  0  0  0
    9.0420    0.3700   21.5280 C   0  0  0  0  0  0  0  0  0  0  0  0
   10.0772   -5.0257   26.7191 C   0  0  0  0  0  0  0  0  0  0  0  0
    8.0927   -5.6196   25.4069 C   0  0  0  0  0  0  0  0  0  0  0  0
    9.1935   -4.9431   27.9590 C   0  0  0  0  0  0  0  0  0  0  0  0
    7.2758   -5.5292   26.6966 C   0  0  0  0  0  0  0  0  0  0  0  0
    9.8870    1.3260   23.5730 C   0  0  0  0  0  0  0  0  0  0  0  0
    9.4560    0.1560   22.8130 C   0  0  1  0  0  0  0  0  0  0  0  0
    7.6390   -0.2680   18.5410 N   0  0  0  0  0  0  0  0  0  0  0  0
    6.7580    0.3810   17.8350 N   0  0  0  0  0  0  0  0  0  0  0  0
    9.2564   -4.7368   25.5411 N   0  0  0  0  0  0  0  0  0  0  0  0
    8.1890   -0.7180   20.8700 N   0  0  0  0  0  0  0  0  0  0  0  0
    9.2690    1.4140   20.9380 O   0  0  0  0  0  0  0  0  0  0  0  0
    8.0884   -5.8462   27.8322 O   0  0  0  0  0  0  0  0  0  0  0  0
   12.9251    0.9633   26.2032 S   0  0  0  0  0  0  0  0  0  0  0  0
    3.6468    2.0173   21.6825 H   0  0  0  0  0  0  0  0  0  0  0  0
    3.0153    2.6527   19.3907 H   0  0  0  0  0  0  0  0  0  0  0  0
    5.7015    0.6980   22.1071 H   0  0  0  0  0  0  0  0  0  0  0  0
    8.9214   -0.1986   25.4206 H   0  0  0  0  0  0  0  0  0  0  0  0
   10.0622   -2.2326   21.8251 H   0  0  0  0  0  0  0  0  0  0  0  0
    4.4064    1.9744   17.4453 H   0  0  0  0  0  0  0  0  0  0  0  0
    8.6882   -2.3542   26.5803 H   0  0  0  0  0  0  0  0  0  0  0  0
    9.9258   -4.3896   22.9914 H   0  0  0  0  0  0  0  0  0  0  0  0
   12.5144    0.4895   22.6468 H   0  0  0  0  0  0  0  0  0  0  0  0
   14.4455    0.2746   24.4187 H   0  0  0  0  0  0  0  0  0  0  0  0
   10.5774    1.6050   26.3912 H   0  0  0  0  0  0  0  0  0  0  0  0
   10.8986   -4.3117   26.8083 H   0  0  0  0  0  0  0  0  0  0  0  0
   10.4916   -6.0336   26.6319 H   0  0  0  0  0  0  0  0  0  0  0  0
    8.4328   -6.6457   25.2617 H   0  0  0  0  0  0  0  0  0  0  0  0
    7.4726   -5.3240   24.5618 H   0  0  0  0  0  0  0  0  0  0  0  0
    9.7638   -5.2402   28.8416 H   0  0  0  0  0  0  0  0  0  0  0  0
    8.8238   -3.9272   28.1248 H   0  0  0  0  0  0  0  0  0  0  0  0
    6.8340   -4.5339   26.8232 H   0  0  0  0  0  0  0  0  0  0  0  0
    6.4551   -6.2523   26.6641 H   0  0  0  0  0  0  0  0  0  0  0  0
    9.1090    1.6445   24.2791 H   0  0  0  0  0  0  0  0  0  0  0  0
   10.0281    2.1766   22.8918 H   0  0  0  0  0  0  0  0  0  0  0  0
   10.7949   -0.0994   22.4253 H   0  0  0  0  0  0  0  0  0  0  0  0
    6.8044    0.4388   16.8592 H   0  0  0  0  0  0  0  0  0  0  0  0
    8.2585   -1.5522   21.1129 H   0  0  0  0  0  0  0  0  0  0  0  0
  1  2  1  0  0  0  0
  1  3  2  0  0  0  0
  2  6  2  0  0  0  0
  3 12  1  0  0  0  0
  4  7  2  0  0  0  0
  4 13  1  0  0  0  0
  5  8  1  0  0  0  0
  5 13  2  0  0  0  0
  6 15  1  0  0  0  0
  7 16  1  0  0  0  0
  8 16  2  0  0  0  0
  9 10  2  0  0  0  0
  9 14  1  0  0  0  0
 10 31  1  0  0  0  0
 11 14  2  0  0  0  0
 11 31  1  0  0  0  0
 12 15  2  0  0  0  0
 12 17  1  0  0  0  0
 13 24  1  0  0  0  0
 14 23  1  0  0  0  0
 15 26  1  0  0  0  0
 16 27  1  0  0  0  0
 17 25  2  0  0  0  0
 17 28  1  0  0  0  0
 18 24  1  1  0  0  0
 18 28  1  0  0  0  0
 18 29  2  0  0  0  0
 19 21  1  0  0  0  0
 19 27  1  0  0  0  0
 20 22  1  0  0  0  0
 20 27  1  0  0  0  0
 21 30  1  0  0  0  0
 22 30  1  0  0  0  0
 23 24  1  0  0  0  0
 25 26  1  0  0  0  0
  1 32  1  0  0  0  0
  2 33  1  0  0  0  0
  3 34  1  0  0  0  0
  4 35  1  0  0  0  0
  5 36  1  0  0  0  0
  6 37  1  0  0  0  0
  7 38  1  0  0  0  0
  8 39  1  0  0  0  0
  9 40  1  0  0  0  0
 10 41  1  0  0  0  0
 11 42  1  0  0  0  0
 19 43  1  0  0  0  0
 19 44  1  0  0  0  0
 20 45  1  0  0  0  0
 20 46  1  0  0  0  0
 21 47  1  0  0  0  0
 21 48  1  0  0  0  0
 22 49  1  0  0  0  0
 22 50  1  0  0  0  0
 23 51  1  0  0  0  0
 23 52  1  0  0  0  0
 24 53  1  0  0  0  0
 26 54  1  0  0  0  0
 28 55  1  0  0  0  0
M  END
> <clash_score>
0.6358202961902428

> <docking_score>
-6.925197124481201

> <overlap_score>
0.9200488924980164

$$$$
BENZO_249_2
  -OEChem-08222022183D

 58 62  0     1  0  0  0  0  0999 V2000
   14.1302    2.0067   23.3945 C   0  0  0  0  0  0  0  0  0  0  0  0
    4.2750    1.7050   20.8490 C   0  0  0  0  0  0  0  0  0  0  0  0
   13.2571    3.0838   23.5461 C   0  0  0  0  0  0  0  0  0  0  0  0
   13.6272    0.7090   23.3006 C   0  0  0  0  0  0  0  0  0  0  0  0
    3.9160    2.0630   19.5520 C   0  0  0  0  0  0  0  0  0  0  0  0
    5.4210    0.9600   21.0930 C   0  0  0  0  0  0  0  0  0  0  0  0
   11.8810    2.8633   23.6040 C   0  0  0  0  0  0  0  0  0  0  0  0
   12.2511    0.4885   23.3584 C   0  0  0  0  0  0  0  0  0  0  0  0
    9.0720   -1.1280   24.8640 C   0  0  0  0  0  0  0  0  0  0  0  0
    9.7200   -2.2600   22.8630 C   0  0  0  0  0  0  0  0  0  0  0  0
    4.6890    1.6810   18.4640 C   0  0  0  0  0  0  0  0  0  0  0  0
    8.9960   -2.3380   25.5320 C   0  0  0  0  0  0  0  0  0  0  0  0
    9.6730   -3.4710   23.5300 C   0  0  0  0  0  0  0  0  0  0  0  0
    6.1790    0.5730   19.9990 C   0  0  0  0  0  0  0  0  0  0  0  0
   11.3780    1.5657   23.5101 C   0  0  0  0  0  0  0  0  0  0  0  0
    9.3350   -1.0880   23.5010 C   0  0  0  0  0  0  0  0  0  0  0  0
    5.8300    0.9190   18.6970 C   0  0  0  0  0  0  0  0  0  0  0  0
    9.3070   -3.5340   24.8780 C   0  0  0  0  0  0  0  0  0  0  0  0
    7.3170   -0.1610   19.8550 C   0  0  0  0  0  0  0  0  0  0  0  0
    9.0420    0.3700   21.5280 C   0  0  0  0  0  0  0  0  0  0  0  0
   10.0772   -5.0257   26.7191 C   0  0  0  0  0  0  0  0  0  0  0  0
    8.0927   -5.6196   25.4069 C   0  0  0  0  0  0  0  0  0  0  0  0
    9.1935   -4.9431   27.9590 C   0  0  0  0  0  0  0  0  0  0  0  0
    7.2758   -5.5292   26.6966 C   0  0  0  0  0  0  0  0  0  0  0  0
    9.8870    1.3260   23.5730 C   0  0  0  0  0  0  0  0  0  0  0  0
    9.4560    0.1560   22.8130 C   0  0  2  0  0  0  0  0  0  0  0  0
    7.6390   -0.2680   18.5410 N   0  0  0  0  0  0  0  0  0  0  0  0
    6.7580    0.3810   17.8350 N   0  0  0  0  0  0  0  0  0  0  0  0
    9.2564   -4.7368   25.5411 N   0  0  0  0  0  0  0  0  0  0  0  0
    8.1890   -0.7180   20.8700 N   0  0  0  0  0  0  0  0  0  0  0  0
    9.2690    1.4140   20.9380 O   0  0  0  0  0  0  0  0  0  0  0  0
    8.0884   -5.8462   27.8322 O   0  0  0  0  0  0  0  0  0  0  0  0
   15.2016    2.1786   23.3481 H   0  0  0  0  0  0  0  0  0  0  0  0
    3.6468    2.0173   21.6825 H   0  0  0  0  0  0  0  0  0  0  0  0
   13.6485    4.0944   23.6181 H   0  0  0  0  0  0  0  0  0  0  0  0
   14.3067   -0.1298   23.1814 H   0  0  0  0  0  0  0  0  0  0  0  0
    3.0153    2.6527   19.3907 H   0  0  0  0  0  0  0  0  0  0  0  0
    5.7015    0.6980   22.1071 H   0  0  0  0  0  0  0  0  0  0  0  0
   11.2082    3.7086   23.7225 H   0  0  0  0  0  0  0  0  0  0  0  0
   11.8683   -0.5260   23.2846 H   0  0  0  0  0  0  0  0  0  0  0  0
    8.9214   -0.1986   25.4206 H   0  0  0  0  0  0  0  0  0  0  0  0
   10.0622   -2.2326   21.8251 H   0  0  0  0  0  0  0  0  0  0  0  0
    4.4064    1.9744   17.4453 H   0  0  0  0  0  0  0  0  0  0  0  0
    8.6882   -2.3542   26.5803 H   0  0  0  0  0  0  0  0  0  0  0  0
    9.9258   -4.3896   22.9914 H   0  0  0  0  0  0  0  0  0  0  0  0
   10.8986   -4.3117   26.8083 H   0  0  0  0  0  0  0  0  0  0  0  0
   10.4916   -6.0336   26.6319 H   0  0  0  0  0  0  0  0  0  0  0  0
    8.4328   -6.6457   25.2617 H   0  0  0  0  0  0  0  0  0  0  0  0
    7.4726   -5.3240   24.5618 H   0  0  0  0  0  0  0  0  0  0  0  0
    9.7638   -5.2402   28.8416 H   0  0  0  0  0  0  0  0  0  0  0  0
    8.8238   -3.9272   28.1248 H   0  0  0  0  0  0  0  0  0  0  0  0
    6.8340   -4.5339   26.8232 H   0  0  0  0  0  0  0  0  0  0  0  0
    6.4551   -6.2523   26.6641 H   0  0  0  0  0  0  0  0  0  0  0  0
    9.5760    1.2490   24.6231 H   0  0  0  0  0  0  0  0  0  0  0  0
    9.3844    2.2230   23.1853 H   0  0  0  0  0  0  0  0  0  0  0  0
    8.0674    0.5009   23.2732 H   0  0  0  0  0  0  0  0  0  0  0  0
    6.8044    0.4388   16.8592 H   0  0  0  0  0  0  0  0  0  0  0  0
    8.2585   -1.5522   21.1129 H   0  0  0  0  0  0  0  0  0  0  0  0
  1  3  1  0  0  0  0
  1  4  2  0  0  0  0
  2  5  1  0  0  0  0
  2  6  2  0  0  0  0
  3  7  2  0  0  0  0
  4  8  1  0  0  0  0
  5 11  2  0  0  0  0
  6 14  1  0  0  0  0
  7 15  1  0  0  0  0
  8 15  2  0  0  0  0
  9 12  2  0  0  0  0
  9 16  1  0  0  0  0
 10 13  1  0  0  0  0
 10 16  2  0  0  0  0
 11 17  1  0  0  0  0
 12 18  1  0  0  0  0
 13 18  2  0  0  0  0
 14 17  2  0  0  0  0
 14 19  1  0  0  0  0
 15 25  1  0  0  0  0
 16 26  1  0  0  0  0
 17 28  1  0  0  0  0
 18 29  1  0  0  0  0
 19 27  2  0  0  0  0
 19 30  1  0  0  0  0
 20 26  1  6  0  0  0
 20 30  1  0  0  0  0
 20 31  2  0  0  0  0
 21 23  1  0  0  0  0
 21 29  1  0  0  0  0
 22 24  1  0  0  0  0
 22 29  1  0  0  0  0
 23 32  1  0  0  0  0
 24 32  1  0  0  0  0
 25 26  1  0  0  0  0
 27 28  1  0  0  0  0
  1 33  1  0  0  0  0
  2 34  1  0  0  0  0
  3 35  1  0  0  0  0
  4 36  1  0  0  0  0
  5 37  1  0  0  0  0
  6 38  1  0  0  0  0
  7 39  1  0  0  0  0
  8 40  1  0  0  0  0
  9 41  1  0  0  0  0
 10 42  1  0  0  0  0
 11 43  1  0  0  0  0
 12 44  1  0  0  0  0
 13 45  1  0  0  0  0
 21 46  1  0  0  0  0
 21 47  1  0  0  0  0
 22 48  1  0  0  0  0
 22 49  1  0  0  0  0
 23 50  1  0  0  0  0
 23 51  1  0  0  0  0
 24 52  1  0  0  0  0
 24 53  1  0  0  0  0
 25 54  1  0  0  0  0
 25 55  1  0  0  0  0
 26 56  1  0  0  0  0
 28 57  1  0  0  0  0
 30 58  1  0  0  0  0
M  END
> <clash_score>
0

> <docking_score>
-8.49863052368164

> <overlap_score>
1.0107591152191162

$$$$
BENZO_248_2
  -OEChem-08222022183D

 55 59  0     1  0  0  0  0  0999 V2000
    4.2750    1.7050   20.8490 C   0  0  0  0  0  0  0  0  0  0  0  0
    3.9160    2.0630   19.5520 C   0  0  0  0  0  0  0  0  0  0  0  0
    5.4210    0.9600   21.0930 C   0  0  0  0  0  0  0  0  0  0  0  0
    9.0720   -1.1280   24.8640 C   0  0  0  0  0  0  0  0  0  0  0  0
    9.7200   -2.2600   22.8630 C   0  0  0  0  0  0  0  0  0  0  0  0
    4.6890    1.6810   18.4640 C   0  0  0  0  0  0  0  0  0  0  0  0
    8.9960   -2.3380   25.5320 C   0  0  0  0  0  0  0  0  0  0  0  0
    9.6730   -3.4710   23.5300 C   0  0  0  0  0  0  0  0  0  0  0  0
   12.3482    0.5241   23.4467 C   0  0  0  0  0  0  0  0  0  0  0  0
   13.6337    1.0166   23.3986 C   0  0  0  0  0  0  0  0  0  0  0  0
   11.9591    2.8148   23.5083 C   0  0  0  0  0  0  0  0  0  0  0  0
    6.1790    0.5730   19.9990 C   0  0  0  0  0  0  0  0  0  0  0  0
    9.3350   -1.0880   23.5010 C   0  0  0  0  0  0  0  0  0  0  0  0
   11.3780    1.5657   23.5101 C   0  0  0  0  0  0  0  0  0  0  0  0
    5.8300    0.9190   18.6970 C   0  0  0  0  0  0  0  0  0  0  0  0
    9.3070   -3.5340   24.8780 C   0  0  0  0  0  0  0  0  0  0  0  0
    7.3170   -0.1610   19.8550 C   0  0  0  0  0  0  0  0  0  0  0  0
    9.0420    0.3700   21.5280 C   0  0  0  0  0  0  0  0  0  0  0  0
   10.0772   -5.0257   26.7191 C   0  0  0  0  0  0  0  0  0  0  0  0
    8.0927   -5.6196   25.4069 C   0  0  0  0  0  0  0  0  0  0  0  0
    9.1935   -4.9431   27.9590 C   0  0  0  0  0  0  0  0  0  0  0  0
    7.2758   -5.5292   26.6966 C   0  0  0  0  0  0  0  0  0  0  0  0
    9.8870    1.3260   23.5730 C   0  0  0  0  0  0  0  0  0  0  0  0
    9.4560    0.1560   22.8130 C   0  0  2  0  0  0  0  0  0  0  0  0
    7.6390   -0.2680   18.5410 N   0  0  0  0  0  0  0  0  0  0  0  0
    6.7580    0.3810   17.8350 N   0  0  0  0  0  0  0  0  0  0  0  0
    9.2564   -4.7368   25.5411 N   0  0  0  0  0  0  0  0  0  0  0  0
    8.1890   -0.7180   20.8700 N   0  0  0  0  0  0  0  0  0  0  0  0
    9.2690    1.4140   20.9380 O   0  0  0  0  0  0  0  0  0  0  0  0
    8.0884   -5.8462   27.8322 O   0  0  0  0  0  0  0  0  0  0  0  0
   13.6675    2.7284   23.4300 S   0  0  0  0  0  0  0  0  0  0  0  0
    3.6468    2.0173   21.6825 H   0  0  0  0  0  0  0  0  0  0  0  0
    3.0153    2.6527   19.3907 H   0  0  0  0  0  0  0  0  0  0  0  0
    5.7015    0.6980   22.1071 H   0  0  0  0  0  0  0  0  0  0  0  0
    8.9214   -0.1986   25.4206 H   0  0  0  0  0  0  0  0  0  0  0  0
   10.0622   -2.2326   21.8251 H   0  0  0  0  0  0  0  0  0  0  0  0
    4.4064    1.9744   17.4453 H   0  0  0  0  0  0  0  0  0  0  0  0
    8.6882   -2.3542   26.5803 H   0  0  0  0  0  0  0  0  0  0  0  0
    9.9258   -4.3896   22.9914 H   0  0  0  0  0  0  0  0  0  0  0  0
   12.1191   -0.5341   23.4370 H   0  0  0  0  0  0  0  0  0  0  0  0
   14.5547    0.4533   23.3471 H   0  0  0  0  0  0  0  0  0  0  0  0
   11.4660    3.7761   23.5503 H   0  0  0  0  0  0  0  0  0  0  0  0
   10.8986   -4.3117   26.8083 H   0  0  0  0  0  0  0  0  0  0  0  0
   10.4916   -6.0336   26.6319 H   0  0  0  0  0  0  0  0  0  0  0  0
    8.4328   -6.6457   25.2617 H   0  0  0  0  0  0  0  0  0  0  0  0
    7.4726   -5.3240   24.5618 H   0  0  0  0  0  0  0  0  0  0  0  0
    9.7638   -5.2402   28.8416 H   0  0  0  0  0  0  0  0  0  0  0  0
    8.8238   -3.9272   28.1248 H   0  0  0  0  0  0  0  0  0  0  0  0
    6.8340   -4.5339   26.8232 H   0  0  0  0  0  0  0  0  0  0  0  0
    6.4551   -6.2523   26.6641 H   0  0  0  0  0  0  0  0  0  0  0  0
    9.5760    1.2490   24.6231 H   0  0  0  0  0  0  0  0  0  0  0  0
    9.3844    2.2230   23.1853 H   0  0  0  0  0  0  0  0  0  0  0  0
    8.0674    0.5009   23.2732 H   0  0  0  0  0  0  0  0  0  0  0  0
    6.8044    0.4388   16.8592 H   0  0  0  0  0  0  0  0  0  0  0  0
    8.2585   -1.5522   21.1129 H   0  0  0  0  0  0  0  0  0  0  0  0
  1  2  1  0  0  0  0
  1  3  2  0  0  0  0
  2  6  2  0  0  0  0
  3 12  1  0  0  0  0
  4  7  2  0  0  0  0
  4 13  1  0  0  0  0
  5  8  1  0  0  0  0
  5 13  2  0  0  0  0
  6 15  1  0  0  0  0
  7 16  1  0  0  0  0
  8 16  2  0  0  0  0
  9 10  2  0  0  0  0
  9 14  1  0  0  0  0
 10 31  1  0  0  0  0
 11 14  2  0  0  0  0
 11 31  1  0  0  0  0
 12 15  2  0  0  0  0
 12 17  1  0  0  0  0
 13 24  1  0  0  0  0
 14 23  1  0  0  0  0
 15 26  1  0  0  0  0
 16 27  1  0  0  0  0
 17 25  2  0  0  0  0
 17 28  1  0  0  0  0
 18 24  1  6  0  0  0
 18 28  1  0  0  0  0
 18 29  2  0  0  0  0
 19 21  1  0  0  0  0
 19 27  1  0  0  0  0
 20 22  1  0  0  0  0
 20 27  1  0  0  0  0
 21 30  1  0  0  0  0
 22 30  1  0  0  0  0
 23 24  1  0  0  0  0
 25 26  1  0  0  0  0
  1 32  1  0  0  0  0
  2 33  1  0  0  0  0
  3 34  1  0  0  0  0
  4 35  1  0  0  0  0
  5 36  1  0  0  0  0
  6 37  1  0  0  0  0
  7 38  1  0  0  0  0
  8 39  1  0  0  0  0
  9 40  1  0  0  0  0
 10 41  1  0  0  0  0
 11 42  1  0  0  0  0
 19 43  1  0  0  0  0
 19 44  1  0  0  0  0
 20 45  1  0  0  0  0
 20 46  1  0  0  0  0
 21 47  1  0  0  0  0
 21 48  1  0  0  0  0
 22 49  1  0  0  0  0
 22 50  1  0  0  0  0
 23 51  1  0  0  0  0
 23 52  1  0  0  0  0
 24 53  1  0  0  0  0
 26 54  1  0  0  0  0
 28 55  1  0  0  0  0
M  END
> <clash_score>
0

> <docking_score>
-8.969152450561523

> <overlap_score>
0.9958126544952393

$$$$
BENZO_250_1
  -OEChem-08222022183D

 58 62  0     1  0  0  0  0  0999 V2000
    4.2750    1.7050   20.8490 C   0  0  0  0  0  0  0  0  0  0  0  0
    3.9160    2.0630   19.5520 C   0  0  0  0  0  0  0  0  0  0  0  0
   13.2943    2.5807   22.4505 C   0  0  0  0  0  0  0  0  0  0  0  0
    5.4210    0.9600   21.0930 C   0  0  0  0  0  0  0  0  0  0  0  0
   12.3047    1.8379   23.0944 C   0  0  0  0  0  0  0  0  0  0  0  0
    9.0720   -1.1280   24.8640 C   0  0  0  0  0  0  0  0  0  0  0  0
    9.7200   -2.2600   22.8630 C   0  0  0  0  0  0  0  0  0  0  0  0
    4.6890    1.6810   18.4640 C   0  0  0  0  0  0  0  0  0  0  0  0
    8.9960   -2.3380   25.5320 C   0  0  0  0  0  0  0  0  0  0  0  0
    9.6730   -3.4710   23.5300 C   0  0  0  0  0  0  0  0  0  0  0  0
   12.9381    3.6176   21.5882 C   0  0  0  0  0  0  0  0  0  0  0  0
   10.6025    3.1689   22.0135 C   0  0  0  0  0  0  0  0  0  0  0  0
    6.1790    0.5730   19.9990 C   0  0  0  0  0  0  0  0  0  0  0  0
    9.3350   -1.0880   23.5010 C   0  0  0  0  0  0  0  0  0  0  0  0
   10.9588    2.1320   22.8759 C   0  0  0  0  0  0  0  0  0  0  0  0
    5.8300    0.9190   18.6970 C   0  0  0  0  0  0  0  0  0  0  0  0
    9.3070   -3.5340   24.8780 C   0  0  0  0  0  0  0  0  0  0  0  0
   11.5922    3.9117   21.3697 C   0  0  0  0  0  0  0  0  0  0  0  0
    7.3170   -0.1610   19.8550 C   0  0  0  0  0  0  0  0  0  0  0  0
    9.0420    0.3700   21.5280 C   0  0  0  0  0  0  0  0  0  0  0  0
    9.5176   -4.8600   26.9769 C   0  0  0  0  0  0  0  0  0  0  0  0
    8.5166   -5.8725   24.9805 C   0  0  0  0  0  0  0  0  0  0  0  0
    8.1870   -5.0443   27.6986 C   0  0  0  0  0  0  0  0  0  0  0  0
    7.2201   -6.0348   25.7753 C   0  0  0  0  0  0  0  0  0  0  0  0
    9.8870    1.3260   23.5730 C   0  0  0  0  0  0  0  0  0  0  0  0
    9.4560    0.1560   22.8130 C   0  0  1  0  0  0  0  0  0  0  0  0
    7.6390   -0.2680   18.5410 N   0  0  0  0  0  0  0  0  0  0  0  0
    6.7580    0.3810   17.8350 N   0  0  0  0  0  0  0  0  0  0  0  0
    9.2564   -4.7368   25.5411 N   0  0  0  0  0  0  0  0  0  0  0  0
    8.1890   -0.7180   20.8700 N   0  0  0  0  0  0  0  0  0  0  0  0
    9.2690    1.4140   20.9380 O   0  0  0  0  0  0  0  0  0  0  0  0
    7.4995   -6.1856   27.1717 O   0  0  0  0  0  0  0  0  0  0  0  0
   11.1532    5.1904   20.3048 Cl  0  0  0  0  0  0  0  0  0  0  0  0
    3.6468    2.0173   21.6825 H   0  0  0  0  0  0  0  0  0  0  0  0
    3.0153    2.6527   19.3907 H   0  0  0  0  0  0  0  0  0  0  0  0
   14.3422    2.3512   22.6208 H   0  0  0  0  0  0  0  0  0  0  0  0
    5.7015    0.6980   22.1071 H   0  0  0  0  0  0  0  0  0  0  0  0
   12.5914    1.0317   23.7645 H   0  0  0  0  0  0  0  0  0  0  0  0
    8.9214   -0.1986   25.4206 H   0  0  0  0  0  0  0  0  0  0  0  0
   10.0622   -2.2326   21.8251 H   0  0  0  0  0  0  0  0  0  0  0  0
    4.4064    1.9744   17.4453 H   0  0  0  0  0  0  0  0  0  0  0  0
    8.6882   -2.3542   26.5803 H   0  0  0  0  0  0  0  0  0  0  0  0
    9.9258   -4.3896   22.9914 H   0  0  0  0  0  0  0  0  0  0  0  0
   13.7201    4.1879   21.0929 H   0  0  0  0  0  0  0  0  0  0  0  0
    9.5518    3.3947   21.8469 H   0  0  0  0  0  0  0  0  0  0  0  0
   10.0207   -3.9702   27.3608 H   0  0  0  0  0  0  0  0  0  0  0  0
   10.1536   -5.7313   27.1546 H   0  0  0  0  0  0  0  0  0  0  0  0
    9.1181   -6.7774   25.0751 H   0  0  0  0  0  0  0  0  0  0  0  0
    8.2812   -5.7063   23.9302 H   0  0  0  0  0  0  0  0  0  0  0  0
    8.3631   -5.2257   28.7609 H   0  0  0  0  0  0  0  0  0  0  0  0
    7.5532   -4.1574   27.6103 H   0  0  0  0  0  0  0  0  0  0  0  0
    6.5460   -5.1840   25.6220 H   0  0  0  0  0  0  0  0  0  0  0  0
    6.6948   -6.9355   25.4433 H   0  0  0  0  0  0  0  0  0  0  0  0
   10.2417    1.0375   24.5711 H   0  0  0  0  0  0  0  0  0  0  0  0
    9.0279    1.9881   23.7492 H   0  0  0  0  0  0  0  0  0  0  0  0
   10.7949   -0.0994   22.4253 H   0  0  0  0  0  0  0  0  0  0  0  0
    6.8044    0.4388   16.8592 H   0  0  0  0  0  0  0  0  0  0  0  0
    8.2585   -1.5522   21.1129 H   0  0  0  0  0  0  0  0  0  0  0  0
  1  2  1  0  0  0  0
  1  4  2  0  0  0  0
  2  8  2  0  0  0  0
  3  5  2  0  0  0  0
  3 11  1  0  0  0  0
  4 13  1  0  0  0  0
  5 15  1  0  0  0  0
  6  9  2  0  0  0  0
  6 14  1  0  0  0  0
  7 10  1  0  0  0  0
  7 14  2  0  0  0  0
  8 16  1  0  0  0  0
  9 17  1  0  0  0  0
 10 17  2  0  0  0  0
 11 18  2  0  0  0  0
 12 15  2  0  0  0  0
 12 18  1  0  0  0  0
 13 16  2  0  0  0  0
 13 19  1  0  0  0  0
 14 26  1  0  0  0  0
 15 25  1  0  0  0  0
 16 28  1  0  0  0  0
 17 29  1  0  0  0  0
 18 33  1  0  0  0  0
 19 27  2  0  0  0  0
 19 30  1  0  0  0  0
 20 26  1  1  0  0  0
 20 30  1  0  0  0  0
 20 31  2  0  0  0  0
 21 23  1  0  0  0  0
 21 29  1  0  0  0  0
 22 24  1  0  0  0  0
 22 29  1  0  0  0  0
 23 32  1  0  0  0  0
 24 32  1  0  0  0  0
 25 26  1  0  0  0  0
 27 28  1  0  0  0  0
  1 34  1  0  0  0  0
  2 35  1  0  0  0  0
  3 36  1  0  0  0  0
  4 37  1  0  0  0  0
  5 38  1  0  0  0  0
  6 39  1  0  0  0  0
  7 40  1  0  0  0  0
  8 41  1  0  0  0  0
  9 42  1  0  0  0  0
 10 43  1  0  0  0  0
 11 44  1  0  0  0  0
 12 45  1  0  0  0  0
 21 46  1  0  0  0  0
 21 47  1  0  0  0  0
 22 48  1  0  0  0  0
 22 49  1  0  0  0  0
 23 50  1  0  0  0  0
 23 51  1  0  0  0  0
 24 52  1  0  0  0  0
 24 53  1  0  0  0  0
 25 54  1  0  0  0  0
 25 55  1  0  0  0  0
 26 56  1  0  0  0  0
 28 57  1  0  0  0  0
 30 58  1  0  0  0  0
M  END
> <clash_score>
2.199912744504704

> <docking_score>
-7.751233100891113

> <overlap_score>
0.970363199710846

$$$$
BENZO_252_1
  -OEChem-08222022183D

 49 52  0     1  0  0  0  0  0999 V2000
    9.0720   -1.1280   24.8640 C   0  0  0  0  0  0  0  0  0  0  0  0
    9.7200   -2.2600   22.8630 C   0  0  0  0  0  0  0  0  0  0  0  0
    8.9960   -2.3380   25.5320 C   0  0  0  0  0  0  0  0  0  0  0  0
    9.6730   -3.4710   23.5300 C   0  0  0  0  0  0  0  0  0  0  0  0
   12.3398    0.5029   23.4216 C   0  0  0  0  0  0  0  0  0  0  0  0
   13.6291    0.9843   23.3622 C   0  0  0  0  0  0  0  0  0  0  0  0
   11.9713    2.7968   23.4917 C   0  0  0  0  0  0  0  0  0  0  0  0
    9.3350   -1.0880   23.5010 C   0  0  0  0  0  0  0  0  0  0  0  0
   11.3794    1.5528   23.4964 C   0  0  0  0  0  0  0  0  0  0  0  0
    9.3070   -3.5340   24.8780 C   0  0  0  0  0  0  0  0  0  0  0  0
    6.1790    0.5730   19.9990 C   0  0  0  0  0  0  0  0  0  0  0  0
    7.3170   -0.1610   19.8550 C   0  0  0  0  0  0  0  0  0  0  0  0
    5.4210    0.9600   21.0930 C   0  0  0  0  0  0  0  0  0  0  0  0
    4.2750    1.7050   20.8490 C   0  0  0  0  0  0  0  0  0  0  0  0
    3.9160    2.0630   19.5520 C   0  0  0  0  0  0  0  0  0  0  0  0
    4.6890    1.6810   18.4640 C   0  0  0  0  0  0  0  0  0  0  0  0
    9.0420    0.3700   21.5280 C   0  0  0  0  0  0  0  0  0  0  0  0
    8.0148   -5.2164   26.1419 C   0  0  0  0  0  0  0  0  0  0  0  0
   10.4390   -5.5857   25.6570 C   0  0  0  0  0  0  0  0  0  0  0  0
    9.8870    1.3260   23.5730 C   0  0  0  0  0  0  0  0  0  0  0  0
    9.4560    0.1560   22.8130 C   0  0  1  0  0  0  0  0  0  0  0  0
    7.6390   -0.2680   18.5410 N   0  0  0  0  0  0  0  0  0  0  0  0
    6.7580    0.3810   17.8350 N   0  0  0  0  0  0  0  0  0  0  0  0
    5.8300    0.9190   18.6970 N   0  0  0  0  0  0  0  0  0  0  0  0
    8.1890   -0.7180   20.8700 N   0  0  0  0  0  0  0  0  0  0  0  0
    9.2556   -4.7554   25.5513 N   0  0  0  0  0  0  0  0  0  0  0  0
    9.2690    1.4140   20.9380 O   0  0  0  0  0  0  0  0  0  0  0  0
   13.6781    2.6957   23.3969 S   0  0  0  0  0  0  0  0  0  0  0  0
    8.9214   -0.1986   25.4206 H   0  0  0  0  0  0  0  0  0  0  0  0
   10.0622   -2.2326   21.8251 H   0  0  0  0  0  0  0  0  0  0  0  0
    8.6882   -2.3542   26.5803 H   0  0  0  0  0  0  0  0  0  0  0  0
    9.9258   -4.3896   22.9914 H   0  0  0  0  0  0  0  0  0  0  0  0
   12.1014   -0.5532   23.4119 H   0  0  0  0  0  0  0  0  0  0  0  0
   14.5445    0.4131   23.3009 H   0  0  0  0  0  0  0  0  0  0  0  0
   11.4871    3.7623   23.5403 H   0  0  0  0  0  0  0  0  0  0  0  0
    5.6855    0.7074   22.1002 H   0  0  0  0  0  0  0  0  0  0  0  0
    3.6634    2.0034   21.6926 H   0  0  0  0  0  0  0  0  0  0  0  0
    3.0111    2.6563   19.3629 H   0  0  0  0  0  0  0  0  0  0  0  0
    4.4370    1.9522   17.4626 H   0  0  0  0  0  0  0  0  0  0  0  0
    8.1775   -6.1919   26.6235 H   0  0  0  0  0  0  0  0  0  0  0  0
    7.6740   -4.4890   26.8933 H   0  0  0  0  0  0  0  0  0  0  0  0
    7.2508   -5.3181   25.3570 H   0  0  0  0  0  0  0  0  0  0  0  0
   10.1974   -6.4996   26.2195 H   0  0  0  0  0  0  0  0  0  0  0  0
   10.7877   -5.8568   24.6496 H   0  0  0  0  0  0  0  0  0  0  0  0
   11.2305   -5.0307   26.1819 H   0  0  0  0  0  0  0  0  0  0  0  0
    9.5854    1.2495   24.6258 H   0  0  0  0  0  0  0  0  0  0  0  0
    9.3886    2.2282   23.1920 H   0  0  0  0  0  0  0  0  0  0  0  0
    8.0686    0.4964   23.2745 H   0  0  0  0  0  0  0  0  0  0  0  0
    8.2392   -1.5641   21.0954 H   0  0  0  0  0  0  0  0  0  0  0  0
  1  3  2  0  0  0  0
  1  8  1  0  0  0  0
  2  4  1  0  0  0  0
  2  8  2  0  0  0  0
  3 10  1  0  0  0  0
  4 10  2  0  0  0  0
  5  6  2  0  0  0  0
  5  9  1  0  0  0  0
  6 28  1  0  0  0  0
  7  9  2  0  0  0  0
  7 28  1  0  0  0  0
  8 21  1  0  0  0  0
  9 20  1  0  0  0  0
 10 26  1  0  0  0  0
 11 12  2  0  0  0  0
 11 13  1  0  0  0  0
 11 24  1  0  0  0  0
 12 22  1  0  0  0  0
 12 25  1  0  0  0  0
 13 14  2  0  0  0  0
 14 15  1  0  0  0  0
 15 16  2  0  0  0  0
 16 24  1  0  0  0  0
 17 21  1  0  0  0  0
 17 25  1  0  0  0  0
 17 27  2  0  0  0  0
 18 26  1  0  0  0  0
 19 26  1  0  0  0  0
 20 21  1  1  0  0  0
 22 23  2  0  0  0  0
 23 24  1  0  0  0  0
  1 29  1  0  0  0  0
  2 30  1  0  0  0  0
  3 31  1  0  0  0  0
  4 32  1  0  0  0  0
  5 33  1  0  0  0  0
  6 34  1  0  0  0  0
  7 35  1  0  0  0  0
 13 36  1  0  0  0  0
 14 37  1  0  0  0  0
 15 38  1  0  0  0  0
 16 39  1  0  0  0  0
 18 40  1  0  0  0  0
 18 41  1  0  0  0  0
 18 42  1  0  0  0  0
 19 43  1  0  0  0  0
 19 44  1  0  0  0  0
 19 45  1  0  0  0  0
 20 46  1  0  0  0  0
 20 47  1  0  0  0  0
 21 48  1  0  0  0  0
 25 49  1  0  0  0  0
M  END
> <clash_score>
0

> <docking_score>
-10.421393394470215

> <overlap_score>
0.9840580821037292

$$$$
BENZO_253_1
  -OEChem-08222022183D

 52 55  0     1  0  0  0  0  0999 V2000
   14.1341    1.9700   23.3554 C   0  0  0  0  0  0  0  0  0  0  0  0
   13.2717    3.0547   23.5141 C   0  0  0  0  0  0  0  0  0  0  0  0
   13.6192    0.6767   23.2672 C   0  0  0  0  0  0  0  0  0  0  0  0
   11.8943    2.8461   23.5846 C   0  0  0  0  0  0  0  0  0  0  0  0
   12.2418    0.4680   23.3377 C   0  0  0  0  0  0  0  0  0  0  0  0
    9.0720   -1.1280   24.8640 C   0  0  0  0  0  0  0  0  0  0  0  0
    9.7200   -2.2600   22.8630 C   0  0  0  0  0  0  0  0  0  0  0  0
    8.9960   -2.3380   25.5320 C   0  0  0  0  0  0  0  0  0  0  0  0
    9.6730   -3.4710   23.5300 C   0  0  0  0  0  0  0  0  0  0  0  0
   11.3794    1.5528   23.4964 C   0  0  0  0  0  0  0  0  0  0  0  0
    9.3350   -1.0880   23.5010 C   0  0  0  0  0  0  0  0  0  0  0  0
    9.3070   -3.5340   24.8780 C   0  0  0  0  0  0  0  0  0  0  0  0
    6.1790    0.5730   19.9990 C   0  0  0  0  0  0  0  0  0  0  0  0
    7.3170   -0.1610   19.8550 C   0  0  0  0  0  0  0  0  0  0  0  0
    5.4210    0.9600   21.0930 C   0  0  0  0  0  0  0  0  0  0  0  0
    4.2750    1.7050   20.8490 C   0  0  0  0  0  0  0  0  0  0  0  0
    3.9160    2.0630   19.5520 C   0  0  0  0  0  0  0  0  0  0  0  0
    4.6890    1.6810   18.4640 C   0  0  0  0  0  0  0  0  0  0  0  0
    9.0420    0.3700   21.5280 C   0  0  0  0  0  0  0  0  0  0  0  0
    8.0148   -5.2164   26.1419 C   0  0  0  0  0  0  0  0  0  0  0  0
   10.4390   -5.5857   25.6570 C   0  0  0  0  0  0  0  0  0  0  0  0
    9.8870    1.3260   23.5730 C   0  0  0  0  0  0  0  0  0  0  0  0
    9.4560    0.1560   22.8130 C   0  0  1  0  0  0  0  0  0  0  0  0
    7.6390   -0.2680   18.5410 N   0  0  0  0  0  0  0  0  0  0  0  0
    6.7580    0.3810   17.8350 N   0  0  0  0  0  0  0  0  0  0  0  0
    5.8300    0.9190   18.6970 N   0  0  0  0  0  0  0  0  0  0  0  0
    8.1890   -0.7180   20.8700 N   0  0  0  0  0  0  0  0  0  0  0  0
    9.2556   -4.7554   25.5513 N   0  0  0  0  0  0  0  0  0  0  0  0
    9.2690    1.4140   20.9380 O   0  0  0  0  0  0  0  0  0  0  0  0
   15.2065    2.1328   23.2992 H   0  0  0  0  0  0  0  0  0  0  0  0
   13.6724    4.0620   23.5817 H   0  0  0  0  0  0  0  0  0  0  0  0
   14.2903   -0.1680   23.1426 H   0  0  0  0  0  0  0  0  0  0  0  0
   11.2299    3.6973   23.7085 H   0  0  0  0  0  0  0  0  0  0  0  0
   11.8496   -0.5431   23.2682 H   0  0  0  0  0  0  0  0  0  0  0  0
    8.9214   -0.1986   25.4206 H   0  0  0  0  0  0  0  0  0  0  0  0
   10.0622   -2.2326   21.8251 H   0  0  0  0  0  0  0  0  0  0  0  0
    8.6882   -2.3542   26.5803 H   0  0  0  0  0  0  0  0  0  0  0  0
    9.9258   -4.3896   22.9914 H   0  0  0  0  0  0  0  0  0  0  0  0
    5.6855    0.7074   22.1002 H   0  0  0  0  0  0  0  0  0  0  0  0
    3.6634    2.0034   21.6926 H   0  0  0  0  0  0  0  0  0  0  0  0
    3.0111    2.6563   19.3629 H   0  0  0  0  0  0  0  0  0  0  0  0
    4.4370    1.9522   17.4626 H   0  0  0  0  0  0  0  0  0  0  0  0
    8.1775   -6.1919   26.6235 H   0  0  0  0  0  0  0  0  0  0  0  0
    7.6740   -4.4890   26.8933 H   0  0  0  0  0  0  0  0  0  0  0  0
    7.2508   -5.3181   25.3570 H   0  0  0  0  0  0  0  0  0  0  0  0
   10.1974   -6.4996   26.2195 H   0  0  0  0  0  0  0  0  0  0  0  0
   10.7877   -5.8568   24.6496 H   0  0  0  0  0  0  0  0  0  0  0  0
   11.2305   -5.0307   26.1819 H   0  0  0  0  0  0  0  0  0  0  0  0
    9.5854    1.2495   24.6258 H   0  0  0  0  0  0  0  0  0  0  0  0
    9.3886    2.2282   23.1920 H   0  0  0  0  0  0  0  0  0  0  0  0
    8.0686    0.4964   23.2745 H   0  0  0  0  0  0  0  0  0  0  0  0
    8.2392   -1.5641   21.0954 H   0  0  0  0  0  0  0  0  0  0  0  0
  1  2  1  0  0  0  0
  1  3  2  0  0  0  0
  2  4  2  0  0  0  0
  3  5  1  0  0  0  0
  4 10  1  0  0  0  0
  5 10  2  0  0  0  0
  6  8  2  0  0  0  0
  6 11  1  0  0  0  0
  7  9  1  0  0  0  0
  7 11  2  0  0  0  0
  8 12  1  0  0  0  0
  9 12  2  0  0  0  0
 10 22  1  0  0  0  0
 11 23  1  0  0  0  0
 12 28  1  0  0  0  0
 13 14  2  0  0  0  0
 13 15  1  0  0  0  0
 13 26  1  0  0  0  0
 14 24  1  0  0  0  0
 14 27  1  0  0  0  0
 15 16  2  0  0  0  0
 16 17  1  0  0  0  0
 17 18  2  0  0  0  0
 18 26  1  0  0  0  0
 19 23  1  0  0  0  0
 19 27  1  0  0  0  0
 19 29  2  0  0  0  0
 20 28  1  0  0  0  0
 21 28  1  0  0  0  0
 22 23  1  1  0  0  0
 24 25  2  0  0  0  0
 25 26  1  0  0  0  0
  1 30  1  0  0  0  0
  2 31  1  0  0  0  0
  3 32  1  0  0  0  0
  4 33  1  0  0  0  0
  5 34  1  0  0  0  0
  6 35  1  0  0  0  0
  7 36  1  0  0  0  0
  8 37  1  0  0  0  0
  9 38  1  0  0  0  0
 15 39  1  0  0  0  0
 16 40  1  0  0  0  0
 17 41  1  0  0  0  0
 18 42  1  0  0  0  0
 20 43  1  0  0  0  0
 20 44  1  0  0  0  0
 20 45  1  0  0  0  0
 21 46  1  0  0  0  0
 21 47  1  0  0  0  0
 21 48  1  0  0  0  0
 22 49  1  0  0  0  0
 22 50  1  0  0  0  0
 23 51  1  0  0  0  0
 27 52  1  0  0  0  0
M  END
> <clash_score>
0

> <docking_score>
-9.957218170166016

> <overlap_score>
0.9993512034416199

$$$$
BENZO_252_2
  -OEChem-08222022183D

 49 52  0     1  0  0  0  0  0999 V2000
    9.0720   -1.1280   24.8640 C   0  0  0  0  0  0  0  0  0  0  0  0
    9.7200   -2.2600   22.8630 C   0  0  0  0  0  0  0  0  0  0  0  0
    8.9960   -2.3380   25.5320 C   0  0  0  0  0  0  0  0  0  0  0  0
    9.6730   -3.4710   23.5300 C   0  0  0  0  0  0  0  0  0  0  0  0
   12.3907    0.6679   23.6950 C   0  0  0  0  0  0  0  0  0  0  0  0
   13.4189    0.5308   24.6014 C   0  0  0  0  0  0  0  0  0  0  0  0
   11.3314    1.2632   25.6763 C   0  0  0  0  0  0  0  0  0  0  0  0
    9.3350   -1.0880   23.5010 C   0  0  0  0  0  0  0  0  0  0  0  0
   11.1814    1.0923   24.3176 C   0  0  0  0  0  0  0  0  0  0  0  0
    9.3070   -3.5340   24.8780 C   0  0  0  0  0  0  0  0  0  0  0  0
    6.1790    0.5730   19.9990 C   0  0  0  0  0  0  0  0  0  0  0  0
    7.3170   -0.1610   19.8550 C   0  0  0  0  0  0  0  0  0  0  0  0
    5.4210    0.9600   21.0930 C   0  0  0  0  0  0  0  0  0  0  0  0
    4.2750    1.7050   20.8490 C   0  0  0  0  0  0  0  0  0  0  0  0
    3.9160    2.0630   19.5520 C   0  0  0  0  0  0  0  0  0  0  0  0
    4.6890    1.6810   18.4640 C   0  0  0  0  0  0  0  0  0  0  0  0
    9.0420    0.3700   21.5280 C   0  0  0  0  0  0  0  0  0  0  0  0
    8.0148   -5.2164   26.1419 C   0  0  0  0  0  0  0  0  0  0  0  0
   10.4390   -5.5857   25.6570 C   0  0  0  0  0  0  0  0  0  0  0  0
    9.8870    1.3260   23.5730 C   0  0  0  0  0  0  0  0  0  0  0  0
    9.4560    0.1560   22.8130 C   0  0  2  0  0  0  0  0  0  0  0  0
    7.6390   -0.2680   18.5410 N   0  0  0  0  0  0  0  0  0  0  0  0
    6.7580    0.3810   17.8350 N   0  0  0  0  0  0  0  0  0  0  0  0
    5.8300    0.9190   18.6970 N   0  0  0  0  0  0  0  0  0  0  0  0
    8.1890   -0.7180   20.8700 N   0  0  0  0  0  0  0  0  0  0  0  0
    9.2556   -4.7554   25.5513 N   0  0  0  0  0  0  0  0  0  0  0  0
    9.2690    1.4140   20.9380 O   0  0  0  0  0  0  0  0  0  0  0  0
   12.9250    0.9128   26.1959 S   0  0  0  0  0  0  0  0  0  0  0  0
    8.9214   -0.1986   25.4206 H   0  0  0  0  0  0  0  0  0  0  0  0
   10.0622   -2.2326   21.8251 H   0  0  0  0  0  0  0  0  0  0  0  0
    8.6882   -2.3542   26.5803 H   0  0  0  0  0  0  0  0  0  0  0  0
    9.9258   -4.3896   22.9914 H   0  0  0  0  0  0  0  0  0  0  0  0
   12.5049    0.4716   22.6364 H   0  0  0  0  0  0  0  0  0  0  0  0
   14.4362    0.2239   24.4037 H   0  0  0  0  0  0  0  0  0  0  0  0
   10.5839    1.5757   26.3924 H   0  0  0  0  0  0  0  0  0  0  0  0
    5.6855    0.7074   22.1002 H   0  0  0  0  0  0  0  0  0  0  0  0
    3.6634    2.0034   21.6926 H   0  0  0  0  0  0  0  0  0  0  0  0
    3.0111    2.6563   19.3629 H   0  0  0  0  0  0  0  0  0  0  0  0
    4.4370    1.9522   17.4626 H   0  0  0  0  0  0  0  0  0  0  0  0
    8.1775   -6.1919   26.6235 H   0  0  0  0  0  0  0  0  0  0  0  0
    7.6740   -4.4890   26.8933 H   0  0  0  0  0  0  0  0  0  0  0  0
    7.2508   -5.3181   25.3570 H   0  0  0  0  0  0  0  0  0  0  0  0
   10.1974   -6.4996   26.2195 H   0  0  0  0  0  0  0  0  0  0  0  0
   10.7877   -5.8568   24.6496 H   0  0  0  0  0  0  0  0  0  0  0  0
   11.2305   -5.0307   26.1819 H   0  0  0  0  0  0  0  0  0  0  0  0
    9.1131    1.6463   24.2828 H   0  0  0  0  0  0  0  0  0  0  0  0
   10.0354    2.1807   22.8984 H   0  0  0  0  0  0  0  0  0  0  0  0
   10.7927   -0.1029   22.4279 H   0  0  0  0  0  0  0  0  0  0  0  0
    8.2392   -1.5641   21.0954 H   0  0  0  0  0  0  0  0  0  0  0  0
  1  3  2  0  0  0  0
  1  8  1  0  0  0  0
  2  4  1  0  0  0  0
  2  8  2  0  0  0  0
  3 10  1  0  0  0  0
  4 10  2  0  0  0  0
  5  6  2  0  0  0  0
  5  9  1  0  0  0  0
  6 28  1  0  0  0  0
  7  9  2  0  0  0  0
  7 28  1  0  0  0  0
  8 21  1  0  0  0  0
  9 20  1  0  0  0  0
 10 26  1  0  0  0  0
 11 12  2  0  0  0  0
 11 13  1  0  0  0  0
 11 24  1  0  0  0  0
 12 22  1  0  0  0  0
 12 25  1  0  0  0  0
 13 14  2  0  0  0  0
 14 15  1  0  0  0  0
 15 16  2  0  0  0  0
 16 24  1  0  0  0  0
 17 21  1  0  0  0  0
 17 25  1  0  0  0  0
 17 27  2  0  0  0  0
 18 26  1  0  0  0  0
 19 26  1  0  0  0  0
 20 21  1  6  0  0  0
 22 23  2  0  0  0  0
 23 24  1  0  0  0  0
  1 29  1  0  0  0  0
  2 30  1  0  0  0  0
  3 31  1  0  0  0  0
  4 32  1  0  0  0  0
  5 33  1  0  0  0  0
  6 34  1  0  0  0  0
  7 35  1  0  0  0  0
 13 36  1  0  0  0  0
 14 37  1  0  0  0  0
 15 38  1  0  0  0  0
 16 39  1  0  0  0  0
 18 40  1  0  0  0  0
 18 41  1  0  0  0  0
 18 42  1  0  0  0  0
 19 43  1  0  0  0  0
 19 44  1  0  0  0  0
 19 45  1  0  0  0  0
 20 46  1  0  0  0  0
 20 47  1  0  0  0  0
 21 48  1  0  0  0  0
 25 49  1  0  0  0  0
M  END
> <clash_score>
0.6216867689726071

> <docking_score>
-8.307257652282715

> <overlap_score>
0.9070502519607544

$$$$
BENZO_253_2
  -OEChem-08222022183D

 52 55  0     1  0  0  0  0  0999 V2000
   12.9427    3.5803   21.5528 C   0  0  0  0  0  0  0  0  0  0  0  0
   13.2971    2.5494   22.4231 C   0  0  0  0  0  0  0  0  0  0  0  0
   11.5975    3.8801   21.3380 C   0  0  0  0  0  0  0  0  0  0  0  0
   12.3064    1.8183   23.0784 C   0  0  0  0  0  0  0  0  0  0  0  0
   10.6067    3.1489   21.9933 C   0  0  0  0  0  0  0  0  0  0  0  0
    9.0720   -1.1280   24.8640 C   0  0  0  0  0  0  0  0  0  0  0  0
    9.7200   -2.2600   22.8630 C   0  0  0  0  0  0  0  0  0  0  0  0
    8.9960   -2.3380   25.5320 C   0  0  0  0  0  0  0  0  0  0  0  0
    9.6730   -3.4710   23.5300 C   0  0  0  0  0  0  0  0  0  0  0  0
   10.9611    2.1180   22.8635 C   0  0  0  0  0  0  0  0  0  0  0  0
    9.3350   -1.0880   23.5010 C   0  0  0  0  0  0  0  0  0  0  0  0
    9.3070   -3.5340   24.8780 C   0  0  0  0  0  0  0  0  0  0  0  0
    6.1790    0.5730   19.9990 C   0  0  0  0  0  0  0  0  0  0  0  0
    7.3170   -0.1610   19.8550 C   0  0  0  0  0  0  0  0  0  0  0  0
    5.4210    0.9600   21.0930 C   0  0  0  0  0  0  0  0  0  0  0  0
    4.2750    1.7050   20.8490 C   0  0  0  0  0  0  0  0  0  0  0  0
    3.9160    2.0630   19.5520 C   0  0  0  0  0  0  0  0  0  0  0  0
    4.6890    1.6810   18.4640 C   0  0  0  0  0  0  0  0  0  0  0  0
    9.0420    0.3700   21.5280 C   0  0  0  0  0  0  0  0  0  0  0  0
    8.8766   -4.8076   26.9494 C   0  0  0  0  0  0  0  0  0  0  0  0
    9.5670   -5.9896   24.8578 C   0  0  0  0  0  0  0  0  0  0  0  0
    9.8870    1.3260   23.5730 C   0  0  0  0  0  0  0  0  0  0  0  0
    9.4560    0.1560   22.8130 C   0  0  2  0  0  0  0  0  0  0  0  0
    7.6390   -0.2680   18.5410 N   0  0  0  0  0  0  0  0  0  0  0  0
    6.7580    0.3810   17.8350 N   0  0  0  0  0  0  0  0  0  0  0  0
    5.8300    0.9190   18.6970 N   0  0  0  0  0  0  0  0  0  0  0  0
    8.1890   -0.7180   20.8700 N   0  0  0  0  0  0  0  0  0  0  0  0
    9.2556   -4.7554   25.5513 N   0  0  0  0  0  0  0  0  0  0  0  0
    9.2690    1.4140   20.9380 O   0  0  0  0  0  0  0  0  0  0  0  0
   13.7143    4.1504   21.0437 H   0  0  0  0  0  0  0  0  0  0  0  0
   14.3446    2.3166   22.5913 H   0  0  0  0  0  0  0  0  0  0  0  0
   11.3212    4.6833   20.6614 H   0  0  0  0  0  0  0  0  0  0  0  0
   12.5919    1.0167   23.7545 H   0  0  0  0  0  0  0  0  0  0  0  0
    9.5611    3.3895   21.8196 H   0  0  0  0  0  0  0  0  0  0  0  0
    8.9214   -0.1986   25.4206 H   0  0  0  0  0  0  0  0  0  0  0  0
   10.0622   -2.2326   21.8251 H   0  0  0  0  0  0  0  0  0  0  0  0
    8.6882   -2.3542   26.5803 H   0  0  0  0  0  0  0  0  0  0  0  0
    9.9258   -4.3896   22.9914 H   0  0  0  0  0  0  0  0  0  0  0  0
    5.6855    0.7074   22.1002 H   0  0  0  0  0  0  0  0  0  0  0  0
    3.6634    2.0034   21.6926 H   0  0  0  0  0  0  0  0  0  0  0  0
    3.0111    2.6563   19.3629 H   0  0  0  0  0  0  0  0  0  0  0  0
    4.4370    1.9522   17.4626 H   0  0  0  0  0  0  0  0  0  0  0  0
    8.8956   -5.8513   27.2963 H   0  0  0  0  0  0  0  0  0  0  0  0
    9.5845   -4.2109   27.5435 H   0  0  0  0  0  0  0  0  0  0  0  0
    7.8621   -4.3997   27.0696 H   0  0  0  0  0  0  0  0  0  0  0  0
    9.4708   -6.8361   25.5536 H   0  0  0  0  0  0  0  0  0  0  0  0
    8.8693   -6.1242   24.0180 H   0  0  0  0  0  0  0  0  0  0  0  0
   10.5973   -5.9450   24.4750 H   0  0  0  0  0  0  0  0  0  0  0  0
   10.2455    1.0419   24.5710 H   0  0  0  0  0  0  0  0  0  0  0  0
    9.0345    1.9965   23.7496 H   0  0  0  0  0  0  0  0  0  0  0  0
   10.7927   -0.1029   22.4279 H   0  0  0  0  0  0  0  0  0  0  0  0
    8.2392   -1.5641   21.0954 H   0  0  0  0  0  0  0  0  0  0  0  0
  1  2  1  0  0  0  0
  1  3  2  0  0  0  0
  2  4  2  0  0  0  0
  3  5  1  0  0  0  0
  4 10  1  0  0  0  0
  5 10  2  0  0  0  0
  6  8  2  0  0  0  0
  6 11  1  0  0  0  0
  7  9  1  0  0  0  0
  7 11  2  0  0  0  0
  8 12  1  0  0  0  0
  9 12  2  0  0  0  0
 10 22  1  0  0  0  0
 11 23  1  0  0  0  0
 12 28  1  0  0  0  0
 13 14  2  0  0  0  0
 13 15  1  0  0  0  0
 13 26  1  0  0  0  0
 14 24  1  0  0  0  0
 14 27  1  0  0  0  0
 15 16  2  0  0  0  0
 16 17  1  0  0  0  0
 17 18  2  0  0  0  0
 18 26  1  0  0  0  0
 19 23  1  0  0  0  0
 19 27  1  0  0  0  0
 19 29  2  0  0  0  0
 20 28  1  0  0  0  0
 21 28  1  0  0  0  0
 22 23  1  6  0  0  0
 24 25  2  0  0  0  0
 25 26  1  0  0  0  0
  1 30  1  0  0  0  0
  2 31  1  0  0  0  0
  3 32  1  0  0  0  0
  4 33  1  0  0  0  0
  5 34  1  0  0  0  0
  6 35  1  0  0  0  0
  7 36  1  0  0  0  0
  8 37  1  0  0  0  0
  9 38  1  0  0  0  0
 15 39  1  0  0  0  0
 16 40  1  0  0  0  0
 17 41  1  0  0  0  0
 18 42  1  0  0  0  0
 20 43  1  0  0  0  0
 20 44  1  0  0  0  0
 20 45  1  0  0  0  0
 21 46  1  0  0  0  0
 21 47  1  0  0  0  0
 21 48  1  0  0  0  0
 22 49  1  0  0  0  0
 22 50  1  0  0  0  0
 23 51  1  0  0  0  0
 27 52  1  0  0  0  0
M  END
> <clash_score>
0.6163882399364046

> <docking_score>
-9.55624008178711

> <overlap_score>
0.9613717794418335

$$$$
BENZO_251_2
  -OEChem-08222022183D

 58 62  0     1  0  0  0  0  0999 V2000
    4.2750    1.7050   20.8490 C   0  0  0  0  0  0  0  0  0  0  0  0
    3.9160    2.0630   19.5520 C   0  0  0  0  0  0  0  0  0  0  0  0
    5.4210    0.9600   21.0930 C   0  0  0  0  0  0  0  0  0  0  0  0
    9.0720   -1.1280   24.8640 C   0  0  0  0  0  0  0  0  0  0  0  0
    9.7200   -2.2600   22.8630 C   0  0  0  0  0  0  0  0  0  0  0  0
    4.6890    1.6810   18.4640 C   0  0  0  0  0  0  0  0  0  0  0  0
    8.9960   -2.3380   25.5320 C   0  0  0  0  0  0  0  0  0  0  0  0
    9.6730   -3.4710   23.5300 C   0  0  0  0  0  0  0  0  0  0  0  0
   12.3549    1.9792   22.9728 C   0  0  0  0  0  0  0  0  0  0  0  0
   10.7877    3.1780   22.0023 C   0  0  0  0  0  0  0  0  0  0  0  0
    6.1790    0.5730   19.9990 C   0  0  0  0  0  0  0  0  0  0  0  0
    9.3350   -1.0880   23.5010 C   0  0  0  0  0  0  0  0  0  0  0  0
   10.9588    2.1320   22.8759 C   0  0  0  0  0  0  0  0  0  0  0  0
    5.8300    0.9190   18.6970 C   0  0  0  0  0  0  0  0  0  0  0  0
    9.3070   -3.5340   24.8780 C   0  0  0  0  0  0  0  0  0  0  0  0
    7.3170   -0.1610   19.8550 C   0  0  0  0  0  0  0  0  0  0  0  0
    9.0420    0.3700   21.5280 C   0  0  0  0  0  0  0  0  0  0  0  0
    9.5176   -4.8600   26.9769 C   0  0  0  0  0  0  0  0  0  0  0  0
    8.5166   -5.8725   24.9805 C   0  0  0  0  0  0  0  0  0  0  0  0
    8.1870   -5.0443   27.6986 C   0  0  0  0  0  0  0  0  0  0  0  0
    7.2201   -6.0348   25.7753 C   0  0  0  0  0  0  0  0  0  0  0  0
   12.3765    4.6444   20.7357 C   0  0  0  0  0  0  0  0  0  0  0  0
    9.8870    1.3260   23.5730 C   0  0  0  0  0  0  0  0  0  0  0  0
    9.4560    0.1560   22.8130 C   0  0  2  0  0  0  0  0  0  0  0  0
   13.0232    2.8576   22.2206 N   0  0  0  0  0  0  0  0  0  0  0  0
    7.6390   -0.2680   18.5410 N   0  0  0  0  0  0  0  0  0  0  0  0
    6.7580    0.3810   17.8350 N   0  0  0  0  0  0  0  0  0  0  0  0
   12.0428    3.5725   21.6427 N   0  0  0  0  0  0  0  0  0  0  0  0
    9.2564   -4.7368   25.5411 N   0  0  0  0  0  0  0  0  0  0  0  0
    8.1890   -0.7180   20.8700 N   0  0  0  0  0  0  0  0  0  0  0  0
    9.2690    1.4140   20.9380 O   0  0  0  0  0  0  0  0  0  0  0  0
    7.4995   -6.1856   27.1717 O   0  0  0  0  0  0  0  0  0  0  0  0
    3.6468    2.0173   21.6825 H   0  0  0  0  0  0  0  0  0  0  0  0
    3.0153    2.6527   19.3907 H   0  0  0  0  0  0  0  0  0  0  0  0
    5.7015    0.6980   22.1071 H   0  0  0  0  0  0  0  0  0  0  0  0
    8.9214   -0.1986   25.4206 H   0  0  0  0  0  0  0  0  0  0  0  0
   10.0622   -2.2326   21.8251 H   0  0  0  0  0  0  0  0  0  0  0  0
    4.4064    1.9744   17.4453 H   0  0  0  0  0  0  0  0  0  0  0  0
    8.6882   -2.3542   26.5803 H   0  0  0  0  0  0  0  0  0  0  0  0
    9.9258   -4.3896   22.9914 H   0  0  0  0  0  0  0  0  0  0  0  0
   12.9154    1.2645   23.5587 H   0  0  0  0  0  0  0  0  0  0  0  0
    9.9018    3.6623   21.6145 H   0  0  0  0  0  0  0  0  0  0  0  0
   10.0207   -3.9702   27.3608 H   0  0  0  0  0  0  0  0  0  0  0  0
   10.1536   -5.7313   27.1546 H   0  0  0  0  0  0  0  0  0  0  0  0
    9.1181   -6.7774   25.0751 H   0  0  0  0  0  0  0  0  0  0  0  0
    8.2812   -5.7063   23.9302 H   0  0  0  0  0  0  0  0  0  0  0  0
    8.3631   -5.2257   28.7609 H   0  0  0  0  0  0  0  0  0  0  0  0
    7.5532   -4.1574   27.6103 H   0  0  0  0  0  0  0  0  0  0  0  0
    6.5460   -5.1840   25.6220 H   0  0  0  0  0  0  0  0  0  0  0  0
    6.6948   -6.9355   25.4433 H   0  0  0  0  0  0  0  0  0  0  0  0
   12.4726    5.5632   21.3202 H   0  0  0  0  0  0  0  0  0  0  0  0
   13.3178    4.4131   20.2294 H   0  0  0  0  0  0  0  0  0  0  0  0
   11.5839    4.7460   19.9892 H   0  0  0  0  0  0  0  0  0  0  0  0
   10.2417    1.0375   24.5711 H   0  0  0  0  0  0  0  0  0  0  0  0
    9.0279    1.9881   23.7492 H   0  0  0  0  0  0  0  0  0  0  0  0
   10.7949   -0.0994   22.4253 H   0  0  0  0  0  0  0  0  0  0  0  0
    6.8044    0.4388   16.8592 H   0  0  0  0  0  0  0  0  0  0  0  0
    8.2585   -1.5522   21.1129 H   0  0  0  0  0  0  0  0  0  0  0  0
  1  2  1  0  0  0  0
  1  3  2  0  0  0  0
  2  6  2  0  0  0  0
  3 11  1  0  0  0  0
  4  7  2  0  0  0  0
  4 12  1  0  0  0  0
  5  8  1  0  0  0  0
  5 12  2  0  0  0  0
  6 14  1  0  0  0  0
  7 15  1  0  0  0  0
  8 15  2  0  0  0  0
  9 13  1  0  0  0  0
  9 25  2  0  0  0  0
 10 13  2  0  0  0  0
 10 28  1  0  0  0  0
 11 14  2  0  0  0  0
 11 16  1  0  0  0  0
 12 24  1  0  0  0  0
 13 23  1  0  0  0  0
 14 27  1  0  0  0  0
 15 29  1  0  0  0  0
 16 26  2  0  0  0  0
 16 30  1  0  0  0  0
 17 24  1  0  0  0  0
 17 30  1  0  0  0  0
 17 31  2  0  0  0  0
 18 20  1  0  0  0  0
 18 29  1  0  0  0  0
 19 21  1  0  0  0  0
 19 29  1  0  0  0  0
 20 32  1  0  0  0  0
 21 32  1  0  0  0  0
 22 28  1  0  0  0  0
 23 24  1  6  0  0  0
 25 28  1  0  0  0  0
 26 27  1  0  0  0  0
  1 33  1  0  0  0  0
  2 34  1  0  0  0  0
  3 35  1  0  0  0  0
  4 36  1  0  0  0  0
  5 37  1  0  0  0  0
  6 38  1  0  0  0  0
  7 39  1  0  0  0  0
  8 40  1  0  0  0  0
  9 41  1  0  0  0  0
 10 42  1  0  0  0  0
 18 43  1  0  0  0  0
 18 44  1  0  0  0  0
 19 45  1  0  0  0  0
 19 46  1  0  0  0  0
 20 47  1  0  0  0  0
 20 48  1  0  0  0  0
 21 49  1  0  0  0  0
 21 50  1  0  0  0  0
 22 51  1  0  0  0  0
 22 52  1  0  0  0  0
 22 53  1  0  0  0  0
 23 54  1  0  0  0  0
 23 55  1  0  0  0  0
 24 56  1  0  0  0  0
 27 57  1  0  0  0  0
 30 58  1  0  0  0  0
M  END
> <clash_score>
0

> <docking_score>
-7.224663734436035

> <overlap_score>
0.9648752212524414

$$$$
BENZO_250_2
  -OEChem-08222022183D

 58 62  0     1  0  0  0  0  0999 V2000
    4.2750    1.7050   20.8490 C   0  0  0  0  0  0  0  0  0  0  0  0
    3.9160    2.0630   19.5520 C   0  0  0  0  0  0  0  0  0  0  0  0
   13.6270    0.7091   23.2981 C   0  0  0  0  0  0  0  0  0  0  0  0
    5.4210    0.9600   21.0930 C   0  0  0  0  0  0  0  0  0  0  0  0
   12.2510    0.4886   23.3573 C   0  0  0  0  0  0  0  0  0  0  0  0
    9.0720   -1.1280   24.8640 C   0  0  0  0  0  0  0  0  0  0  0  0
    9.7200   -2.2600   22.8630 C   0  0  0  0  0  0  0  0  0  0  0  0
    4.6890    1.6810   18.4640 C   0  0  0  0  0  0  0  0  0  0  0  0
    8.9960   -2.3380   25.5320 C   0  0  0  0  0  0  0  0  0  0  0  0
    9.6730   -3.4710   23.5300 C   0  0  0  0  0  0  0  0  0  0  0  0
   14.1301    2.0068   23.3918 C   0  0  0  0  0  0  0  0  0  0  0  0
   11.8810    2.8633   23.6037 C   0  0  0  0  0  0  0  0  0  0  0  0
    6.1790    0.5730   19.9990 C   0  0  0  0  0  0  0  0  0  0  0  0
    9.3350   -1.0880   23.5010 C   0  0  0  0  0  0  0  0  0  0  0  0
   11.3780    1.5657   23.5101 C   0  0  0  0  0  0  0  0  0  0  0  0
    5.8300    0.9190   18.6970 C   0  0  0  0  0  0  0  0  0  0  0  0
    9.3070   -3.5340   24.8780 C   0  0  0  0  0  0  0  0  0  0  0  0
   13.2570    3.0839   23.5445 C   0  0  0  0  0  0  0  0  0  0  0  0
    7.3170   -0.1610   19.8550 C   0  0  0  0  0  0  0  0  0  0  0  0
    9.0420    0.3700   21.5280 C   0  0  0  0  0  0  0  0  0  0  0  0
   10.0772   -5.0257   26.7191 C   0  0  0  0  0  0  0  0  0  0  0  0
    8.0927   -5.6196   25.4069 C   0  0  0  0  0  0  0  0  0  0  0  0
    9.1935   -4.9431   27.9590 C   0  0  0  0  0  0  0  0  0  0  0  0
    7.2758   -5.5292   26.6966 C   0  0  0  0  0  0  0  0  0  0  0  0
    9.8870    1.3260   23.5730 C   0  0  0  0  0  0  0  0  0  0  0  0
    9.4560    0.1560   22.8130 C   0  0  2  0  0  0  0  0  0  0  0  0
    7.6390   -0.2680   18.5410 N   0  0  0  0  0  0  0  0  0  0  0  0
    6.7580    0.3810   17.8350 N   0  0  0  0  0  0  0  0  0  0  0  0
    9.2564   -4.7368   25.5411 N   0  0  0  0  0  0  0  0  0  0  0  0
    8.1890   -0.7180   20.8700 N   0  0  0  0  0  0  0  0  0  0  0  0
    9.2690    1.4140   20.9380 O   0  0  0  0  0  0  0  0  0  0  0  0
    8.0884   -5.8462   27.8322 O   0  0  0  0  0  0  0  0  0  0  0  0
   13.8782    4.6848   23.6588 Cl  0  0  0  0  0  0  0  0  0  0  0  0
    3.6468    2.0173   21.6825 H   0  0  0  0  0  0  0  0  0  0  0  0
    3.0153    2.6527   19.3907 H   0  0  0  0  0  0  0  0  0  0  0  0
   14.3065   -0.1299   23.1790 H   0  0  0  0  0  0  0  0  0  0  0  0
    5.7015    0.6980   22.1071 H   0  0  0  0  0  0  0  0  0  0  0  0
   11.8679   -0.5259   23.2835 H   0  0  0  0  0  0  0  0  0  0  0  0
    8.9214   -0.1986   25.4206 H   0  0  0  0  0  0  0  0  0  0  0  0
   10.0622   -2.2326   21.8251 H   0  0  0  0  0  0  0  0  0  0  0  0
    4.4064    1.9744   17.4453 H   0  0  0  0  0  0  0  0  0  0  0  0
    8.6882   -2.3542   26.5803 H   0  0  0  0  0  0  0  0  0  0  0  0
    9.9258   -4.3896   22.9914 H   0  0  0  0  0  0  0  0  0  0  0  0
   15.2048    2.1638   23.3438 H   0  0  0  0  0  0  0  0  0  0  0  0
   11.1962    3.6997   23.7233 H   0  0  0  0  0  0  0  0  0  0  0  0
   10.8986   -4.3117   26.8083 H   0  0  0  0  0  0  0  0  0  0  0  0
   10.4916   -6.0336   26.6319 H   0  0  0  0  0  0  0  0  0  0  0  0
    8.4328   -6.6457   25.2617 H   0  0  0  0  0  0  0  0  0  0  0  0
    7.4726   -5.3240   24.5618 H   0  0  0  0  0  0  0  0  0  0  0  0
    9.7638   -5.2402   28.8416 H   0  0  0  0  0  0  0  0  0  0  0  0
    8.8238   -3.9272   28.1248 H   0  0  0  0  0  0  0  0  0  0  0  0
    6.8340   -4.5339   26.8232 H   0  0  0  0  0  0  0  0  0  0  0  0
    6.4551   -6.2523   26.6641 H   0  0  0  0  0  0  0  0  0  0  0  0
    9.5760    1.2490   24.6231 H   0  0  0  0  0  0  0  0  0  0  0  0
    9.3844    2.2230   23.1853 H   0  0  0  0  0  0  0  0  0  0  0  0
    8.0674    0.5009   23.2732 H   0  0  0  0  0  0  0  0  0  0  0  0
    6.8044    0.4388   16.8592 H   0  0  0  0  0  0  0  0  0  0  0  0
    8.2585   -1.5522   21.1129 H   0  0  0  0  0  0  0  0  0  0  0  0
  1  2  1  0  0  0  0
  1  4  2  0  0  0  0
  2  8  2  0  0  0  0
  3  5  2  0  0  0  0
  3 11  1  0  0  0  0
  4 13  1  0  0  0  0
  5 15  1  0  0  0  0
  6  9  2  0  0  0  0
  6 14  1  0  0  0  0
  7 10  1  0  0  0  0
  7 14  2  0  0  0  0
  8 16  1  0  0  0  0
  9 17  1  0  0  0  0
 10 17  2  0  0  0  0
 11 18  2  0  0  0  0
 12 15  2  0  0  0  0
 12 18  1  0  0  0  0
 13 16  2  0  0  0  0
 13 19  1  0  0  0  0
 14 26  1  0  0  0  0
 15 25  1  0  0  0  0
 16 28  1  0  0  0  0
 17 29  1  0  0  0  0
 18 33  1  0  0  0  0
 19 27  2  0  0  0  0
 19 30  1  0  0  0  0
 20 26  1  6  0  0  0
 20 30  1  0  0  0  0
 20 31  2  0  0  0  0
 21 23  1  0  0  0  0
 21 29  1  0  0  0  0
 22 24  1  0  0  0  0
 22 29  1  0  0  0  0
 23 32  1  0  0  0  0
 24 32  1  0  0  0  0
 25 26  1  0  0  0  0
 27 28  1  0  0  0  0
  1 34  1  0  0  0  0
  2 35  1  0  0  0  0
  3 36  1  0  0  0  0
  4 37  1  0  0  0  0
  5 38  1  0  0  0  0
  6 39  1  0  0  0  0
  7 40  1  0  0  0  0
  8 41  1  0  0  0  0
  9 42  1  0  0  0  0
 10 43  1  0  0  0  0
 11 44  1  0  0  0  0
 12 45  1  0  0  0  0
 21 46  1  0  0  0  0
 21 47  1  0  0  0  0
 22 48  1  0  0  0  0
 22 49  1  0  0  0  0
 23 50  1  0  0  0  0
 23 51  1  0  0  0  0
 24 52  1  0  0  0  0
 24 53  1  0  0  0  0
 25 54  1  0  0  0  0
 25 55  1  0  0  0  0
 26 56  1  0  0  0  0
 28 57  1  0  0  0  0
 30 58  1  0  0  0  0
M  END
> <clash_score>
0

> <docking_score>
-8.208242416381836

> <overlap_score>
1.0125887393951416

$$$$
BENZO_251_1
  -OEChem-08222022183D

 58 62  0     1  0  0  0  0  0999 V2000
    4.2750    1.7050   20.8490 C   0  0  0  0  0  0  0  0  0  0  0  0
    3.9160    2.0630   19.5520 C   0  0  0  0  0  0  0  0  0  0  0  0
    5.4210    0.9600   21.0930 C   0  0  0  0  0  0  0  0  0  0  0  0
    9.0720   -1.1280   24.8640 C   0  0  0  0  0  0  0  0  0  0  0  0
    9.7200   -2.2600   22.8630 C   0  0  0  0  0  0  0  0  0  0  0  0
    4.6890    1.6810   18.4640 C   0  0  0  0  0  0  0  0  0  0  0  0
    8.9960   -2.3380   25.5320 C   0  0  0  0  0  0  0  0  0  0  0  0
    9.6730   -3.4710   23.5300 C   0  0  0  0  0  0  0  0  0  0  0  0
   12.0594    2.7949   23.5898 C   0  0  0  0  0  0  0  0  0  0  0  0
   12.3731    0.6302   23.3648 C   0  0  0  0  0  0  0  0  0  0  0  0
    6.1790    0.5730   19.9990 C   0  0  0  0  0  0  0  0  0  0  0  0
    9.3350   -1.0880   23.5010 C   0  0  0  0  0  0  0  0  0  0  0  0
   11.3780    1.5657   23.5101 C   0  0  0  0  0  0  0  0  0  0  0  0
    5.8300    0.9190   18.6970 C   0  0  0  0  0  0  0  0  0  0  0  0
    9.3070   -3.5340   24.8780 C   0  0  0  0  0  0  0  0  0  0  0  0
    7.3170   -0.1610   19.8550 C   0  0  0  0  0  0  0  0  0  0  0  0
    9.0420    0.3700   21.5280 C   0  0  0  0  0  0  0  0  0  0  0  0
   10.0772   -5.0257   26.7191 C   0  0  0  0  0  0  0  0  0  0  0  0
    8.0927   -5.6196   25.4069 C   0  0  0  0  0  0  0  0  0  0  0  0
    9.1935   -4.9431   27.9590 C   0  0  0  0  0  0  0  0  0  0  0  0
    7.2758   -5.5292   26.6966 C   0  0  0  0  0  0  0  0  0  0  0  0
   14.8715    0.7756   23.2396 C   0  0  0  0  0  0  0  0  0  0  0  0
    9.8870    1.3260   23.5730 C   0  0  0  0  0  0  0  0  0  0  0  0
    9.4560    0.1560   22.8130 C   0  0  1  0  0  0  0  0  0  0  0  0
   13.3850    2.6563   23.5026 N   0  0  0  0  0  0  0  0  0  0  0  0
    7.6390   -0.2680   18.5410 N   0  0  0  0  0  0  0  0  0  0  0  0
    6.7580    0.3810   17.8350 N   0  0  0  0  0  0  0  0  0  0  0  0
   13.5445    1.3288   23.3666 N   0  0  0  0  0  0  0  0  0  0  0  0
    9.2564   -4.7368   25.5411 N   0  0  0  0  0  0  0  0  0  0  0  0
    8.1890   -0.7180   20.8700 N   0  0  0  0  0  0  0  0  0  0  0  0
    9.2690    1.4140   20.9380 O   0  0  0  0  0  0  0  0  0  0  0  0
    8.0884   -5.8462   27.8322 O   0  0  0  0  0  0  0  0  0  0  0  0
    3.6468    2.0173   21.6825 H   0  0  0  0  0  0  0  0  0  0  0  0
    3.0153    2.6527   19.3907 H   0  0  0  0  0  0  0  0  0  0  0  0
    5.7015    0.6980   22.1071 H   0  0  0  0  0  0  0  0  0  0  0  0
    8.9214   -0.1986   25.4206 H   0  0  0  0  0  0  0  0  0  0  0  0
   10.0622   -2.2326   21.8251 H   0  0  0  0  0  0  0  0  0  0  0  0
    4.4064    1.9744   17.4453 H   0  0  0  0  0  0  0  0  0  0  0  0
    8.6882   -2.3542   26.5803 H   0  0  0  0  0  0  0  0  0  0  0  0
    9.9258   -4.3896   22.9914 H   0  0  0  0  0  0  0  0  0  0  0  0
   11.6476    3.7871   23.7088 H   0  0  0  0  0  0  0  0  0  0  0  0
   12.3482   -0.4464   23.2641 H   0  0  0  0  0  0  0  0  0  0  0  0
   10.8986   -4.3117   26.8083 H   0  0  0  0  0  0  0  0  0  0  0  0
   10.4916   -6.0336   26.6319 H   0  0  0  0  0  0  0  0  0  0  0  0
    8.4328   -6.6457   25.2617 H   0  0  0  0  0  0  0  0  0  0  0  0
    7.4726   -5.3240   24.5618 H   0  0  0  0  0  0  0  0  0  0  0  0
    9.7638   -5.2402   28.8416 H   0  0  0  0  0  0  0  0  0  0  0  0
    8.8238   -3.9272   28.1248 H   0  0  0  0  0  0  0  0  0  0  0  0
    6.8340   -4.5339   26.8232 H   0  0  0  0  0  0  0  0  0  0  0  0
    6.4551   -6.2523   26.6641 H   0  0  0  0  0  0  0  0  0  0  0  0
   15.1240    0.7456   22.1764 H   0  0  0  0  0  0  0  0  0  0  0  0
   15.5818    1.4045   23.7836 H   0  0  0  0  0  0  0  0  0  0  0  0
   14.8855   -0.2314   23.6656 H   0  0  0  0  0  0  0  0  0  0  0  0
    9.5760    1.2490   24.6231 H   0  0  0  0  0  0  0  0  0  0  0  0
    9.3844    2.2230   23.1853 H   0  0  0  0  0  0  0  0  0  0  0  0
    8.0674    0.5009   23.2732 H   0  0  0  0  0  0  0  0  0  0  0  0
    6.8044    0.4388   16.8592 H   0  0  0  0  0  0  0  0  0  0  0  0
    8.2585   -1.5522   21.1129 H   0  0  0  0  0  0  0  0  0  0  0  0
  1  2  1  0  0  0  0
  1  3  2  0  0  0  0
  2  6  2  0  0  0  0
  3 11  1  0  0  0  0
  4  7  2  0  0  0  0
  4 12  1  0  0  0  0
  5  8  1  0  0  0  0
  5 12  2  0  0  0  0
  6 14  1  0  0  0  0
  7 15  1  0  0  0  0
  8 15  2  0  0  0  0
  9 13  1  0  0  0  0
  9 25  2  0  0  0  0
 10 13  2  0  0  0  0
 10 28  1  0  0  0  0
 11 14  2  0  0  0  0
 11 16  1  0  0  0  0
 12 24  1  0  0  0  0
 13 23  1  0  0  0  0
 14 27  1  0  0  0  0
 15 29  1  0  0  0  0
 16 26  2  0  0  0  0
 16 30  1  0  0  0  0
 17 24  1  0  0  0  0
 17 30  1  0  0  0  0
 17 31  2  0  0  0  0
 18 20  1  0  0  0  0
 18 29  1  0  0  0  0
 19 21  1  0  0  0  0
 19 29  1  0  0  0  0
 20 32  1  0  0  0  0
 21 32  1  0  0  0  0
 22 28  1  0  0  0  0
 23 24  1  1  0  0  0
 25 28  1  0  0  0  0
 26 27  1  0  0  0  0
  1 33  1  0  0  0  0
  2 34  1  0  0  0  0
  3 35  1  0  0  0  0
  4 36  1  0  0  0  0
  5 37  1  0  0  0  0
  6 38  1  0  0  0  0
  7 39  1  0  0  0  0
  8 40  1  0  0  0  0
  9 41  1  0  0  0  0
 10 42  1  0  0  0  0
 18 43  1  0  0  0  0
 18 44  1  0  0  0  0
 19 45  1  0  0  0  0
 19 46  1  0  0  0  0
 20 47  1  0  0  0  0
 20 48  1  0  0  0  0
 21 49  1  0  0  0  0
 21 50  1  0  0  0  0
 22 51  1  0  0  0  0
 22 52  1  0  0  0  0
 22 53  1  0  0  0  0
 23 54  1  0  0  0  0
 23 55  1  0  0  0  0
 24 56  1  0  0  0  0
 27 57  1  0  0  0  0
 30 58  1  0  0  0  0
M  END
> <clash_score>
0

> <docking_score>
-8.517945289611816

> <overlap_score>
1.0117695331573486

$$$$
BENZO_254_1
  -OEChem-08222022183D

 52 55  0     1  0  0  0  0  0999 V2000
   13.6189    0.6768   23.2648 C   0  0  0  0  0  0  0  0  0  0  0  0
   12.2417    0.4681   23.3366 C   0  0  0  0  0  0  0  0  0  0  0  0
    9.0720   -1.1280   24.8640 C   0  0  0  0  0  0  0  0  0  0  0  0
    9.7200   -2.2600   22.8630 C   0  0  0  0  0  0  0  0  0  0  0  0
    8.9960   -2.3380   25.5320 C   0  0  0  0  0  0  0  0  0  0  0  0
    9.6730   -3.4710   23.5300 C   0  0  0  0  0  0  0  0  0  0  0  0
   14.1339    1.9702   23.3527 C   0  0  0  0  0  0  0  0  0  0  0  0
   11.8943    2.8462   23.5844 C   0  0  0  0  0  0  0  0  0  0  0  0
    9.3350   -1.0880   23.5010 C   0  0  0  0  0  0  0  0  0  0  0  0
   11.3794    1.5528   23.4964 C   0  0  0  0  0  0  0  0  0  0  0  0
    9.3070   -3.5340   24.8780 C   0  0  0  0  0  0  0  0  0  0  0  0
   13.2716    3.0548   23.5125 C   0  0  0  0  0  0  0  0  0  0  0  0
    6.1790    0.5730   19.9990 C   0  0  0  0  0  0  0  0  0  0  0  0
    7.3170   -0.1610   19.8550 C   0  0  0  0  0  0  0  0  0  0  0  0
    5.4210    0.9600   21.0930 C   0  0  0  0  0  0  0  0  0  0  0  0
    4.2750    1.7050   20.8490 C   0  0  0  0  0  0  0  0  0  0  0  0
    3.9160    2.0630   19.5520 C   0  0  0  0  0  0  0  0  0  0  0  0
    4.6890    1.6810   18.4640 C   0  0  0  0  0  0  0  0  0  0  0  0
    9.0420    0.3700   21.5280 C   0  0  0  0  0  0  0  0  0  0  0  0
    8.0148   -5.2164   26.1419 C   0  0  0  0  0  0  0  0  0  0  0  0
   10.4390   -5.5857   25.6570 C   0  0  0  0  0  0  0  0  0  0  0  0
    9.8870    1.3260   23.5730 C   0  0  0  0  0  0  0  0  0  0  0  0
    9.4560    0.1560   22.8130 C   0  0  1  0  0  0  0  0  0  0  0  0
    7.6390   -0.2680   18.5410 N   0  0  0  0  0  0  0  0  0  0  0  0
    6.7580    0.3810   17.8350 N   0  0  0  0  0  0  0  0  0  0  0  0
    5.8300    0.9190   18.6970 N   0  0  0  0  0  0  0  0  0  0  0  0
    8.1890   -0.7180   20.8700 N   0  0  0  0  0  0  0  0  0  0  0  0
    9.2556   -4.7554   25.5513 N   0  0  0  0  0  0  0  0  0  0  0  0
    9.2690    1.4140   20.9380 O   0  0  0  0  0  0  0  0  0  0  0  0
   13.9075    4.6504   23.6198 Cl  0  0  0  0  0  0  0  0  0  0  0  0
   14.2901   -0.1681   23.1402 H   0  0  0  0  0  0  0  0  0  0  0  0
   11.8492   -0.5431   23.2671 H   0  0  0  0  0  0  0  0  0  0  0  0
    8.9214   -0.1986   25.4206 H   0  0  0  0  0  0  0  0  0  0  0  0
   10.0622   -2.2326   21.8251 H   0  0  0  0  0  0  0  0  0  0  0  0
    8.6882   -2.3542   26.5803 H   0  0  0  0  0  0  0  0  0  0  0  0
    9.9258   -4.3896   22.9914 H   0  0  0  0  0  0  0  0  0  0  0  0
   15.2095    2.1179   23.2949 H   0  0  0  0  0  0  0  0  0  0  0  0
   11.2178    3.6885   23.7094 H   0  0  0  0  0  0  0  0  0  0  0  0
    5.6855    0.7074   22.1002 H   0  0  0  0  0  0  0  0  0  0  0  0
    3.6634    2.0034   21.6926 H   0  0  0  0  0  0  0  0  0  0  0  0
    3.0111    2.6563   19.3629 H   0  0  0  0  0  0  0  0  0  0  0  0
    4.4370    1.9522   17.4626 H   0  0  0  0  0  0  0  0  0  0  0  0
    8.1775   -6.1919   26.6235 H   0  0  0  0  0  0  0  0  0  0  0  0
    7.6740   -4.4890   26.8933 H   0  0  0  0  0  0  0  0  0  0  0  0
    7.2508   -5.3181   25.3570 H   0  0  0  0  0  0  0  0  0  0  0  0
   10.1974   -6.4996   26.2195 H   0  0  0  0  0  0  0  0  0  0  0  0
   10.7877   -5.8568   24.6496 H   0  0  0  0  0  0  0  0  0  0  0  0
   11.2305   -5.0307   26.1819 H   0  0  0  0  0  0  0  0  0  0  0  0
    9.5854    1.2495   24.6258 H   0  0  0  0  0  0  0  0  0  0  0  0
    9.3886    2.2282   23.1920 H   0  0  0  0  0  0  0  0  0  0  0  0
    8.0686    0.4964   23.2745 H   0  0  0  0  0  0  0  0  0  0  0  0
    8.2392   -1.5641   21.0954 H   0  0  0  0  0  0  0  0  0  0  0  0
  1  2  2  0  0  0  0
  1  7  1  0  0  0  0
  2 10  1  0  0  0  0
  3  5  2  0  0  0  0
  3  9  1  0  0  0  0
  4  6  1  0  0  0  0
  4  9  2  0  0  0  0
  5 11  1  0  0  0  0
  6 11  2  0  0  0  0
  7 12  2  0  0  0  0
  8 10  2  0  0  0  0
  8 12  1  0  0  0  0
  9 23  1  0  0  0  0
 10 22  1  0  0  0  0
 11 28  1  0  0  0  0
 12 30  1  0  0  0  0
 13 14  2  0  0  0  0
 13 15  1  0  0  0  0
 13 26  1  0  0  0  0
 14 24  1  0  0  0  0
 14 27  1  0  0  0  0
 15 16  2  0  0  0  0
 16 17  1  0  0  0  0
 17 18  2  0  0  0  0
 18 26  1  0  0  0  0
 19 23  1  0  0  0  0
 19 27  1  0  0  0  0
 19 29  2  0  0  0  0
 20 28  1  0  0  0  0
 21 28  1  0  0  0  0
 22 23  1  1  0  0  0
 24 25  2  0  0  0  0
 25 26  1  0  0  0  0
  1 31  1  0  0  0  0
  2 32  1  0  0  0  0
  3 33  1  0  0  0  0
  4 34  1  0  0  0  0
  5 35  1  0  0  0  0
  6 36  1  0  0  0  0
  7 37  1  0  0  0  0
  8 38  1  0  0  0  0
 15 39  1  0  0  0  0
 16 40  1  0  0  0  0
 17 41  1  0  0  0  0
 18 42  1  0  0  0  0
 20 43  1  0  0  0  0
 20 44  1  0  0  0  0
 20 45  1  0  0  0  0
 21 46  1  0  0  0  0
 21 47  1  0  0  0  0
 21 48  1  0  0  0  0
 22 49  1  0  0  0  0
 22 50  1  0  0  0  0
 23 51  1  0  0  0  0
 27 52  1  0  0  0  0
M  END
> <clash_score>
0

> <docking_score>
-9.666556358337402

> <overlap_score>
1.001389980316162

$$$$
BENZO_255_1
  -OEChem-08222022183D

 52 55  0     1  0  0  0  0  0999 V2000
    9.0720   -1.1280   24.8640 C   0  0  0  0  0  0  0  0  0  0  0  0
    9.7200   -2.2600   22.8630 C   0  0  0  0  0  0  0  0  0  0  0  0
    8.9960   -2.3380   25.5320 C   0  0  0  0  0  0  0  0  0  0  0  0
    9.6730   -3.4710   23.5300 C   0  0  0  0  0  0  0  0  0  0  0  0
   12.0720    2.7762   23.5689 C   0  0  0  0  0  0  0  0  0  0  0  0
   12.3651    0.6087   23.3429 C   0  0  0  0  0  0  0  0  0  0  0  0
    9.3350   -1.0880   23.5010 C   0  0  0  0  0  0  0  0  0  0  0  0
   11.3794    1.5528   23.4964 C   0  0  0  0  0  0  0  0  0  0  0  0
    9.3070   -3.5340   24.8780 C   0  0  0  0  0  0  0  0  0  0  0  0
    6.1790    0.5730   19.9990 C   0  0  0  0  0  0  0  0  0  0  0  0
    7.3170   -0.1610   19.8550 C   0  0  0  0  0  0  0  0  0  0  0  0
    5.4210    0.9600   21.0930 C   0  0  0  0  0  0  0  0  0  0  0  0
    4.2750    1.7050   20.8490 C   0  0  0  0  0  0  0  0  0  0  0  0
    3.9160    2.0630   19.5520 C   0  0  0  0  0  0  0  0  0  0  0  0
    4.6890    1.6810   18.4640 C   0  0  0  0  0  0  0  0  0  0  0  0
    9.0420    0.3700   21.5280 C   0  0  0  0  0  0  0  0  0  0  0  0
   14.8634    0.7326   23.1949 C   0  0  0  0  0  0  0  0  0  0  0  0
    8.0148   -5.2164   26.1419 C   0  0  0  0  0  0  0  0  0  0  0  0
   10.4390   -5.5857   25.6570 C   0  0  0  0  0  0  0  0  0  0  0  0
    9.8870    1.3260   23.5730 C   0  0  0  0  0  0  0  0  0  0  0  0
    9.4560    0.1560   22.8130 C   0  0  1  0  0  0  0  0  0  0  0  0
   13.3955    2.6261   23.4698 N   0  0  0  0  0  0  0  0  0  0  0  0
    7.6390   -0.2680   18.5410 N   0  0  0  0  0  0  0  0  0  0  0  0
    6.7580    0.3810   17.8350 N   0  0  0  0  0  0  0  0  0  0  0  0
   13.5424    1.2972   23.3335 N   0  0  0  0  0  0  0  0  0  0  0  0
    5.8300    0.9190   18.6970 N   0  0  0  0  0  0  0  0  0  0  0  0
    8.1890   -0.7180   20.8700 N   0  0  0  0  0  0  0  0  0  0  0  0
    9.2556   -4.7554   25.5513 N   0  0  0  0  0  0  0  0  0  0  0  0
    9.2690    1.4140   20.9380 O   0  0  0  0  0  0  0  0  0  0  0  0
    8.9214   -0.1986   25.4206 H   0  0  0  0  0  0  0  0  0  0  0  0
   10.0622   -2.2326   21.8251 H   0  0  0  0  0  0  0  0  0  0  0  0
    8.6882   -2.3542   26.5803 H   0  0  0  0  0  0  0  0  0  0  0  0
    9.9258   -4.3896   22.9914 H   0  0  0  0  0  0  0  0  0  0  0  0
   11.6698    3.7720   23.6907 H   0  0  0  0  0  0  0  0  0  0  0  0
   12.3300   -0.4677   23.2433 H   0  0  0  0  0  0  0  0  0  0  0  0
    5.6855    0.7074   22.1002 H   0  0  0  0  0  0  0  0  0  0  0  0
    3.6634    2.0034   21.6926 H   0  0  0  0  0  0  0  0  0  0  0  0
    3.0111    2.6563   19.3629 H   0  0  0  0  0  0  0  0  0  0  0  0
    4.4370    1.9522   17.4626 H   0  0  0  0  0  0  0  0  0  0  0  0
   15.1060    0.6995   22.1295 H   0  0  0  0  0  0  0  0  0  0  0  0
   15.5839    1.3558   23.7319 H   0  0  0  0  0  0  0  0  0  0  0  0
   14.8726   -0.2743   23.6217 H   0  0  0  0  0  0  0  0  0  0  0  0
    8.1775   -6.1919   26.6235 H   0  0  0  0  0  0  0  0  0  0  0  0
    7.6740   -4.4890   26.8933 H   0  0  0  0  0  0  0  0  0  0  0  0
    7.2508   -5.3181   25.3570 H   0  0  0  0  0  0  0  0  0  0  0  0
   10.1974   -6.4996   26.2195 H   0  0  0  0  0  0  0  0  0  0  0  0
   10.7877   -5.8568   24.6496 H   0  0  0  0  0  0  0  0  0  0  0  0
   11.2305   -5.0307   26.1819 H   0  0  0  0  0  0  0  0  0  0  0  0
    9.5854    1.2495   24.6258 H   0  0  0  0  0  0  0  0  0  0  0  0
    9.3886    2.2282   23.1920 H   0  0  0  0  0  0  0  0  0  0  0  0
    8.0686    0.4964   23.2745 H   0  0  0  0  0  0  0  0  0  0  0  0
    8.2392   -1.5641   21.0954 H   0  0  0  0  0  0  0  0  0  0  0  0
  1  3  2  0  0  0  0
  1  7  1  0  0  0  0
  2  4  1  0  0  0  0
  2  7  2  0  0  0  0
  3  9  1  0  0  0  0
  4  9  2  0  0  0  0
  5  8  1  0  0  0  0
  5 22  2  0  0  0  0
  6  8  2  0  0  0  0
  6 25  1  0  0  0  0
  7 21  1  0  0  0  0
  8 20  1  0  0  0  0
  9 28  1  0  0  0  0
 10 11  2  0  0  0  0
 10 12  1  0  0  0  0
 10 26  1  0  0  0  0
 11 23  1  0  0  0  0
 11 27  1  0  0  0  0
 12 13  2  0  0  0  0
 13 14  1  0  0  0  0
 14 15  2  0  0  0  0
 15 26  1  0  0  0  0
 16 21  1  0  0  0  0
 16 27  1  0  0  0  0
 16 29  2  0  0  0  0
 17 25  1  0  0  0  0
 18 28  1  0  0  0  0
 19 28  1  0  0  0  0
 20 21  1  1  0  0  0
 22 25  1  0  0  0  0
 23 24  2  0  0  0  0
 24 26  1  0  0  0  0
  1 30  1  0  0  0  0
  2 31  1  0  0  0  0
  3 32  1  0  0  0  0
  4 33  1  0  0  0  0
  5 34  1  0  0  0  0
  6 35  1  0  0  0  0
 12 36  1  0  0  0  0
 13 37  1  0  0  0  0
 14 38  1  0  0  0  0
 15 39  1  0  0  0  0
 17 40  1  0  0  0  0
 17 41  1  0  0  0  0
 17 42  1  0  0  0  0
 18 43  1  0  0  0  0
 18 44  1  0  0  0  0
 18 45  1  0  0  0  0
 19 46  1  0  0  0  0
 19 47  1  0  0  0  0
 19 48  1  0  0  0  0
 20 49  1  0  0  0  0
 20 50  1  0  0  0  0
 21 51  1  0  0  0  0
 27 52  1  0  0  0  0
M  END
> <clash_score>
0

> <docking_score>
-9.997854232788086

> <overlap_score>
1.0001940727233887

$$$$
BENZO_254_2
  -OEChem-08222022183D

 52 55  0     1  0  0  0  0  0999 V2000
   13.2976    2.5464   22.4232 C   0  0  0  0  0  0  0  0  0  0  0  0
   12.3059    1.8167   23.0786 C   0  0  0  0  0  0  0  0  0  0  0  0
    9.0720   -1.1280   24.8640 C   0  0  0  0  0  0  0  0  0  0  0  0
    9.7200   -2.2600   22.8630 C   0  0  0  0  0  0  0  0  0  0  0  0
    8.9960   -2.3380   25.5320 C   0  0  0  0  0  0  0  0  0  0  0  0
    9.6730   -3.4710   23.5300 C   0  0  0  0  0  0  0  0  0  0  0  0
   12.9446    3.5776   21.5528 C   0  0  0  0  0  0  0  0  0  0  0  0
   10.6080    3.1492   21.9930 C   0  0  0  0  0  0  0  0  0  0  0  0
    9.3350   -1.0880   23.5010 C   0  0  0  0  0  0  0  0  0  0  0  0
   10.9611    2.1180   22.8635 C   0  0  0  0  0  0  0  0  0  0  0  0
    9.3070   -3.5340   24.8780 C   0  0  0  0  0  0  0  0  0  0  0  0
   11.5998    3.8790   21.3377 C   0  0  0  0  0  0  0  0  0  0  0  0
    6.1790    0.5730   19.9990 C   0  0  0  0  0  0  0  0  0  0  0  0
    7.3170   -0.1610   19.8550 C   0  0  0  0  0  0  0  0  0  0  0  0
    5.4210    0.9600   21.0930 C   0  0  0  0  0  0  0  0  0  0  0  0
    4.2750    1.7050   20.8490 C   0  0  0  0  0  0  0  0  0  0  0  0
    3.9160    2.0630   19.5520 C   0  0  0  0  0  0  0  0  0  0  0  0
    4.6890    1.6810   18.4640 C   0  0  0  0  0  0  0  0  0  0  0  0
    9.0420    0.3700   21.5280 C   0  0  0  0  0  0  0  0  0  0  0  0
    8.8766   -4.8076   26.9494 C   0  0  0  0  0  0  0  0  0  0  0  0
    9.5670   -5.9896   24.8578 C   0  0  0  0  0  0  0  0  0  0  0  0
    9.8870    1.3260   23.5730 C   0  0  0  0  0  0  0  0  0  0  0  0
    9.4560    0.1560   22.8130 C   0  0  2  0  0  0  0  0  0  0  0  0
    7.6390   -0.2680   18.5410 N   0  0  0  0  0  0  0  0  0  0  0  0
    6.7580    0.3810   17.8350 N   0  0  0  0  0  0  0  0  0  0  0  0
    5.8300    0.9190   18.6970 N   0  0  0  0  0  0  0  0  0  0  0  0
    8.1890   -0.7180   20.8700 N   0  0  0  0  0  0  0  0  0  0  0  0
    9.2556   -4.7554   25.5513 N   0  0  0  0  0  0  0  0  0  0  0  0
    9.2690    1.4140   20.9380 O   0  0  0  0  0  0  0  0  0  0  0  0
   11.1647    5.1506   20.2627 Cl  0  0  0  0  0  0  0  0  0  0  0  0
   14.3448    2.3114   22.5909 H   0  0  0  0  0  0  0  0  0  0  0  0
   12.5902    1.0148   23.7550 H   0  0  0  0  0  0  0  0  0  0  0  0
    8.9214   -0.1986   25.4206 H   0  0  0  0  0  0  0  0  0  0  0  0
   10.0622   -2.2326   21.8251 H   0  0  0  0  0  0  0  0  0  0  0  0
    8.6882   -2.3542   26.5803 H   0  0  0  0  0  0  0  0  0  0  0  0
    9.9258   -4.3896   22.9914 H   0  0  0  0  0  0  0  0  0  0  0  0
   13.7282    4.1379   21.0487 H   0  0  0  0  0  0  0  0  0  0  0  0
    9.5581    3.3806   21.8290 H   0  0  0  0  0  0  0  0  0  0  0  0
    5.6855    0.7074   22.1002 H   0  0  0  0  0  0  0  0  0  0  0  0
    3.6634    2.0034   21.6926 H   0  0  0  0  0  0  0  0  0  0  0  0
    3.0111    2.6563   19.3629 H   0  0  0  0  0  0  0  0  0  0  0  0
    4.4370    1.9522   17.4626 H   0  0  0  0  0  0  0  0  0  0  0  0
    8.8956   -5.8513   27.2963 H   0  0  0  0  0  0  0  0  0  0  0  0
    9.5845   -4.2109   27.5435 H   0  0  0  0  0  0  0  0  0  0  0  0
    7.8621   -4.3997   27.0696 H   0  0  0  0  0  0  0  0  0  0  0  0
    9.4708   -6.8361   25.5536 H   0  0  0  0  0  0  0  0  0  0  0  0
    8.8693   -6.1242   24.0180 H   0  0  0  0  0  0  0  0  0  0  0  0
   10.5973   -5.9450   24.4750 H   0  0  0  0  0  0  0  0  0  0  0  0
   10.2455    1.0419   24.5710 H   0  0  0  0  0  0  0  0  0  0  0  0
    9.0345    1.9965   23.7496 H   0  0  0  0  0  0  0  0  0  0  0  0
   10.7927   -0.1029   22.4279 H   0  0  0  0  0  0  0  0  0  0  0  0
    8.2392   -1.5641   21.0954 H   0  0  0  0  0  0  0  0  0  0  0  0
  1  2  2  0  0  0  0
  1  7  1  0  0  0  0
  2 10  1  0  0  0  0
  3  5  2  0  0  0  0
  3  9  1  0  0  0  0
  4  6  1  0  0  0  0
  4  9  2  0  0  0  0
  5 11  1  0  0  0  0
  6 11  2  0  0  0  0
  7 12  2  0  0  0  0
  8 10  2  0  0  0  0
  8 12  1  0  0  0  0
  9 23  1  0  0  0  0
 10 22  1  0  0  0  0
 11 28  1  0  0  0  0
 12 30  1  0  0  0  0
 13 14  2  0  0  0  0
 13 15  1  0  0  0  0
 13 26  1  0  0  0  0
 14 24  1  0  0  0  0
 14 27  1  0  0  0  0
 15 16  2  0  0  0  0
 16 17  1  0  0  0  0
 17 18  2  0  0  0  0
 18 26  1  0  0  0  0
 19 23  1  0  0  0  0
 19 27  1  0  0  0  0
 19 29  2  0  0  0  0
 20 28  1  0  0  0  0
 21 28  1  0  0  0  0
 22 23  1  6  0  0  0
 24 25  2  0  0  0  0
 25 26  1  0  0  0  0
  1 31  1  0  0  0  0
  2 32  1  0  0  0  0
  3 33  1  0  0  0  0
  4 34  1  0  0  0  0
  5 35  1  0  0  0  0
  6 36  1  0  0  0  0
  7 37  1  0  0  0  0
  8 38  1  0  0  0  0
 15 39  1  0  0  0  0
 16 40  1  0  0  0  0
 17 41  1  0  0  0  0
 18 42  1  0  0  0  0
 20 43  1  0  0  0  0
 20 44  1  0  0  0  0
 20 45  1  0  0  0  0
 21 46  1  0  0  0  0
 21 47  1  0  0  0  0
 21 48  1  0  0  0  0
 22 49  1  0  0  0  0
 22 50  1  0  0  0  0
 23 51  1  0  0  0  0
 27 52  1  0  0  0  0
M  END
> <clash_score>
2.2102968286139095

> <docking_score>
-8.847258567810059

> <overlap_score>
0.9601876735687256

$$$$
BENZO_255_2
  -OEChem-08222022183D

 52 55  0     1  0  0  0  0  0999 V2000
    9.0720   -1.1280   24.8640 C   0  0  0  0  0  0  0  0  0  0  0  0
    9.7200   -2.2600   22.8630 C   0  0  0  0  0  0  0  0  0  0  0  0
    8.9960   -2.3380   25.5320 C   0  0  0  0  0  0  0  0  0  0  0  0
    9.6730   -3.4710   23.5300 C   0  0  0  0  0  0  0  0  0  0  0  0
   12.3565    1.9564   22.9554 C   0  0  0  0  0  0  0  0  0  0  0  0
   10.7932    3.1569   21.9808 C   0  0  0  0  0  0  0  0  0  0  0  0
    9.3350   -1.0880   23.5010 C   0  0  0  0  0  0  0  0  0  0  0  0
   10.9611    2.1180   22.8635 C   0  0  0  0  0  0  0  0  0  0  0  0
    9.3070   -3.5340   24.8780 C   0  0  0  0  0  0  0  0  0  0  0  0
    6.1790    0.5730   19.9990 C   0  0  0  0  0  0  0  0  0  0  0  0
    7.3170   -0.1610   19.8550 C   0  0  0  0  0  0  0  0  0  0  0  0
    5.4210    0.9600   21.0930 C   0  0  0  0  0  0  0  0  0  0  0  0
    4.2750    1.7050   20.8490 C   0  0  0  0  0  0  0  0  0  0  0  0
    3.9160    2.0630   19.5520 C   0  0  0  0  0  0  0  0  0  0  0  0
    4.6890    1.6810   18.4640 C   0  0  0  0  0  0  0  0  0  0  0  0
    9.0420    0.3700   21.5280 C   0  0  0  0  0  0  0  0  0  0  0  0
   12.3862    4.6002   20.6932 C   0  0  0  0  0  0  0  0  0  0  0  0
    8.8766   -4.8076   26.9494 C   0  0  0  0  0  0  0  0  0  0  0  0
    9.5670   -5.9896   24.8578 C   0  0  0  0  0  0  0  0  0  0  0  0
    9.8870    1.3260   23.5730 C   0  0  0  0  0  0  0  0  0  0  0  0
    9.4560    0.1560   22.8130 C   0  0  2  0  0  0  0  0  0  0  0  0
   13.0274    2.8231   22.1920 N   0  0  0  0  0  0  0  0  0  0  0  0
    7.6390   -0.2680   18.5410 N   0  0  0  0  0  0  0  0  0  0  0  0
    6.7580    0.3810   17.8350 N   0  0  0  0  0  0  0  0  0  0  0  0
   12.0493    3.5392   21.6118 N   0  0  0  0  0  0  0  0  0  0  0  0
    5.8300    0.9190   18.6970 N   0  0  0  0  0  0  0  0  0  0  0  0
    8.1890   -0.7180   20.8700 N   0  0  0  0  0  0  0  0  0  0  0  0
    9.2556   -4.7554   25.5513 N   0  0  0  0  0  0  0  0  0  0  0  0
    9.2690    1.4140   20.9380 O   0  0  0  0  0  0  0  0  0  0  0  0
    8.9214   -0.1986   25.4206 H   0  0  0  0  0  0  0  0  0  0  0  0
   10.0622   -2.2326   21.8251 H   0  0  0  0  0  0  0  0  0  0  0  0
    8.6882   -2.3542   26.5803 H   0  0  0  0  0  0  0  0  0  0  0  0
    9.9258   -4.3896   22.9914 H   0  0  0  0  0  0  0  0  0  0  0  0
   12.9148    1.2434   23.5455 H   0  0  0  0  0  0  0  0  0  0  0  0
    9.9088    3.6436   21.5925 H   0  0  0  0  0  0  0  0  0  0  0  0
    5.6855    0.7074   22.1002 H   0  0  0  0  0  0  0  0  0  0  0  0
    3.6634    2.0034   21.6926 H   0  0  0  0  0  0  0  0  0  0  0  0
    3.0111    2.6563   19.3629 H   0  0  0  0  0  0  0  0  0  0  0  0
    4.4370    1.9522   17.4626 H   0  0  0  0  0  0  0  0  0  0  0  0
   12.4913    5.5238   21.2686 H   0  0  0  0  0  0  0  0  0  0  0  0
   13.3235    4.3577   20.1848 H   0  0  0  0  0  0  0  0  0  0  0  0
   11.5908    4.7003   19.9494 H   0  0  0  0  0  0  0  0  0  0  0  0
    8.8956   -5.8513   27.2963 H   0  0  0  0  0  0  0  0  0  0  0  0
    9.5845   -4.2109   27.5435 H   0  0  0  0  0  0  0  0  0  0  0  0
    7.8621   -4.3997   27.0696 H   0  0  0  0  0  0  0  0  0  0  0  0
    9.4708   -6.8361   25.5536 H   0  0  0  0  0  0  0  0  0  0  0  0
    8.8693   -6.1242   24.0180 H   0  0  0  0  0  0  0  0  0  0  0  0
   10.5973   -5.9450   24.4750 H   0  0  0  0  0  0  0  0  0  0  0  0
   10.2455    1.0419   24.5710 H   0  0  0  0  0  0  0  0  0  0  0  0
    9.0345    1.9965   23.7496 H   0  0  0  0  0  0  0  0  0  0  0  0
   10.7927   -0.1029   22.4279 H   0  0  0  0  0  0  0  0  0  0  0  0
    8.2392   -1.5641   21.0954 H   0  0  0  0  0  0  0  0  0  0  0  0
  1  3  2  0  0  0  0
  1  7  1  0  0  0  0
  2  4  1  0  0  0  0
  2  7  2  0  0  0  0
  3  9  1  0  0  0  0
  4  9  2  0  0  0  0
  5  8  1  0  0  0  0
  5 22  2  0  0  0  0
  6  8  2  0  0  0  0
  6 25  1  0  0  0  0
  7 21  1  0  0  0  0
  8 20  1  0  0  0  0
  9 28  1  0  0  0  0
 10 11  2  0  0  0  0
 10 12  1  0  0  0  0
 10 26  1  0  0  0  0
 11 23  1  0  0  0  0
 11 27  1  0  0  0  0
 12 13  2  0  0  0  0
 13 14  1  0  0  0  0
 14 15  2  0  0  0  0
 15 26  1  0  0  0  0
 16 21  1  0  0  0  0
 16 27  1  0  0  0  0
 16 29  2  0  0  0  0
 17 25  1  0  0  0  0
 18 28  1  0  0  0  0
 19 28  1  0  0  0  0
 20 21  1  6  0  0  0
 22 25  1  0  0  0  0
 23 24  2  0  0  0  0
 24 26  1  0  0  0  0
  1 30  1  0  0  0  0
  2 31  1  0  0  0  0
  3 32  1  0  0  0  0
  4 33  1  0  0  0  0
  5 34  1  0  0  0  0
  6 35  1  0  0  0  0
 12 36  1  0  0  0  0
 13 37  1  0  0  0  0
 14 38  1  0  0  0  0
 15 39  1  0  0  0  0
 17 40  1  0  0  0  0
 17 41  1  0  0  0  0
 17 42  1  0  0  0  0
 18 43  1  0  0  0  0
 18 44  1  0  0  0  0
 18 45  1  0  0  0  0
 19 46  1  0  0  0  0
 19 47  1  0  0  0  0
 19 48  1  0  0  0  0
 20 49  1  0  0  0  0
 20 50  1  0  0  0  0
 21 51  1  0  0  0  0
 27 52  1  0  0  0  0
M  END
> <clash_score>
0

> <docking_score>
-8.312082290649414

> <overlap_score>
0.9546344876289368

$$$$
BENZO_257_2
  -OEChem-08222022183D

 54 57  0     1  0  0  0  0  0999 V2000
    6.6146    3.3501   25.4951 C   0  0  0  0  0  0  0  0  0  0  0  0
    7.8859    3.3796   26.0683 C   0  0  0  0  0  0  0  0  0  0  0  0
    6.4047    2.6642   24.2988 C   0  0  0  0  0  0  0  0  0  0  0  0
    8.9473    2.7232   25.4452 C   0  0  0  0  0  0  0  0  0  0  0  0
    7.4660    2.0078   23.6757 C   0  0  0  0  0  0  0  0  0  0  0  0
    9.0720   -1.1280   24.8640 C   0  0  0  0  0  0  0  0  0  0  0  0
    9.7200   -2.2600   22.8630 C   0  0  0  0  0  0  0  0  0  0  0  0
    8.9960   -2.3380   25.5320 C   0  0  0  0  0  0  0  0  0  0  0  0
    9.6730   -3.4710   23.5300 C   0  0  0  0  0  0  0  0  0  0  0  0
    8.7373    2.0373   24.2489 C   0  0  0  0  0  0  0  0  0  0  0  0
    9.3350   -1.0880   23.5010 C   0  0  0  0  0  0  0  0  0  0  0  0
    9.3070   -3.5340   24.8780 C   0  0  0  0  0  0  0  0  0  0  0  0
    6.1790    0.5730   19.9990 C   0  0  0  0  0  0  0  0  0  0  0  0
    7.3170   -0.1610   19.8550 C   0  0  0  0  0  0  0  0  0  0  0  0
    5.4210    0.9600   21.0930 C   0  0  0  0  0  0  0  0  0  0  0  0
    4.2750    1.7050   20.8490 C   0  0  0  0  0  0  0  0  0  0  0  0
    3.9160    2.0630   19.5520 C   0  0  0  0  0  0  0  0  0  0  0  0
    4.6890    1.6810   18.4640 C   0  0  0  0  0  0  0  0  0  0  0  0
    8.4227   -5.1089   26.6141 C   0  0  0  0  0  0  0  0  0  0  0  0
    9.0420    0.3700   21.5280 C   0  0  0  0  0  0  0  0  0  0  0  0
    8.4173   -7.5520   25.9532 C   0  0  0  0  0  0  0  0  0  0  0  0
    9.8870    1.3260   23.5730 C   0  0  0  0  0  0  0  0  0  0  0  0
    8.6899   -6.5411   27.0525 C   0  0  0  0  0  0  0  0  0  0  0  0
    9.4560    0.1560   22.8130 C   0  0  2  0  0  0  0  0  0  0  0  0
    7.6390   -0.2680   18.5410 N   0  0  0  0  0  0  0  0  0  0  0  0
    6.7580    0.3810   17.8350 N   0  0  0  0  0  0  0  0  0  0  0  0
    5.8300    0.9190   18.6970 N   0  0  0  0  0  0  0  0  0  0  0  0
    9.2546   -4.7423   25.5437 N   0  0  0  0  0  0  0  0  0  0  0  0
    8.1890   -0.7180   20.8700 N   0  0  0  0  0  0  0  0  0  0  0  0
    7.5768   -4.4084   27.1602 O   0  0  0  0  0  0  0  0  0  0  0  0
    9.2690    1.4140   20.9380 O   0  0  0  0  0  0  0  0  0  0  0  0
    5.7880    3.8602   25.9812 H   0  0  0  0  0  0  0  0  0  0  0  0
    8.0494    3.9127   27.0004 H   0  0  0  0  0  0  0  0  0  0  0  0
    5.4148    2.6402   23.8529 H   0  0  0  0  0  0  0  0  0  0  0  0
    9.9344    2.7516   25.8990 H   0  0  0  0  0  0  0  0  0  0  0  0
    7.2931    1.4760   22.7438 H   0  0  0  0  0  0  0  0  0  0  0  0
    8.9202   -0.1986   25.4206 H   0  0  0  0  0  0  0  0  0  0  0  0
   10.0631   -2.2319   21.8252 H   0  0  0  0  0  0  0  0  0  0  0  0
    8.6898   -2.3534   26.5810 H   0  0  0  0  0  0  0  0  0  0  0  0
    9.9254   -4.3899   22.9914 H   0  0  0  0  0  0  0  0  0  0  0  0
    5.6855    0.7074   22.1002 H   0  0  0  0  0  0  0  0  0  0  0  0
    3.6634    2.0034   21.6926 H   0  0  0  0  0  0  0  0  0  0  0  0
    3.0111    2.6563   19.3629 H   0  0  0  0  0  0  0  0  0  0  0  0
    4.4370    1.9522   17.4626 H   0  0  0  0  0  0  0  0  0  0  0  0
    7.3765   -7.4970   25.6177 H   0  0  0  0  0  0  0  0  0  0  0  0
    8.6071   -8.5677   26.3139 H   0  0  0  0  0  0  0  0  0  0  0  0
    9.0598   -7.3717   25.0851 H   0  0  0  0  0  0  0  0  0  0  0  0
   10.4287    2.0369   22.9354 H   0  0  0  0  0  0  0  0  0  0  0  0
   10.6035    1.0279   24.3510 H   0  0  0  0  0  0  0  0  0  0  0  0
    9.7367   -6.6182   27.3685 H   0  0  0  0  0  0  0  0  0  0  0  0
    8.0564   -6.7633   27.9189 H   0  0  0  0  0  0  0  0  0  0  0  0
   10.7927   -0.1029   22.4279 H   0  0  0  0  0  0  0  0  0  0  0  0
    9.9034   -5.4689   25.2194 H   0  0  0  0  0  0  0  0  0  0  0  0
    8.2392   -1.5641   21.0954 H   0  0  0  0  0  0  0  0  0  0  0  0
  1  2  1  0  0  0  0
  1  3  2  0  0  0  0
  2  4  2  0  0  0  0
  3  5  1  0  0  0  0
  4 10  1  0  0  0  0
  5 10  2  0  0  0  0
  6  8  2  0  0  0  0
  6 11  1  0  0  0  0
  7  9  1  0  0  0  0
  7 11  2  0  0  0  0
  8 12  1  0  0  0  0
  9 12  2  0  0  0  0
 10 22  1  0  0  0  0
 11 24  1  0  0  0  0
 12 28  1  0  0  0  0
 13 14  2  0  0  0  0
 13 15  1  0  0  0  0
 13 27  1  0  0  0  0
 14 25  1  0  0  0  0
 14 29  1  0  0  0  0
 15 16  2  0  0  0  0
 16 17  1  0  0  0  0
 17 18  2  0  0  0  0
 18 27  1  0  0  0  0
 19 23  1  0  0  0  0
 19 28  1  0  0  0  0
 19 30  2  0  0  0  0
 20 24  1  0  0  0  0
 20 29  1  0  0  0  0
 20 31  2  0  0  0  0
 21 23  1  0  0  0  0
 22 24  1  6  0  0  0
 25 26  2  0  0  0  0
 26 27  1  0  0  0  0
  1 32  1  0  0  0  0
  2 33  1  0  0  0  0
  3 34  1  0  0  0  0
  4 35  1  0  0  0  0
  5 36  1  0  0  0  0
  6 37  1  0  0  0  0
  7 38  1  0  0  0  0
  8 39  1  0  0  0  0
  9 40  1  0  0  0  0
 15 41  1  0  0  0  0
 16 42  1  0  0  0  0
 17 43  1  0  0  0  0
 18 44  1  0  0  0  0
 21 45  1  0  0  0  0
 21 46  1  0  0  0  0
 21 47  1  0  0  0  0
 22 48  1  0  0  0  0
 22 49  1  0  0  0  0
 23 50  1  0  0  0  0
 23 51  1  0  0  0  0
 24 52  1  0  0  0  0
 28 53  1  0  0  0  0
 29 54  1  0  0  0  0
M  END
> <clash_score>
0.6426271293922312

> <docking_score>
-7.524358749389648

> <overlap_score>
0.844518780708313

$$$$
BENZO_257_1
  -OEChem-08222022183D

 54 57  0     1  0  0  0  0  0999 V2000
   14.1338    1.9717   23.3537 C   0  0  0  0  0  0  0  0  0  0  0  0
   13.6012    1.1747   24.3670 C   0  0  0  0  0  0  0  0  0  0  0  0
   13.2892    2.5593   22.4118 C   0  0  0  0  0  0  0  0  0  0  0  0
   12.2240    0.9652   24.4383 C   0  0  0  0  0  0  0  0  0  0  0  0
   11.9120    2.3498   22.4832 C   0  0  0  0  0  0  0  0  0  0  0  0
    9.0720   -1.1280   24.8640 C   0  0  0  0  0  0  0  0  0  0  0  0
    9.7200   -2.2600   22.8630 C   0  0  0  0  0  0  0  0  0  0  0  0
    8.9960   -2.3380   25.5320 C   0  0  0  0  0  0  0  0  0  0  0  0
    9.6730   -3.4710   23.5300 C   0  0  0  0  0  0  0  0  0  0  0  0
   11.3794    1.5528   23.4964 C   0  0  0  0  0  0  0  0  0  0  0  0
    9.3350   -1.0880   23.5010 C   0  0  0  0  0  0  0  0  0  0  0  0
    9.3070   -3.5340   24.8780 C   0  0  0  0  0  0  0  0  0  0  0  0
    6.1790    0.5730   19.9990 C   0  0  0  0  0  0  0  0  0  0  0  0
    7.3170   -0.1610   19.8550 C   0  0  0  0  0  0  0  0  0  0  0  0
    5.4210    0.9600   21.0930 C   0  0  0  0  0  0  0  0  0  0  0  0
    4.2750    1.7050   20.8490 C   0  0  0  0  0  0  0  0  0  0  0  0
    3.9160    2.0630   19.5520 C   0  0  0  0  0  0  0  0  0  0  0  0
    4.6890    1.6810   18.4640 C   0  0  0  0  0  0  0  0  0  0  0  0
    8.4227   -5.1089   26.6141 C   0  0  0  0  0  0  0  0  0  0  0  0
    9.0420    0.3700   21.5280 C   0  0  0  0  0  0  0  0  0  0  0  0
    8.4173   -7.5520   25.9532 C   0  0  0  0  0  0  0  0  0  0  0  0
    9.8870    1.3260   23.5730 C   0  0  0  0  0  0  0  0  0  0  0  0
    8.6899   -6.5411   27.0525 C   0  0  0  0  0  0  0  0  0  0  0  0
    9.4560    0.1560   22.8130 C   0  0  1  0  0  0  0  0  0  0  0  0
    7.6390   -0.2680   18.5410 N   0  0  0  0  0  0  0  0  0  0  0  0
    6.7580    0.3810   17.8350 N   0  0  0  0  0  0  0  0  0  0  0  0
    5.8300    0.9190   18.6970 N   0  0  0  0  0  0  0  0  0  0  0  0
    9.2546   -4.7423   25.5437 N   0  0  0  0  0  0  0  0  0  0  0  0
    8.1890   -0.7180   20.8700 N   0  0  0  0  0  0  0  0  0  0  0  0
    7.5768   -4.4084   27.1602 O   0  0  0  0  0  0  0  0  0  0  0  0
    9.2690    1.4140   20.9380 O   0  0  0  0  0  0  0  0  0  0  0  0
   15.2060    2.1358   23.2991 H   0  0  0  0  0  0  0  0  0  0  0  0
   14.2585    0.7180   25.1011 H   0  0  0  0  0  0  0  0  0  0  0  0
   13.7034    3.1808   21.6235 H   0  0  0  0  0  0  0  0  0  0  0  0
   11.8179    0.3425   25.2312 H   0  0  0  0  0  0  0  0  0  0  0  0
   11.2617    2.8116   21.7449 H   0  0  0  0  0  0  0  0  0  0  0  0
    8.9202   -0.1986   25.4206 H   0  0  0  0  0  0  0  0  0  0  0  0
   10.0631   -2.2319   21.8252 H   0  0  0  0  0  0  0  0  0  0  0  0
    8.6898   -2.3534   26.5810 H   0  0  0  0  0  0  0  0  0  0  0  0
    9.9254   -4.3899   22.9914 H   0  0  0  0  0  0  0  0  0  0  0  0
    5.6855    0.7074   22.1002 H   0  0  0  0  0  0  0  0  0  0  0  0
    3.6634    2.0034   21.6926 H   0  0  0  0  0  0  0  0  0  0  0  0
    3.0111    2.6563   19.3629 H   0  0  0  0  0  0  0  0  0  0  0  0
    4.4370    1.9522   17.4626 H   0  0  0  0  0  0  0  0  0  0  0  0
    7.3765   -7.4970   25.6177 H   0  0  0  0  0  0  0  0  0  0  0  0
    8.6071   -8.5677   26.3139 H   0  0  0  0  0  0  0  0  0  0  0  0
    9.0598   -7.3717   25.0851 H   0  0  0  0  0  0  0  0  0  0  0  0
    9.5854    1.2495   24.6258 H   0  0  0  0  0  0  0  0  0  0  0  0
    9.3886    2.2282   23.1920 H   0  0  0  0  0  0  0  0  0  0  0  0
    9.7367   -6.6182   27.3685 H   0  0  0  0  0  0  0  0  0  0  0  0
    8.0564   -6.7633   27.9189 H   0  0  0  0  0  0  0  0  0  0  0  0
    8.0686    0.4964   23.2745 H   0  0  0  0  0  0  0  0  0  0  0  0
    9.9034   -5.4689   25.2194 H   0  0  0  0  0  0  0  0  0  0  0  0
    8.2392   -1.5641   21.0954 H   0  0  0  0  0  0  0  0  0  0  0  0
  1  2  1  0  0  0  0
  1  3  2  0  0  0  0
  2  4  2  0  0  0  0
  3  5  1  0  0  0  0
  4 10  1  0  0  0  0
  5 10  2  0  0  0  0
  6  8  2  0  0  0  0
  6 11  1  0  0  0  0
  7  9  1  0  0  0  0
  7 11  2  0  0  0  0
  8 12  1  0  0  0  0
  9 12  2  0  0  0  0
 10 22  1  0  0  0  0
 11 24  1  0  0  0  0
 12 28  1  0  0  0  0
 13 14  2  0  0  0  0
 13 15  1  0  0  0  0
 13 27  1  0  0  0  0
 14 25  1  0  0  0  0
 14 29  1  0  0  0  0
 15 16  2  0  0  0  0
 16 17  1  0  0  0  0
 17 18  2  0  0  0  0
 18 27  1  0  0  0  0
 19 23  1  0  0  0  0
 19 28  1  0  0  0  0
 19 30  2  0  0  0  0
 20 24  1  0  0  0  0
 20 29  1  0  0  0  0
 20 31  2  0  0  0  0
 21 23  1  0  0  0  0
 22 24  1  1  0  0  0
 25 26  2  0  0  0  0
 26 27  1  0  0  0  0
  1 32  1  0  0  0  0
  2 33  1  0  0  0  0
  3 34  1  0  0  0  0
  4 35  1  0  0  0  0
  5 36  1  0  0  0  0
  6 37  1  0  0  0  0
  7 38  1  0  0  0  0
  8 39  1  0  0  0  0
  9 40  1  0  0  0  0
 15 41  1  0  0  0  0
 16 42  1  0  0  0  0
 17 43  1  0  0  0  0
 18 44  1  0  0  0  0
 21 45  1  0  0  0  0
 21 46  1  0  0  0  0
 21 47  1  0  0  0  0
 22 48  1  0  0  0  0
 22 49  1  0  0  0  0
 23 50  1  0  0  0  0
 23 51  1  0  0  0  0
 24 52  1  0  0  0  0
 28 53  1  0  0  0  0
 29 54  1  0  0  0  0
M  END
> <clash_score>
0.6426271293922312

> <docking_score>
-8.395583152770996

> <overlap_score>
0.9959042072296143

$$$$
BENZO_256_2
  -OEChem-08222022183D

 51 54  0     1  0  0  0  0  0999 V2000
    9.0720   -1.1280   24.8640 C   0  0  0  0  0  0  0  0  0  0  0  0
    9.7200   -2.2600   22.8630 C   0  0  0  0  0  0  0  0  0  0  0  0
    8.9960   -2.3380   25.5320 C   0  0  0  0  0  0  0  0  0  0  0  0
    9.6730   -3.4710   23.5300 C   0  0  0  0  0  0  0  0  0  0  0  0
   12.3907    0.6679   23.6950 C   0  0  0  0  0  0  0  0  0  0  0  0
   13.4189    0.5308   24.6014 C   0  0  0  0  0  0  0  0  0  0  0  0
   11.3314    1.2632   25.6763 C   0  0  0  0  0  0  0  0  0  0  0  0
    9.3350   -1.0880   23.5010 C   0  0  0  0  0  0  0  0  0  0  0  0
   11.1814    1.0923   24.3176 C   0  0  0  0  0  0  0  0  0  0  0  0
    9.3070   -3.5340   24.8780 C   0  0  0  0  0  0  0  0  0  0  0  0
    6.1790    0.5730   19.9990 C   0  0  0  0  0  0  0  0  0  0  0  0
    7.3170   -0.1610   19.8550 C   0  0  0  0  0  0  0  0  0  0  0  0
    5.4210    0.9600   21.0930 C   0  0  0  0  0  0  0  0  0  0  0  0
    4.2750    1.7050   20.8490 C   0  0  0  0  0  0  0  0  0  0  0  0
    3.9160    2.0630   19.5520 C   0  0  0  0  0  0  0  0  0  0  0  0
    4.6890    1.6810   18.4640 C   0  0  0  0  0  0  0  0  0  0  0  0
    8.4227   -5.1089   26.6141 C   0  0  0  0  0  0  0  0  0  0  0  0
    9.0420    0.3700   21.5280 C   0  0  0  0  0  0  0  0  0  0  0  0
    8.4173   -7.5520   25.9532 C   0  0  0  0  0  0  0  0  0  0  0  0
    9.8870    1.3260   23.5730 C   0  0  0  0  0  0  0  0  0  0  0  0
    8.6899   -6.5411   27.0525 C   0  0  0  0  0  0  0  0  0  0  0  0
    9.4560    0.1560   22.8130 C   0  0  2  0  0  0  0  0  0  0  0  0
    7.6390   -0.2680   18.5410 N   0  0  0  0  0  0  0  0  0  0  0  0
    6.7580    0.3810   17.8350 N   0  0  0  0  0  0  0  0  0  0  0  0
    5.8300    0.9190   18.6970 N   0  0  0  0  0  0  0  0  0  0  0  0
    9.2546   -4.7423   25.5437 N   0  0  0  0  0  0  0  0  0  0  0  0
    8.1890   -0.7180   20.8700 N   0  0  0  0  0  0  0  0  0  0  0  0
    7.5768   -4.4084   27.1602 O   0  0  0  0  0  0  0  0  0  0  0  0
    9.2690    1.4140   20.9380 O   0  0  0  0  0  0  0  0  0  0  0  0
   12.9250    0.9128   26.1959 S   0  0  0  0  0  0  0  0  0  0  0  0
    8.9202   -0.1986   25.4206 H   0  0  0  0  0  0  0  0  0  0  0  0
   10.0631   -2.2319   21.8252 H   0  0  0  0  0  0  0  0  0  0  0  0
    8.6898   -2.3534   26.5810 H   0  0  0  0  0  0  0  0  0  0  0  0
    9.9254   -4.3899   22.9914 H   0  0  0  0  0  0  0  0  0  0  0  0
   12.5049    0.4716   22.6364 H   0  0  0  0  0  0  0  0  0  0  0  0
   14.4362    0.2239   24.4037 H   0  0  0  0  0  0  0  0  0  0  0  0
   10.5839    1.5757   26.3924 H   0  0  0  0  0  0  0  0  0  0  0  0
    5.6855    0.7074   22.1002 H   0  0  0  0  0  0  0  0  0  0  0  0
    3.6634    2.0034   21.6926 H   0  0  0  0  0  0  0  0  0  0  0  0
    3.0111    2.6563   19.3629 H   0  0  0  0  0  0  0  0  0  0  0  0
    4.4370    1.9522   17.4626 H   0  0  0  0  0  0  0  0  0  0  0  0
    7.3765   -7.4970   25.6177 H   0  0  0  0  0  0  0  0  0  0  0  0
    8.6071   -8.5677   26.3139 H   0  0  0  0  0  0  0  0  0  0  0  0
    9.0598   -7.3717   25.0851 H   0  0  0  0  0  0  0  0  0  0  0  0
    9.1131    1.6463   24.2828 H   0  0  0  0  0  0  0  0  0  0  0  0
   10.0354    2.1807   22.8984 H   0  0  0  0  0  0  0  0  0  0  0  0
    9.7367   -6.6182   27.3685 H   0  0  0  0  0  0  0  0  0  0  0  0
    8.0564   -6.7633   27.9189 H   0  0  0  0  0  0  0  0  0  0  0  0
   10.7927   -0.1029   22.4279 H   0  0  0  0  0  0  0  0  0  0  0  0
    9.9034   -5.4689   25.2194 H   0  0  0  0  0  0  0  0  0  0  0  0
    8.2392   -1.5641   21.0954 H   0  0  0  0  0  0  0  0  0  0  0  0
  1  3  2  0  0  0  0
  1  8  1  0  0  0  0
  2  4  1  0  0  0  0
  2  8  2  0  0  0  0
  3 10  1  0  0  0  0
  4 10  2  0  0  0  0
  5  6  2  0  0  0  0
  5  9  1  0  0  0  0
  6 30  1  0  0  0  0
  7  9  2  0  0  0  0
  7 30  1  0  0  0  0
  8 22  1  0  0  0  0
  9 20  1  0  0  0  0
 10 26  1  0  0  0  0
 11 12  2  0  0  0  0
 11 13  1  0  0  0  0
 11 25  1  0  0  0  0
 12 23  1  0  0  0  0
 12 27  1  0  0  0  0
 13 14  2  0  0  0  0
 14 15  1  0  0  0  0
 15 16  2  0  0  0  0
 16 25  1  0  0  0  0
 17 21  1  0  0  0  0
 17 26  1  0  0  0  0
 17 28  2  0  0  0  0
 18 22  1  0  0  0  0
 18 27  1  0  0  0  0
 18 29  2  0  0  0  0
 19 21  1  0  0  0  0
 20 22  1  6  0  0  0
 23 24  2  0  0  0  0
 24 25  1  0  0  0  0
  1 31  1  0  0  0  0
  2 32  1  0  0  0  0
  3 33  1  0  0  0  0
  4 34  1  0  0  0  0
  5 35  1  0  0  0  0
  6 36  1  0  0  0  0
  7 37  1  0  0  0  0
 13 38  1  0  0  0  0
 14 39  1  0  0  0  0
 15 40  1  0  0  0  0
 16 41  1  0  0  0  0
 19 42  1  0  0  0  0
 19 43  1  0  0  0  0
 19 44  1  0  0  0  0
 20 45  1  0  0  0  0
 20 46  1  0  0  0  0
 21 47  1  0  0  0  0
 21 48  1  0  0  0  0
 22 49  1  0  0  0  0
 26 50  1  0  0  0  0
 27 51  1  0  0  0  0
M  END
> <clash_score>
1.2643138983648383

> <docking_score>
-6.6310319900512695

> <overlap_score>
0.9106769561767578

$$$$
BENZO_256_1
  -OEChem-08222022183D

 51 54  0     1  0  0  0  0  0999 V2000
    9.0720   -1.1280   24.8640 C   0  0  0  0  0  0  0  0  0  0  0  0
    9.7200   -2.2600   22.8630 C   0  0  0  0  0  0  0  0  0  0  0  0
    8.9960   -2.3380   25.5320 C   0  0  0  0  0  0  0  0  0  0  0  0
    9.6730   -3.4710   23.5300 C   0  0  0  0  0  0  0  0  0  0  0  0
   12.3398    0.5029   23.4216 C   0  0  0  0  0  0  0  0  0  0  0  0
   13.6291    0.9843   23.3622 C   0  0  0  0  0  0  0  0  0  0  0  0
   11.9713    2.7968   23.4917 C   0  0  0  0  0  0  0  0  0  0  0  0
    9.3350   -1.0880   23.5010 C   0  0  0  0  0  0  0  0  0  0  0  0
   11.3794    1.5528   23.4964 C   0  0  0  0  0  0  0  0  0  0  0  0
    9.3070   -3.5340   24.8780 C   0  0  0  0  0  0  0  0  0  0  0  0
    6.1790    0.5730   19.9990 C   0  0  0  0  0  0  0  0  0  0  0  0
    7.3170   -0.1610   19.8550 C   0  0  0  0  0  0  0  0  0  0  0  0
    5.4210    0.9600   21.0930 C   0  0  0  0  0  0  0  0  0  0  0  0
    4.2750    1.7050   20.8490 C   0  0  0  0  0  0  0  0  0  0  0  0
    3.9160    2.0630   19.5520 C   0  0  0  0  0  0  0  0  0  0  0  0
    4.6890    1.6810   18.4640 C   0  0  0  0  0  0  0  0  0  0  0  0
    8.4227   -5.1089   26.6141 C   0  0  0  0  0  0  0  0  0  0  0  0
    9.0420    0.3700   21.5280 C   0  0  0  0  0  0  0  0  0  0  0  0
    8.4173   -7.5520   25.9532 C   0  0  0  0  0  0  0  0  0  0  0  0
    9.8870    1.3260   23.5730 C   0  0  0  0  0  0  0  0  0  0  0  0
    8.6899   -6.5411   27.0525 C   0  0  0  0  0  0  0  0  0  0  0  0
    9.4560    0.1560   22.8130 C   0  0  1  0  0  0  0  0  0  0  0  0
    7.6390   -0.2680   18.5410 N   0  0  0  0  0  0  0  0  0  0  0  0
    6.7580    0.3810   17.8350 N   0  0  0  0  0  0  0  0  0  0  0  0
    5.8300    0.9190   18.6970 N   0  0  0  0  0  0  0  0  0  0  0  0
    9.2546   -4.7423   25.5437 N   0  0  0  0  0  0  0  0  0  0  0  0
    8.1890   -0.7180   20.8700 N   0  0  0  0  0  0  0  0  0  0  0  0
    7.5768   -4.4084   27.1602 O   0  0  0  0  0  0  0  0  0  0  0  0
    9.2690    1.4140   20.9380 O   0  0  0  0  0  0  0  0  0  0  0  0
   13.6781    2.6957   23.3969 S   0  0  0  0  0  0  0  0  0  0  0  0
    8.9202   -0.1986   25.4206 H   0  0  0  0  0  0  0  0  0  0  0  0
   10.0631   -2.2319   21.8252 H   0  0  0  0  0  0  0  0  0  0  0  0
    8.6898   -2.3534   26.5810 H   0  0  0  0  0  0  0  0  0  0  0  0
    9.9254   -4.3899   22.9914 H   0  0  0  0  0  0  0  0  0  0  0  0
   12.1014   -0.5532   23.4119 H   0  0  0  0  0  0  0  0  0  0  0  0
   14.5445    0.4131   23.3009 H   0  0  0  0  0  0  0  0  0  0  0  0
   11.4871    3.7623   23.5403 H   0  0  0  0  0  0  0  0  0  0  0  0
    5.6855    0.7074   22.1002 H   0  0  0  0  0  0  0  0  0  0  0  0
    3.6634    2.0034   21.6926 H   0  0  0  0  0  0  0  0  0  0  0  0
    3.0111    2.6563   19.3629 H   0  0  0  0  0  0  0  0  0  0  0  0
    4.4370    1.9522   17.4626 H   0  0  0  0  0  0  0  0  0  0  0  0
    7.3765   -7.4970   25.6177 H   0  0  0  0  0  0  0  0  0  0  0  0
    8.6071   -8.5677   26.3139 H   0  0  0  0  0  0  0  0  0  0  0  0
    9.0598   -7.3717   25.0851 H   0  0  0  0  0  0  0  0  0  0  0  0
    9.5854    1.2495   24.6258 H   0  0  0  0  0  0  0  0  0  0  0  0
    9.3886    2.2282   23.1920 H   0  0  0  0  0  0  0  0  0  0  0  0
    9.7367   -6.6182   27.3685 H   0  0  0  0  0  0  0  0  0  0  0  0
    8.0564   -6.7633   27.9189 H   0  0  0  0  0  0  0  0  0  0  0  0
    8.0686    0.4964   23.2745 H   0  0  0  0  0  0  0  0  0  0  0  0
    9.9034   -5.4689   25.2194 H   0  0  0  0  0  0  0  0  0  0  0  0
    8.2392   -1.5641   21.0954 H   0  0  0  0  0  0  0  0  0  0  0  0
  1  3  2  0  0  0  0
  1  8  1  0  0  0  0
  2  4  1  0  0  0  0
  2  8  2  0  0  0  0
  3 10  1  0  0  0  0
  4 10  2  0  0  0  0
  5  6  2  0  0  0  0
  5  9  1  0  0  0  0
  6 30  1  0  0  0  0
  7  9  2  0  0  0  0
  7 30  1  0  0  0  0
  8 22  1  0  0  0  0
  9 20  1  0  0  0  0
 10 26  1  0  0  0  0
 11 12  2  0  0  0  0
 11 13  1  0  0  0  0
 11 25  1  0  0  0  0
 12 23  1  0  0  0  0
 12 27  1  0  0  0  0
 13 14  2  0  0  0  0
 14 15  1  0  0  0  0
 15 16  2  0  0  0  0
 16 25  1  0  0  0  0
 17 21  1  0  0  0  0
 17 26  1  0  0  0  0
 17 28  2  0  0  0  0
 18 22  1  0  0  0  0
 18 27  1  0  0  0  0
 18 29  2  0  0  0  0
 19 21  1  0  0  0  0
 20 22  1  1  0  0  0
 23 24  2  0  0  0  0
 24 25  1  0  0  0  0
  1 31  1  0  0  0  0
  2 32  1  0  0  0  0
  3 33  1  0  0  0  0
  4 34  1  0  0  0  0
  5 35  1  0  0  0  0
  6 36  1  0  0  0  0
  7 37  1  0  0  0  0
 13 38  1  0  0  0  0
 14 39  1  0  0  0  0
 15 40  1  0  0  0  0
 16 41  1  0  0  0  0
 19 42  1  0  0  0  0
 19 43  1  0  0  0  0
 19 44  1  0  0  0  0
 20 45  1  0  0  0  0
 20 46  1  0  0  0  0
 21 47  1  0  0  0  0
 21 48  1  0  0  0  0
 22 49  1  0  0  0  0
 26 50  1  0  0  0  0
 27 51  1  0  0  0  0
M  END
> <clash_score>
0.6426271293922312

> <docking_score>
-8.745170593261719

> <overlap_score>
0.9874261021614075

$$$$
BENZO_258_2
  -OEChem-08222022183D

 54 57  0     1  0  0  0  0  0999 V2000
    6.3759    2.2080   24.7298 C   0  0  0  0  0  0  0  0  0  0  0  0
    7.4372    1.5528   24.1054 C   0  0  0  0  0  0  0  0  0  0  0  0
    9.0720   -1.1280   24.8640 C   0  0  0  0  0  0  0  0  0  0  0  0
    9.7200   -2.2600   22.8630 C   0  0  0  0  0  0  0  0  0  0  0  0
    8.9960   -2.3380   25.5320 C   0  0  0  0  0  0  0  0  0  0  0  0
    9.6730   -3.4710   23.5300 C   0  0  0  0  0  0  0  0  0  0  0  0
    6.6147    3.3479   25.4976 C   0  0  0  0  0  0  0  0  0  0  0  0
    8.9762    3.1771   25.0167 C   0  0  0  0  0  0  0  0  0  0  0  0
    9.3350   -1.0880   23.5010 C   0  0  0  0  0  0  0  0  0  0  0  0
    8.7373    2.0373   24.2489 C   0  0  0  0  0  0  0  0  0  0  0  0
    9.3070   -3.5340   24.8780 C   0  0  0  0  0  0  0  0  0  0  0  0
    7.9148    3.8324   25.6410 C   0  0  0  0  0  0  0  0  0  0  0  0
    6.1790    0.5730   19.9990 C   0  0  0  0  0  0  0  0  0  0  0  0
    7.3170   -0.1610   19.8550 C   0  0  0  0  0  0  0  0  0  0  0  0
    5.4210    0.9600   21.0930 C   0  0  0  0  0  0  0  0  0  0  0  0
    4.2750    1.7050   20.8490 C   0  0  0  0  0  0  0  0  0  0  0  0
    3.9160    2.0630   19.5520 C   0  0  0  0  0  0  0  0  0  0  0  0
    4.6890    1.6810   18.4640 C   0  0  0  0  0  0  0  0  0  0  0  0
    8.4227   -5.1089   26.6141 C   0  0  0  0  0  0  0  0  0  0  0  0
    9.0420    0.3700   21.5280 C   0  0  0  0  0  0  0  0  0  0  0  0
    8.4173   -7.5520   25.9532 C   0  0  0  0  0  0  0  0  0  0  0  0
    9.8870    1.3260   23.5730 C   0  0  0  0  0  0  0  0  0  0  0  0
    8.6899   -6.5411   27.0525 C   0  0  0  0  0  0  0  0  0  0  0  0
    9.4560    0.1560   22.8130 C   0  0  2  0  0  0  0  0  0  0  0  0
    7.6390   -0.2680   18.5410 N   0  0  0  0  0  0  0  0  0  0  0  0
    6.7580    0.3810   17.8350 N   0  0  0  0  0  0  0  0  0  0  0  0
    5.8300    0.9190   18.6970 N   0  0  0  0  0  0  0  0  0  0  0  0
    9.2546   -4.7423   25.5437 N   0  0  0  0  0  0  0  0  0  0  0  0
    8.1890   -0.7180   20.8700 N   0  0  0  0  0  0  0  0  0  0  0  0
    7.5768   -4.4084   27.1602 O   0  0  0  0  0  0  0  0  0  0  0  0
    9.2690    1.4140   20.9380 O   0  0  0  0  0  0  0  0  0  0  0  0
    8.2090    5.2380   26.5894 Cl  0  0  0  0  0  0  0  0  0  0  0  0
    5.3637    1.8304   24.6180 H   0  0  0  0  0  0  0  0  0  0  0  0
    7.2419    0.6653   23.5092 H   0  0  0  0  0  0  0  0  0  0  0  0
    8.9202   -0.1986   25.4206 H   0  0  0  0  0  0  0  0  0  0  0  0
   10.0631   -2.2319   21.8252 H   0  0  0  0  0  0  0  0  0  0  0  0
    8.6898   -2.3534   26.5810 H   0  0  0  0  0  0  0  0  0  0  0  0
    9.9254   -4.3899   22.9914 H   0  0  0  0  0  0  0  0  0  0  0  0
    5.7779    3.8482   25.9787 H   0  0  0  0  0  0  0  0  0  0  0  0
    9.9916    3.5512   25.1250 H   0  0  0  0  0  0  0  0  0  0  0  0
    5.6855    0.7074   22.1002 H   0  0  0  0  0  0  0  0  0  0  0  0
    3.6634    2.0034   21.6926 H   0  0  0  0  0  0  0  0  0  0  0  0
    3.0111    2.6563   19.3629 H   0  0  0  0  0  0  0  0  0  0  0  0
    4.4370    1.9522   17.4626 H   0  0  0  0  0  0  0  0  0  0  0  0
    7.3765   -7.4970   25.6177 H   0  0  0  0  0  0  0  0  0  0  0  0
    8.6071   -8.5677   26.3139 H   0  0  0  0  0  0  0  0  0  0  0  0
    9.0598   -7.3717   25.0851 H   0  0  0  0  0  0  0  0  0  0  0  0
   10.4287    2.0368   22.9354 H   0  0  0  0  0  0  0  0  0  0  0  0
   10.6035    1.0279   24.3510 H   0  0  0  0  0  0  0  0  0  0  0  0
    9.7367   -6.6182   27.3685 H   0  0  0  0  0  0  0  0  0  0  0  0
    8.0564   -6.7633   27.9189 H   0  0  0  0  0  0  0  0  0  0  0  0
   10.7927   -0.1029   22.4279 H   0  0  0  0  0  0  0  0  0  0  0  0
    9.9034   -5.4689   25.2194 H   0  0  0  0  0  0  0  0  0  0  0  0
    8.2392   -1.5641   21.0954 H   0  0  0  0  0  0  0  0  0  0  0  0
  1  2  2  0  0  0  0
  1  7  1  0  0  0  0
  2 10  1  0  0  0  0
  3  5  2  0  0  0  0
  3  9  1  0  0  0  0
  4  6  1  0  0  0  0
  4  9  2  0  0  0  0
  5 11  1  0  0  0  0
  6 11  2  0  0  0  0
  7 12  2  0  0  0  0
  8 10  2  0  0  0  0
  8 12  1  0  0  0  0
  9 24  1  0  0  0  0
 10 22  1  0  0  0  0
 11 28  1  0  0  0  0
 12 32  1  0  0  0  0
 13 14  2  0  0  0  0
 13 15  1  0  0  0  0
 13 27  1  0  0  0  0
 14 25  1  0  0  0  0
 14 29  1  0  0  0  0
 15 16  2  0  0  0  0
 16 17  1  0  0  0  0
 17 18  2  0  0  0  0
 18 27  1  0  0  0  0
 19 23  1  0  0  0  0
 19 28  1  0  0  0  0
 19 30  2  0  0  0  0
 20 24  1  0  0  0  0
 20 29  1  0  0  0  0
 20 31  2  0  0  0  0
 21 23  1  0  0  0  0
 22 24  1  6  0  0  0
 25 26  2  0  0  0  0
 26 27  1  0  0  0  0
  1 33  1  0  0  0  0
  2 34  1  0  0  0  0
  3 35  1  0  0  0  0
  4 36  1  0  0  0  0
  5 37  1  0  0  0  0
  6 38  1  0  0  0  0
  7 39  1  0  0  0  0
  8 40  1  0  0  0  0
 15 41  1  0  0  0  0
 16 42  1  0  0  0  0
 17 43  1  0  0  0  0
 18 44  1  0  0  0  0
 21 45  1  0  0  0  0
 21 46  1  0  0  0  0
 21 47  1  0  0  0  0
 22 48  1  0  0  0  0
 22 49  1  0  0  0  0
 23 50  1  0  0  0  0
 23 51  1  0  0  0  0
 24 52  1  0  0  0  0
 28 53  1  0  0  0  0
 29 54  1  0  0  0  0
M  END
> <clash_score>
0.6426271293922312

> <docking_score>
-7.664238929748535

> <overlap_score>
0.8434877395629883

$$$$
BENZO_258_1
  -OEChem-08222022183D

 54 57  0     1  0  0  0  0  0999 V2000
   13.6189    0.6768   23.2648 C   0  0  0  0  0  0  0  0  0  0  0  0
   12.2417    0.4681   23.3366 C   0  0  0  0  0  0  0  0  0  0  0  0
    9.0720   -1.1280   24.8640 C   0  0  0  0  0  0  0  0  0  0  0  0
    9.7200   -2.2600   22.8630 C   0  0  0  0  0  0  0  0  0  0  0  0
    8.9960   -2.3380   25.5320 C   0  0  0  0  0  0  0  0  0  0  0  0
    9.6730   -3.4710   23.5300 C   0  0  0  0  0  0  0  0  0  0  0  0
   14.1339    1.9702   23.3527 C   0  0  0  0  0  0  0  0  0  0  0  0
   11.8943    2.8462   23.5844 C   0  0  0  0  0  0  0  0  0  0  0  0
    9.3350   -1.0880   23.5010 C   0  0  0  0  0  0  0  0  0  0  0  0
   11.3794    1.5528   23.4964 C   0  0  0  0  0  0  0  0  0  0  0  0
    9.3070   -3.5340   24.8780 C   0  0  0  0  0  0  0  0  0  0  0  0
   13.2716    3.0548   23.5125 C   0  0  0  0  0  0  0  0  0  0  0  0
    6.1790    0.5730   19.9990 C   0  0  0  0  0  0  0  0  0  0  0  0
    7.3170   -0.1610   19.8550 C   0  0  0  0  0  0  0  0  0  0  0  0
    5.4210    0.9600   21.0930 C   0  0  0  0  0  0  0  0  0  0  0  0
    4.2750    1.7050   20.8490 C   0  0  0  0  0  0  0  0  0  0  0  0
    3.9160    2.0630   19.5520 C   0  0  0  0  0  0  0  0  0  0  0  0
    4.6890    1.6810   18.4640 C   0  0  0  0  0  0  0  0  0  0  0  0
    8.4227   -5.1089   26.6141 C   0  0  0  0  0  0  0  0  0  0  0  0
    9.0420    0.3700   21.5280 C   0  0  0  0  0  0  0  0  0  0  0  0
    8.4173   -7.5520   25.9532 C   0  0  0  0  0  0  0  0  0  0  0  0
    9.8870    1.3260   23.5730 C   0  0  0  0  0  0  0  0  0  0  0  0
    8.6899   -6.5411   27.0525 C   0  0  0  0  0  0  0  0  0  0  0  0
    9.4560    0.1560   22.8130 C   0  0  1  0  0  0  0  0  0  0  0  0
    7.6390   -0.2680   18.5410 N   0  0  0  0  0  0  0  0  0  0  0  0
    6.7580    0.3810   17.8350 N   0  0  0  0  0  0  0  0  0  0  0  0
    5.8300    0.9190   18.6970 N   0  0  0  0  0  0  0  0  0  0  0  0
    9.2546   -4.7423   25.5437 N   0  0  0  0  0  0  0  0  0  0  0  0
    8.1890   -0.7180   20.8700 N   0  0  0  0  0  0  0  0  0  0  0  0
    7.5768   -4.4084   27.1602 O   0  0  0  0  0  0  0  0  0  0  0  0
    9.2690    1.4140   20.9380 O   0  0  0  0  0  0  0  0  0  0  0  0
   13.9075    4.6504   23.6198 Cl  0  0  0  0  0  0  0  0  0  0  0  0
   14.2901   -0.1681   23.1402 H   0  0  0  0  0  0  0  0  0  0  0  0
   11.8492   -0.5431   23.2671 H   0  0  0  0  0  0  0  0  0  0  0  0
    8.9202   -0.1986   25.4206 H   0  0  0  0  0  0  0  0  0  0  0  0
   10.0631   -2.2319   21.8252 H   0  0  0  0  0  0  0  0  0  0  0  0
    8.6898   -2.3534   26.5810 H   0  0  0  0  0  0  0  0  0  0  0  0
    9.9254   -4.3899   22.9914 H   0  0  0  0  0  0  0  0  0  0  0  0
   15.2095    2.1179   23.2949 H   0  0  0  0  0  0  0  0  0  0  0  0
   11.2178    3.6885   23.7094 H   0  0  0  0  0  0  0  0  0  0  0  0
    5.6855    0.7074   22.1002 H   0  0  0  0  0  0  0  0  0  0  0  0
    3.6634    2.0034   21.6926 H   0  0  0  0  0  0  0  0  0  0  0  0
    3.0111    2.6563   19.3629 H   0  0  0  0  0  0  0  0  0  0  0  0
    4.4370    1.9522   17.4626 H   0  0  0  0  0  0  0  0  0  0  0  0
    7.3765   -7.4970   25.6177 H   0  0  0  0  0  0  0  0  0  0  0  0
    8.6071   -8.5677   26.3139 H   0  0  0  0  0  0  0  0  0  0  0  0
    9.0598   -7.3717   25.0851 H   0  0  0  0  0  0  0  0  0  0  0  0
    9.5854    1.2495   24.6258 H   0  0  0  0  0  0  0  0  0  0  0  0
    9.3886    2.2282   23.1920 H   0  0  0  0  0  0  0  0  0  0  0  0
    9.7367   -6.6182   27.3685 H   0  0  0  0  0  0  0  0  0  0  0  0
    8.0564   -6.7633   27.9189 H   0  0  0  0  0  0  0  0  0  0  0  0
    8.0686    0.4964   23.2745 H   0  0  0  0  0  0  0  0  0  0  0  0
    9.9034   -5.4689   25.2194 H   0  0  0  0  0  0  0  0  0  0  0  0
    8.2392   -1.5641   21.0954 H   0  0  0  0  0  0  0  0  0  0  0  0
  1  2  2  0  0  0  0
  1  7  1  0  0  0  0
  2 10  1  0  0  0  0
  3  5  2  0  0  0  0
  3  9  1  0  0  0  0
  4  6  1  0  0  0  0
  4  9  2  0  0  0  0
  5 11  1  0  0  0  0
  6 11  2  0  0  0  0
  7 12  2  0  0  0  0
  8 10  2  0  0  0  0
  8 12  1  0  0  0  0
  9 24  1  0  0  0  0
 10 22  1  0  0  0  0
 11 28  1  0  0  0  0
 12 32  1  0  0  0  0
 13 14  2  0  0  0  0
 13 15  1  0  0  0  0
 13 27  1  0  0  0  0
 14 25  1  0  0  0  0
 14 29  1  0  0  0  0
 15 16  2  0  0  0  0
 16 17  1  0  0  0  0
 17 18  2  0  0  0  0
 18 27  1  0  0  0  0
 19 23  1  0  0  0  0
 19 28  1  0  0  0  0
 19 30  2  0  0  0  0
 20 24  1  0  0  0  0
 20 29  1  0  0  0  0
 20 31  2  0  0  0  0
 21 23  1  0  0  0  0
 22 24  1  1  0  0  0
 25 26  2  0  0  0  0
 26 27  1  0  0  0  0
  1 33  1  0  0  0  0
  2 34  1  0  0  0  0
  3 35  1  0  0  0  0
  4 36  1  0  0  0  0
  5 37  1  0  0  0  0
  6 38  1  0  0  0  0
  7 39  1  0  0  0  0
  8 40  1  0  0  0  0
 15 41  1  0  0  0  0
 16 42  1  0  0  0  0
 17 43  1  0  0  0  0
 18 44  1  0  0  0  0
 21 45  1  0  0  0  0
 21 46  1  0  0  0  0
 21 47  1  0  0  0  0
 22 48  1  0  0  0  0
 22 49  1  0  0  0  0
 23 50  1  0  0  0  0
 23 51  1  0  0  0  0
 24 52  1  0  0  0  0
 28 53  1  0  0  0  0
 29 54  1  0  0  0  0
M  END
> <clash_score>
0.6426271293922312

> <docking_score>
-7.990333557128906

> <overlap_score>
1.004687786102295

$$$$
BENZO_261_1
  -OEChem-08222022183D

 59 63  0     1  0  0  0  0  0999 V2000
   12.9362    3.6202   21.5882 C   0  0  0  0  0  0  0  0  0  0  0  0
   13.2938    2.5837   22.4503 C   0  0  0  0  0  0  0  0  0  0  0  0
   11.5898    3.9128   21.3700 C   0  0  0  0  0  0  0  0  0  0  0  0
   12.3051    1.8396   23.0941 C   0  0  0  0  0  0  0  0  0  0  0  0
   10.6012    3.1687   22.0138 C   0  0  0  0  0  0  0  0  0  0  0  0
    9.0720   -1.1280   24.8640 C   0  0  0  0  0  0  0  0  0  0  0  0
    9.7200   -2.2600   22.8630 C   0  0  0  0  0  0  0  0  0  0  0  0
    8.9960   -2.3380   25.5320 C   0  0  0  0  0  0  0  0  0  0  0  0
    9.6730   -3.4710   23.5300 C   0  0  0  0  0  0  0  0  0  0  0  0
   10.9588    2.1321   22.8759 C   0  0  0  0  0  0  0  0  0  0  0  0
    9.3350   -1.0880   23.5010 C   0  0  0  0  0  0  0  0  0  0  0  0
    9.3070   -3.5340   24.8780 C   0  0  0  0  0  0  0  0  0  0  0  0
    6.1790    0.5730   19.9990 C   0  0  0  0  0  0  0  0  0  0  0  0
    7.3170   -0.1610   19.8550 C   0  0  0  0  0  0  0  0  0  0  0  0
    5.4210    0.9600   21.0930 C   0  0  0  0  0  0  0  0  0  0  0  0
    4.2750    1.7050   20.8490 C   0  0  0  0  0  0  0  0  0  0  0  0
    3.9160    2.0630   19.5520 C   0  0  0  0  0  0  0  0  0  0  0  0
    4.6890    1.6810   18.4640 C   0  0  0  0  0  0  0  0  0  0  0  0
    9.0420    0.3700   21.5280 C   0  0  0  0  0  0  0  0  0  0  0  0
    7.3637   -6.1365   27.1885 C   0  0  0  0  0  0  0  0  0  0  0  0
    8.1962   -4.9739   27.7340 C   0  0  0  0  0  0  0  0  0  0  0  0
    7.1943   -6.0395   25.6706 C   0  0  0  0  0  0  0  0  0  0  0  0
    9.5197   -4.8493   26.9795 C   0  0  0  0  0  0  0  0  0  0  0  0
    8.5443   -5.8838   24.9636 C   0  0  0  0  0  0  0  0  0  0  0  0
    9.8870    1.3260   23.5730 C   0  0  0  0  0  0  0  0  0  0  0  0
    9.4560    0.1560   22.8130 C   0  0  1  0  0  0  0  0  0  0  0  0
    7.6390   -0.2680   18.5410 N   0  0  0  0  0  0  0  0  0  0  0  0
    6.7580    0.3810   17.8350 N   0  0  0  0  0  0  0  0  0  0  0  0
    5.8300    0.9190   18.6970 N   0  0  0  0  0  0  0  0  0  0  0  0
    9.2563   -4.7385   25.5420 N   0  0  0  0  0  0  0  0  0  0  0  0
    8.1890   -0.7180   20.8700 N   0  0  0  0  0  0  0  0  0  0  0  0
    9.2690    1.4140   20.9380 O   0  0  0  0  0  0  0  0  0  0  0  0
   13.7061    4.2004   21.0881 H   0  0  0  0  0  0  0  0  0  0  0  0
   14.3420    2.3565   22.6212 H   0  0  0  0  0  0  0  0  0  0  0  0
   11.3111    4.7205   20.6997 H   0  0  0  0  0  0  0  0  0  0  0  0
   12.5931    1.0336   23.7640 H   0  0  0  0  0  0  0  0  0  0  0  0
    9.5548    3.4036   21.8376 H   0  0  0  0  0  0  0  0  0  0  0  0
    8.9214   -0.1986   25.4206 H   0  0  0  0  0  0  0  0  0  0  0  0
   10.0622   -2.2326   21.8251 H   0  0  0  0  0  0  0  0  0  0  0  0
    8.6882   -2.3542   26.5803 H   0  0  0  0  0  0  0  0  0  0  0  0
    9.9258   -4.3896   22.9914 H   0  0  0  0  0  0  0  0  0  0  0  0
    5.6855    0.7074   22.1002 H   0  0  0  0  0  0  0  0  0  0  0  0
    3.6634    2.0034   21.6926 H   0  0  0  0  0  0  0  0  0  0  0  0
    3.0111    2.6563   19.3629 H   0  0  0  0  0  0  0  0  0  0  0  0
    4.4370    1.9522   17.4626 H   0  0  0  0  0  0  0  0  0  0  0  0
    7.8484   -7.0905   27.4464 H   0  0  0  0  0  0  0  0  0  0  0  0
    6.3761   -6.1442   27.6721 H   0  0  0  0  0  0  0  0  0  0  0  0
    7.6308   -4.0428   27.6404 H   0  0  0  0  0  0  0  0  0  0  0  0
    8.3917   -5.1316   28.7967 H   0  0  0  0  0  0  0  0  0  0  0  0
    6.6889   -6.9376   25.3006 H   0  0  0  0  0  0  0  0  0  0  0  0
    6.5516   -5.1860   25.4256 H   0  0  0  0  0  0  0  0  0  0  0  0
   10.0494   -3.9643   27.3413 H   0  0  0  0  0  0  0  0  0  0  0  0
   10.1432   -5.7258   27.1775 H   0  0  0  0  0  0  0  0  0  0  0  0
    9.1338   -6.7931   25.0863 H   0  0  0  0  0  0  0  0  0  0  0  0
    8.3657   -5.7262   23.8995 H   0  0  0  0  0  0  0  0  0  0  0  0
   10.2417    1.0375   24.5711 H   0  0  0  0  0  0  0  0  0  0  0  0
    9.0279    1.9881   23.7492 H   0  0  0  0  0  0  0  0  0  0  0  0
   10.7949   -0.0994   22.4253 H   0  0  0  0  0  0  0  0  0  0  0  0
    8.2585   -1.5522   21.1129 H   0  0  0  0  0  0  0  0  0  0  0  0
  1  2  1  0  0  0  0
  1  3  2  0  0  0  0
  2  4  2  0  0  0  0
  3  5  1  0  0  0  0
  4 10  1  0  0  0  0
  5 10  2  0  0  0  0
  6  8  2  0  0  0  0
  6 11  1  0  0  0  0
  7  9  1  0  0  0  0
  7 11  2  0  0  0  0
  8 12  1  0  0  0  0
  9 12  2  0  0  0  0
 10 25  1  0  0  0  0
 11 26  1  0  0  0  0
 12 30  1  0  0  0  0
 13 14  2  0  0  0  0
 13 15  1  0  0  0  0
 13 29  1  0  0  0  0
 14 27  1  0  0  0  0
 14 31  1  0  0  0  0
 15 16  2  0  0  0  0
 16 17  1  0  0  0  0
 17 18  2  0  0  0  0
 18 29  1  0  0  0  0
 19 26  1  1  0  0  0
 19 31  1  0  0  0  0
 19 32  2  0  0  0  0
 20 21  1  0  0  0  0
 20 22  1  0  0  0  0
 21 23  1  0  0  0  0
 22 24  1  0  0  0  0
 23 30  1  0  0  0  0
 24 30  1  0  0  0  0
 25 26  1  0  0  0  0
 27 28  2  0  0  0  0
 28 29  1  0  0  0  0
  1 33  1  0  0  0  0
  2 34  1  0  0  0  0
  3 35  1  0  0  0  0
  4 36  1  0  0  0  0
  5 37  1  0  0  0  0
  6 38  1  0  0  0  0
  7 39  1  0  0  0  0
  8 40  1  0  0  0  0
  9 41  1  0  0  0  0
 15 42  1  0  0  0  0
 16 43  1  0  0  0  0
 17 44  1  0  0  0  0
 18 45  1  0  0  0  0
 20 46  1  0  0  0  0
 20 47  1  0  0  0  0
 21 48  1  0  0  0  0
 21 49  1  0  0  0  0
 22 50  1  0  0  0  0
 22 51  1  0  0  0  0
 23 52  1  0  0  0  0
 23 53  1  0  0  0  0
 24 54  1  0  0  0  0
 24 55  1  0  0  0  0
 25 56  1  0  0  0  0
 25 57  1  0  0  0  0
 26 58  1  0  0  0  0
 31 59  1  0  0  0  0
M  END
> <clash_score>
0.6168219295201246

> <docking_score>
-8.998136520385742

> <overlap_score>
0.9706592559814453

$$$$
BENZO_259_2
  -OEChem-08222022183D

 54 57  0     1  0  0  0  0  0999 V2000
    9.0720   -1.1280   24.8640 C   0  0  0  0  0  0  0  0  0  0  0  0
    9.7200   -2.2600   22.8630 C   0  0  0  0  0  0  0  0  0  0  0  0
    8.9960   -2.3380   25.5320 C   0  0  0  0  0  0  0  0  0  0  0  0
    9.6730   -3.4710   23.5300 C   0  0  0  0  0  0  0  0  0  0  0  0
   10.7934    3.1849   21.9605 C   0  0  0  0  0  0  0  0  0  0  0  0
   12.3221    1.9589   22.9580 C   0  0  0  0  0  0  0  0  0  0  0  0
    9.3350   -1.0880   23.5010 C   0  0  0  0  0  0  0  0  0  0  0  0
   10.9611    2.1180   22.8635 C   0  0  0  0  0  0  0  0  0  0  0  0
    9.3070   -3.5340   24.8780 C   0  0  0  0  0  0  0  0  0  0  0  0
    6.1790    0.5730   19.9990 C   0  0  0  0  0  0  0  0  0  0  0  0
    7.3170   -0.1610   19.8550 C   0  0  0  0  0  0  0  0  0  0  0  0
    5.4210    0.9600   21.0930 C   0  0  0  0  0  0  0  0  0  0  0  0
    4.2750    1.7050   20.8490 C   0  0  0  0  0  0  0  0  0  0  0  0
    3.9160    2.0630   19.5520 C   0  0  0  0  0  0  0  0  0  0  0  0
    4.6890    1.6810   18.4640 C   0  0  0  0  0  0  0  0  0  0  0  0
    8.4227   -5.1089   26.6141 C   0  0  0  0  0  0  0  0  0  0  0  0
    9.0420    0.3700   21.5280 C   0  0  0  0  0  0  0  0  0  0  0  0
    8.4173   -7.5520   25.9532 C   0  0  0  0  0  0  0  0  0  0  0  0
   14.2722    3.1281   21.9050 C   0  0  0  0  0  0  0  0  0  0  0  0
    9.8870    1.3260   23.5730 C   0  0  0  0  0  0  0  0  0  0  0  0
    8.6899   -6.5411   27.0525 C   0  0  0  0  0  0  0  0  0  0  0  0
    9.4560    0.1560   22.8130 C   0  0  2  0  0  0  0  0  0  0  0  0
   11.9550    3.6695   21.5134 N   0  0  0  0  0  0  0  0  0  0  0  0
    7.6390   -0.2680   18.5410 N   0  0  0  0  0  0  0  0  0  0  0  0
    6.7580    0.3810   17.8350 N   0  0  0  0  0  0  0  0  0  0  0  0
   12.8657    2.9036   22.1381 N   0  0  0  0  0  0  0  0  0  0  0  0
    5.8300    0.9190   18.6970 N   0  0  0  0  0  0  0  0  0  0  0  0
    9.2546   -4.7423   25.5437 N   0  0  0  0  0  0  0  0  0  0  0  0
    8.1890   -0.7180   20.8700 N   0  0  0  0  0  0  0  0  0  0  0  0
    7.5768   -4.4084   27.1602 O   0  0  0  0  0  0  0  0  0  0  0  0
    9.2690    1.4140   20.9380 O   0  0  0  0  0  0  0  0  0  0  0  0
    8.9202   -0.1986   25.4206 H   0  0  0  0  0  0  0  0  0  0  0  0
   10.0631   -2.2319   21.8252 H   0  0  0  0  0  0  0  0  0  0  0  0
    8.6898   -2.3534   26.5810 H   0  0  0  0  0  0  0  0  0  0  0  0
    9.9254   -4.3899   22.9914 H   0  0  0  0  0  0  0  0  0  0  0  0
    9.8743    3.6318   21.6087 H   0  0  0  0  0  0  0  0  0  0  0  0
   12.9348    1.2718   23.5258 H   0  0  0  0  0  0  0  0  0  0  0  0
    5.6855    0.7074   22.1002 H   0  0  0  0  0  0  0  0  0  0  0  0
    3.6634    2.0034   21.6926 H   0  0  0  0  0  0  0  0  0  0  0  0
    3.0111    2.6563   19.3629 H   0  0  0  0  0  0  0  0  0  0  0  0
    4.4370    1.9522   17.4626 H   0  0  0  0  0  0  0  0  0  0  0  0
    7.3765   -7.4970   25.6177 H   0  0  0  0  0  0  0  0  0  0  0  0
    8.6071   -8.5677   26.3139 H   0  0  0  0  0  0  0  0  0  0  0  0
    9.0598   -7.3717   25.0851 H   0  0  0  0  0  0  0  0  0  0  0  0
   14.5772    2.5070   21.0587 H   0  0  0  0  0  0  0  0  0  0  0  0
   14.4402    4.1857   21.6833 H   0  0  0  0  0  0  0  0  0  0  0  0
   14.8350    2.8566   22.8025 H   0  0  0  0  0  0  0  0  0  0  0  0
   10.2455    1.0419   24.5710 H   0  0  0  0  0  0  0  0  0  0  0  0
    9.0345    1.9965   23.7496 H   0  0  0  0  0  0  0  0  0  0  0  0
    9.7367   -6.6182   27.3685 H   0  0  0  0  0  0  0  0  0  0  0  0
    8.0564   -6.7633   27.9189 H   0  0  0  0  0  0  0  0  0  0  0  0
   10.7927   -0.1029   22.4279 H   0  0  0  0  0  0  0  0  0  0  0  0
    9.9034   -5.4689   25.2194 H   0  0  0  0  0  0  0  0  0  0  0  0
    8.2392   -1.5641   21.0954 H   0  0  0  0  0  0  0  0  0  0  0  0
  1  3  2  0  0  0  0
  1  7  1  0  0  0  0
  2  4  1  0  0  0  0
  2  7  2  0  0  0  0
  3  9  1  0  0  0  0
  4  9  2  0  0  0  0
  5  8  1  0  0  0  0
  5 23  2  0  0  0  0
  6  8  2  0  0  0  0
  6 26  1  0  0  0  0
  7 22  1  0  0  0  0
  8 20  1  0  0  0  0
  9 28  1  0  0  0  0
 10 11  2  0  0  0  0
 10 12  1  0  0  0  0
 10 27  1  0  0  0  0
 11 24  1  0  0  0  0
 11 29  1  0  0  0  0
 12 13  2  0  0  0  0
 13 14  1  0  0  0  0
 14 15  2  0  0  0  0
 15 27  1  0  0  0  0
 16 21  1  0  0  0  0
 16 28  1  0  0  0  0
 16 30  2  0  0  0  0
 17 22  1  0  0  0  0
 17 29  1  0  0  0  0
 17 31  2  0  0  0  0
 18 21  1  0  0  0  0
 19 26  1  0  0  0  0
 20 22  1  6  0  0  0
 23 26  1  0  0  0  0
 24 25  2  0  0  0  0
 25 27  1  0  0  0  0
  1 32  1  0  0  0  0
  2 33  1  0  0  0  0
  3 34  1  0  0  0  0
  4 35  1  0  0  0  0
  5 36  1  0  0  0  0
  6 37  1  0  0  0  0
 12 38  1  0  0  0  0
 13 39  1  0  0  0  0
 14 40  1  0  0  0  0
 15 41  1  0  0  0  0
 18 42  1  0  0  0  0
 18 43  1  0  0  0  0
 18 44  1  0  0  0  0
 19 45  1  0  0  0  0
 19 46  1  0  0  0  0
 19 47  1  0  0  0  0
 20 48  1  0  0  0  0
 20 49  1  0  0  0  0
 21 50  1  0  0  0  0
 21 51  1  0  0  0  0
 22 52  1  0  0  0  0
 28 53  1  0  0  0  0
 29 54  1  0  0  0  0
M  END
> <clash_score>
0.6426271293922312

> <docking_score>
-6.472771167755127

> <overlap_score>
0.9572394490242004

$$$$
BENZO_259_1
  -OEChem-08222022183D

 54 57  0     1  0  0  0  0  0999 V2000
    9.0720   -1.1280   24.8640 C   0  0  0  0  0  0  0  0  0  0  0  0
    9.7200   -2.2600   22.8630 C   0  0  0  0  0  0  0  0  0  0  0  0
    8.9960   -2.3380   25.5320 C   0  0  0  0  0  0  0  0  0  0  0  0
    9.6730   -3.4710   23.5300 C   0  0  0  0  0  0  0  0  0  0  0  0
   12.0720    2.7762   23.5689 C   0  0  0  0  0  0  0  0  0  0  0  0
   12.3651    0.6087   23.3429 C   0  0  0  0  0  0  0  0  0  0  0  0
    9.3350   -1.0880   23.5010 C   0  0  0  0  0  0  0  0  0  0  0  0
   11.3794    1.5528   23.4964 C   0  0  0  0  0  0  0  0  0  0  0  0
    9.3070   -3.5340   24.8780 C   0  0  0  0  0  0  0  0  0  0  0  0
    6.1790    0.5730   19.9990 C   0  0  0  0  0  0  0  0  0  0  0  0
    7.3170   -0.1610   19.8550 C   0  0  0  0  0  0  0  0  0  0  0  0
    5.4210    0.9600   21.0930 C   0  0  0  0  0  0  0  0  0  0  0  0
    4.2750    1.7050   20.8490 C   0  0  0  0  0  0  0  0  0  0  0  0
    3.9160    2.0630   19.5520 C   0  0  0  0  0  0  0  0  0  0  0  0
    4.6890    1.6810   18.4640 C   0  0  0  0  0  0  0  0  0  0  0  0
    8.4227   -5.1089   26.6141 C   0  0  0  0  0  0  0  0  0  0  0  0
    9.0420    0.3700   21.5280 C   0  0  0  0  0  0  0  0  0  0  0  0
    8.4173   -7.5520   25.9532 C   0  0  0  0  0  0  0  0  0  0  0  0
   14.8634    0.7326   23.1949 C   0  0  0  0  0  0  0  0  0  0  0  0
    9.8870    1.3260   23.5730 C   0  0  0  0  0  0  0  0  0  0  0  0
    8.6899   -6.5411   27.0525 C   0  0  0  0  0  0  0  0  0  0  0  0
    9.4560    0.1560   22.8130 C   0  0  1  0  0  0  0  0  0  0  0  0
   13.3955    2.6261   23.4698 N   0  0  0  0  0  0  0  0  0  0  0  0
    7.6390   -0.2680   18.5410 N   0  0  0  0  0  0  0  0  0  0  0  0
    6.7580    0.3810   17.8350 N   0  0  0  0  0  0  0  0  0  0  0  0
   13.5424    1.2972   23.3335 N   0  0  0  0  0  0  0  0  0  0  0  0
    5.8300    0.9190   18.6970 N   0  0  0  0  0  0  0  0  0  0  0  0
    9.2546   -4.7423   25.5437 N   0  0  0  0  0  0  0  0  0  0  0  0
    8.1890   -0.7180   20.8700 N   0  0  0  0  0  0  0  0  0  0  0  0
    7.5768   -4.4084   27.1602 O   0  0  0  0  0  0  0  0  0  0  0  0
    9.2690    1.4140   20.9380 O   0  0  0  0  0  0  0  0  0  0  0  0
    8.9202   -0.1986   25.4206 H   0  0  0  0  0  0  0  0  0  0  0  0
   10.0631   -2.2319   21.8252 H   0  0  0  0  0  0  0  0  0  0  0  0
    8.6898   -2.3534   26.5810 H   0  0  0  0  0  0  0  0  0  0  0  0
    9.9254   -4.3899   22.9914 H   0  0  0  0  0  0  0  0  0  0  0  0
   11.6698    3.7720   23.6907 H   0  0  0  0  0  0  0  0  0  0  0  0
   12.3300   -0.4677   23.2433 H   0  0  0  0  0  0  0  0  0  0  0  0
    5.6855    0.7074   22.1002 H   0  0  0  0  0  0  0  0  0  0  0  0
    3.6634    2.0034   21.6926 H   0  0  0  0  0  0  0  0  0  0  0  0
    3.0111    2.6563   19.3629 H   0  0  0  0  0  0  0  0  0  0  0  0
    4.4370    1.9522   17.4626 H   0  0  0  0  0  0  0  0  0  0  0  0
    7.3765   -7.4970   25.6177 H   0  0  0  0  0  0  0  0  0  0  0  0
    8.6071   -8.5677   26.3139 H   0  0  0  0  0  0  0  0  0  0  0  0
    9.0598   -7.3717   25.0851 H   0  0  0  0  0  0  0  0  0  0  0  0
   15.1060    0.6995   22.1295 H   0  0  0  0  0  0  0  0  0  0  0  0
   15.5839    1.3558   23.7319 H   0  0  0  0  0  0  0  0  0  0  0  0
   14.8726   -0.2743   23.6217 H   0  0  0  0  0  0  0  0  0  0  0  0
    9.5854    1.2495   24.6258 H   0  0  0  0  0  0  0  0  0  0  0  0
    9.3886    2.2282   23.1920 H   0  0  0  0  0  0  0  0  0  0  0  0
    9.7367   -6.6182   27.3685 H   0  0  0  0  0  0  0  0  0  0  0  0
    8.0564   -6.7633   27.9189 H   0  0  0  0  0  0  0  0  0  0  0  0
    8.0686    0.4964   23.2745 H   0  0  0  0  0  0  0  0  0  0  0  0
    9.9034   -5.4689   25.2194 H   0  0  0  0  0  0  0  0  0  0  0  0
    8.2392   -1.5641   21.0954 H   0  0  0  0  0  0  0  0  0  0  0  0
  1  3  2  0  0  0  0
  1  7  1  0  0  0  0
  2  4  1  0  0  0  0
  2  7  2  0  0  0  0
  3  9  1  0  0  0  0
  4  9  2  0  0  0  0
  5  8  1  0  0  0  0
  5 23  2  0  0  0  0
  6  8  2  0  0  0  0
  6 26  1  0  0  0  0
  7 22  1  0  0  0  0
  8 20  1  0  0  0  0
  9 28  1  0  0  0  0
 10 11  2  0  0  0  0
 10 12  1  0  0  0  0
 10 27  1  0  0  0  0
 11 24  1  0  0  0  0
 11 29  1  0  0  0  0
 12 13  2  0  0  0  0
 13 14  1  0  0  0  0
 14 15  2  0  0  0  0
 15 27  1  0  0  0  0
 16 21  1  0  0  0  0
 16 28  1  0  0  0  0
 16 30  2  0  0  0  0
 17 22  1  0  0  0  0
 17 29  1  0  0  0  0
 17 31  2  0  0  0  0
 18 21  1  0  0  0  0
 19 26  1  0  0  0  0
 20 22  1  1  0  0  0
 23 26  1  0  0  0  0
 24 25  2  0  0  0  0
 25 27  1  0  0  0  0
  1 32  1  0  0  0  0
  2 33  1  0  0  0  0
  3 34  1  0  0  0  0
  4 35  1  0  0  0  0
  5 36  1  0  0  0  0
  6 37  1  0  0  0  0
 12 38  1  0  0  0  0
 13 39  1  0  0  0  0
 14 40  1  0  0  0  0
 15 41  1  0  0  0  0
 18 42  1  0  0  0  0
 18 43  1  0  0  0  0
 18 44  1  0  0  0  0
 19 45  1  0  0  0  0
 19 46  1  0  0  0  0
 19 47  1  0  0  0  0
 20 48  1  0  0  0  0
 20 49  1  0  0  0  0
 21 50  1  0  0  0  0
 21 51  1  0  0  0  0
 22 52  1  0  0  0  0
 28 53  1  0  0  0  0
 29 54  1  0  0  0  0
M  END
> <clash_score>
0.6426271293922312

> <docking_score>
-8.32163143157959

> <overlap_score>
1.0034992694854736

$$$$
BENZO_260_1
  -OEChem-08222022183D

 56 60  0     1  0  0  0  0  0999 V2000
    9.0720   -1.1280   24.8640 C   0  0  0  0  0  0  0  0  0  0  0  0
    9.7200   -2.2600   22.8630 C   0  0  0  0  0  0  0  0  0  0  0  0
    8.9960   -2.3380   25.5320 C   0  0  0  0  0  0  0  0  0  0  0  0
    9.6730   -3.4710   23.5300 C   0  0  0  0  0  0  0  0  0  0  0  0
   12.3968    0.6932   23.7036 C   0  0  0  0  0  0  0  0  0  0  0  0
   13.4249    0.5733   24.6125 C   0  0  0  0  0  0  0  0  0  0  0  0
   11.3289    1.2940   25.6787 C   0  0  0  0  0  0  0  0  0  0  0  0
    9.3350   -1.0880   23.5010 C   0  0  0  0  0  0  0  0  0  0  0  0
   11.1825    1.1108   24.3212 C   0  0  0  0  0  0  0  0  0  0  0  0
    9.3070   -3.5340   24.8780 C   0  0  0  0  0  0  0  0  0  0  0  0
    6.1790    0.5730   19.9990 C   0  0  0  0  0  0  0  0  0  0  0  0
    7.3170   -0.1610   19.8550 C   0  0  0  0  0  0  0  0  0  0  0  0
    5.4210    0.9600   21.0930 C   0  0  0  0  0  0  0  0  0  0  0  0
    4.2750    1.7050   20.8490 C   0  0  0  0  0  0  0  0  0  0  0  0
    3.9160    2.0630   19.5520 C   0  0  0  0  0  0  0  0  0  0  0  0
    4.6890    1.6810   18.4640 C   0  0  0  0  0  0  0  0  0  0  0  0
    9.0420    0.3700   21.5280 C   0  0  0  0  0  0  0  0  0  0  0  0
    7.3637   -6.1365   27.1885 C   0  0  0  0  0  0  0  0  0  0  0  0
    8.1962   -4.9739   27.7340 C   0  0  0  0  0  0  0  0  0  0  0  0
    7.1943   -6.0395   25.6706 C   0  0  0  0  0  0  0  0  0  0  0  0
    9.5197   -4.8493   26.9795 C   0  0  0  0  0  0  0  0  0  0  0  0
    8.5443   -5.8838   24.9636 C   0  0  0  0  0  0  0  0  0  0  0  0
    9.8870    1.3260   23.5730 C   0  0  0  0  0  0  0  0  0  0  0  0
    9.4560    0.1560   22.8130 C   0  0  1  0  0  0  0  0  0  0  0  0
    7.6390   -0.2680   18.5410 N   0  0  0  0  0  0  0  0  0  0  0  0
    6.7580    0.3810   17.8350 N   0  0  0  0  0  0  0  0  0  0  0  0
    5.8300    0.9190   18.6970 N   0  0  0  0  0  0  0  0  0  0  0  0
    9.2563   -4.7385   25.5420 N   0  0  0  0  0  0  0  0  0  0  0  0
    8.1890   -0.7180   20.8700 N   0  0  0  0  0  0  0  0  0  0  0  0
    9.2690    1.4140   20.9380 O   0  0  0  0  0  0  0  0  0  0  0  0
   12.9251    0.9633   26.2032 S   0  0  0  0  0  0  0  0  0  0  0  0
    8.9214   -0.1986   25.4206 H   0  0  0  0  0  0  0  0  0  0  0  0
   10.0622   -2.2326   21.8251 H   0  0  0  0  0  0  0  0  0  0  0  0
    8.6882   -2.3542   26.5803 H   0  0  0  0  0  0  0  0  0  0  0  0
    9.9258   -4.3896   22.9914 H   0  0  0  0  0  0  0  0  0  0  0  0
   12.5144    0.4895   22.6468 H   0  0  0  0  0  0  0  0  0  0  0  0
   14.4455    0.2746   24.4187 H   0  0  0  0  0  0  0  0  0  0  0  0
   10.5774    1.6050   26.3912 H   0  0  0  0  0  0  0  0  0  0  0  0
    5.6855    0.7074   22.1002 H   0  0  0  0  0  0  0  0  0  0  0  0
    3.6634    2.0034   21.6926 H   0  0  0  0  0  0  0  0  0  0  0  0
    3.0111    2.6563   19.3629 H   0  0  0  0  0  0  0  0  0  0  0  0
    4.4370    1.9522   17.4626 H   0  0  0  0  0  0  0  0  0  0  0  0
    7.8484   -7.0905   27.4464 H   0  0  0  0  0  0  0  0  0  0  0  0
    6.3761   -6.1442   27.6721 H   0  0  0  0  0  0  0  0  0  0  0  0
    7.6308   -4.0428   27.6404 H   0  0  0  0  0  0  0  0  0  0  0  0
    8.3917   -5.1316   28.7967 H   0  0  0  0  0  0  0  0  0  0  0  0
    6.6889   -6.9376   25.3006 H   0  0  0  0  0  0  0  0  0  0  0  0
    6.5516   -5.1860   25.4256 H   0  0  0  0  0  0  0  0  0  0  0  0
   10.0494   -3.9643   27.3413 H   0  0  0  0  0  0  0  0  0  0  0  0
   10.1432   -5.7258   27.1775 H   0  0  0  0  0  0  0  0  0  0  0  0
    9.1338   -6.7931   25.0863 H   0  0  0  0  0  0  0  0  0  0  0  0
    8.3657   -5.7262   23.8995 H   0  0  0  0  0  0  0  0  0  0  0  0
    9.1090    1.6445   24.2791 H   0  0  0  0  0  0  0  0  0  0  0  0
   10.0281    2.1766   22.8918 H   0  0  0  0  0  0  0  0  0  0  0  0
   10.7949   -0.0994   22.4253 H   0  0  0  0  0  0  0  0  0  0  0  0
    8.2585   -1.5522   21.1129 H   0  0  0  0  0  0  0  0  0  0  0  0
  1  3  2  0  0  0  0
  1  8  1  0  0  0  0
  2  4  1  0  0  0  0
  2  8  2  0  0  0  0
  3 10  1  0  0  0  0
  4 10  2  0  0  0  0
  5  6  2  0  0  0  0
  5  9  1  0  0  0  0
  6 31  1  0  0  0  0
  7  9  2  0  0  0  0
  7 31  1  0  0  0  0
  8 24  1  0  0  0  0
  9 23  1  0  0  0  0
 10 28  1  0  0  0  0
 11 12  2  0  0  0  0
 11 13  1  0  0  0  0
 11 27  1  0  0  0  0
 12 25  1  0  0  0  0
 12 29  1  0  0  0  0
 13 14  2  0  0  0  0
 14 15  1  0  0  0  0
 15 16  2  0  0  0  0
 16 27  1  0  0  0  0
 17 24  1  1  0  0  0
 17 29  1  0  0  0  0
 17 30  2  0  0  0  0
 18 19  1  0  0  0  0
 18 20  1  0  0  0  0
 19 21  1  0  0  0  0
 20 22  1  0  0  0  0
 21 28  1  0  0  0  0
 22 28  1  0  0  0  0
 23 24  1  0  0  0  0
 25 26  2  0  0  0  0
 26 27  1  0  0  0  0
  1 32  1  0  0  0  0
  2 33  1  0  0  0  0
  3 34  1  0  0  0  0
  4 35  1  0  0  0  0
  5 36  1  0  0  0  0
  6 37  1  0  0  0  0
  7 38  1  0  0  0  0
 13 39  1  0  0  0  0
 14 40  1  0  0  0  0
 15 41  1  0  0  0  0
 16 42  1  0  0  0  0
 18 43  1  0  0  0  0
 18 44  1  0  0  0  0
 19 45  1  0  0  0  0
 19 46  1  0  0  0  0
 20 47  1  0  0  0  0
 20 48  1  0  0  0  0
 21 49  1  0  0  0  0
 21 50  1  0  0  0  0
 22 51  1  0  0  0  0
 22 52  1  0  0  0  0
 23 53  1  0  0  0  0
 23 54  1  0  0  0  0
 24 55  1  0  0  0  0
 29 56  1  0  0  0  0
M  END
> <clash_score>
0.6358218900354776

> <docking_score>
-7.4247894287109375

> <overlap_score>
0.9228859543800354

$$$$
BENZO_261_2
  -OEChem-08222022183D

 59 63  0     1  0  0  0  0  0999 V2000
   14.1302    2.0067   23.3945 C   0  0  0  0  0  0  0  0  0  0  0  0
   13.2571    3.0838   23.5461 C   0  0  0  0  0  0  0  0  0  0  0  0
   13.6272    0.7090   23.3006 C   0  0  0  0  0  0  0  0  0  0  0  0
   11.8810    2.8633   23.6040 C   0  0  0  0  0  0  0  0  0  0  0  0
   12.2511    0.4885   23.3584 C   0  0  0  0  0  0  0  0  0  0  0  0
    9.0720   -1.1280   24.8640 C   0  0  0  0  0  0  0  0  0  0  0  0
    9.7200   -2.2600   22.8630 C   0  0  0  0  0  0  0  0  0  0  0  0
    8.9960   -2.3380   25.5320 C   0  0  0  0  0  0  0  0  0  0  0  0
    9.6730   -3.4710   23.5300 C   0  0  0  0  0  0  0  0  0  0  0  0
   11.3780    1.5657   23.5101 C   0  0  0  0  0  0  0  0  0  0  0  0
    9.3350   -1.0880   23.5010 C   0  0  0  0  0  0  0  0  0  0  0  0
    9.3070   -3.5340   24.8780 C   0  0  0  0  0  0  0  0  0  0  0  0
    6.1790    0.5730   19.9990 C   0  0  0  0  0  0  0  0  0  0  0  0
    7.3170   -0.1610   19.8550 C   0  0  0  0  0  0  0  0  0  0  0  0
    5.4210    0.9600   21.0930 C   0  0  0  0  0  0  0  0  0  0  0  0
    4.2750    1.7050   20.8490 C   0  0  0  0  0  0  0  0  0  0  0  0
    3.9160    2.0630   19.5520 C   0  0  0  0  0  0  0  0  0  0  0  0
    4.6890    1.6810   18.4640 C   0  0  0  0  0  0  0  0  0  0  0  0
    9.0420    0.3700   21.5280 C   0  0  0  0  0  0  0  0  0  0  0  0
    7.3637   -6.1365   27.1885 C   0  0  0  0  0  0  0  0  0  0  0  0
    8.1962   -4.9739   27.7340 C   0  0  0  0  0  0  0  0  0  0  0  0
    7.1943   -6.0395   25.6706 C   0  0  0  0  0  0  0  0  0  0  0  0
    9.5197   -4.8493   26.9795 C   0  0  0  0  0  0  0  0  0  0  0  0
    8.5443   -5.8838   24.9636 C   0  0  0  0  0  0  0  0  0  0  0  0
    9.8870    1.3260   23.5730 C   0  0  0  0  0  0  0  0  0  0  0  0
    9.4560    0.1560   22.8130 C   0  0  2  0  0  0  0  0  0  0  0  0
    7.6390   -0.2680   18.5410 N   0  0  0  0  0  0  0  0  0  0  0  0
    6.7580    0.3810   17.8350 N   0  0  0  0  0  0  0  0  0  0  0  0
    5.8300    0.9190   18.6970 N   0  0  0  0  0  0  0  0  0  0  0  0
    9.2563   -4.7385   25.5420 N   0  0  0  0  0  0  0  0  0  0  0  0
    8.1890   -0.7180   20.8700 N   0  0  0  0  0  0  0  0  0  0  0  0
    9.2690    1.4140   20.9380 O   0  0  0  0  0  0  0  0  0  0  0  0
   15.2016    2.1786   23.3481 H   0  0  0  0  0  0  0  0  0  0  0  0
   13.6485    4.0944   23.6181 H   0  0  0  0  0  0  0  0  0  0  0  0
   14.3067   -0.1298   23.1814 H   0  0  0  0  0  0  0  0  0  0  0  0
   11.2082    3.7086   23.7225 H   0  0  0  0  0  0  0  0  0  0  0  0
   11.8683   -0.5260   23.2846 H   0  0  0  0  0  0  0  0  0  0  0  0
    8.9214   -0.1986   25.4206 H   0  0  0  0  0  0  0  0  0  0  0  0
   10.0622   -2.2326   21.8251 H   0  0  0  0  0  0  0  0  0  0  0  0
    8.6882   -2.3542   26.5803 H   0  0  0  0  0  0  0  0  0  0  0  0
    9.9258   -4.3896   22.9914 H   0  0  0  0  0  0  0  0  0  0  0  0
    5.6855    0.7074   22.1002 H   0  0  0  0  0  0  0  0  0  0  0  0
    3.6634    2.0034   21.6926 H   0  0  0  0  0  0  0  0  0  0  0  0
    3.0111    2.6563   19.3629 H   0  0  0  0  0  0  0  0  0  0  0  0
    4.4370    1.9522   17.4626 H   0  0  0  0  0  0  0  0  0  0  0  0
    7.8484   -7.0905   27.4464 H   0  0  0  0  0  0  0  0  0  0  0  0
    6.3761   -6.1442   27.6721 H   0  0  0  0  0  0  0  0  0  0  0  0
    7.6308   -4.0428   27.6404 H   0  0  0  0  0  0  0  0  0  0  0  0
    8.3917   -5.1316   28.7967 H   0  0  0  0  0  0  0  0  0  0  0  0
    6.6889   -6.9376   25.3006 H   0  0  0  0  0  0  0  0  0  0  0  0
    6.5516   -5.1860   25.4256 H   0  0  0  0  0  0  0  0  0  0  0  0
   10.0494   -3.9643   27.3413 H   0  0  0  0  0  0  0  0  0  0  0  0
   10.1432   -5.7258   27.1775 H   0  0  0  0  0  0  0  0  0  0  0  0
    9.1338   -6.7931   25.0863 H   0  0  0  0  0  0  0  0  0  0  0  0
    8.3657   -5.7262   23.8995 H   0  0  0  0  0  0  0  0  0  0  0  0
    9.5760    1.2490   24.6231 H   0  0  0  0  0  0  0  0  0  0  0  0
    9.3844    2.2230   23.1853 H   0  0  0  0  0  0  0  0  0  0  0  0
    8.0674    0.5009   23.2732 H   0  0  0  0  0  0  0  0  0  0  0  0
    8.2585   -1.5522   21.1129 H   0  0  0  0  0  0  0  0  0  0  0  0
  1  2  1  0  0  0  0
  1  3  2  0  0  0  0
  2  4  2  0  0  0  0
  3  5  1  0  0  0  0
  4 10  1  0  0  0  0
  5 10  2  0  0  0  0
  6  8  2  0  0  0  0
  6 11  1  0  0  0  0
  7  9  1  0  0  0  0
  7 11  2  0  0  0  0
  8 12  1  0  0  0  0
  9 12  2  0  0  0  0
 10 25  1  0  0  0  0
 11 26  1  0  0  0  0
 12 30  1  0  0  0  0
 13 14  2  0  0  0  0
 13 15  1  0  0  0  0
 13 29  1  0  0  0  0
 14 27  1  0  0  0  0
 14 31  1  0  0  0  0
 15 16  2  0  0  0  0
 16 17  1  0  0  0  0
 17 18  2  0  0  0  0
 18 29  1  0  0  0  0
 19 26  1  6  0  0  0
 19 31  1  0  0  0  0
 19 32  2  0  0  0  0
 20 21  1  0  0  0  0
 20 22  1  0  0  0  0
 21 23  1  0  0  0  0
 22 24  1  0  0  0  0
 23 30  1  0  0  0  0
 24 30  1  0  0  0  0
 25 26  1  0  0  0  0
 27 28  2  0  0  0  0
 28 29  1  0  0  0  0
  1 33  1  0  0  0  0
  2 34  1  0  0  0  0
  3 35  1  0  0  0  0
  4 36  1  0  0  0  0
  5 37  1  0  0  0  0
  6 38  1  0  0  0  0
  7 39  1  0  0  0  0
  8 40  1  0  0  0  0
  9 41  1  0  0  0  0
 15 42  1  0  0  0  0
 16 43  1  0  0  0  0
 17 44  1  0  0  0  0
 18 45  1  0  0  0  0
 20 46  1  0  0  0  0
 20 47  1  0  0  0  0
 21 48  1  0  0  0  0
 21 49  1  0  0  0  0
 22 50  1  0  0  0  0
 22 51  1  0  0  0  0
 23 52  1  0  0  0  0
 23 53  1  0  0  0  0
 24 54  1  0  0  0  0
 24 55  1  0  0  0  0
 25 56  1  0  0  0  0
 25 57  1  0  0  0  0
 26 58  1  0  0  0  0
 31 59  1  0  0  0  0
M  END
> <clash_score>
0

> <docking_score>
-8.99821662902832

> <overlap_score>
1.0136134624481201

$$$$
BENZO_260_2
  -OEChem-08222022183D

 56 60  0     1  0  0  0  0  0999 V2000
    9.0720   -1.1280   24.8640 C   0  0  0  0  0  0  0  0  0  0  0  0
    9.7200   -2.2600   22.8630 C   0  0  0  0  0  0  0  0  0  0  0  0
    8.9960   -2.3380   25.5320 C   0  0  0  0  0  0  0  0  0  0  0  0
    9.6730   -3.4710   23.5300 C   0  0  0  0  0  0  0  0  0  0  0  0
   12.3482    0.5241   23.4467 C   0  0  0  0  0  0  0  0  0  0  0  0
   13.6337    1.0166   23.3986 C   0  0  0  0  0  0  0  0  0  0  0  0
   11.9591    2.8148   23.5083 C   0  0  0  0  0  0  0  0  0  0  0  0
    9.3350   -1.0880   23.5010 C   0  0  0  0  0  0  0  0  0  0  0  0
   11.3780    1.5657   23.5101 C   0  0  0  0  0  0  0  0  0  0  0  0
    9.3070   -3.5340   24.8780 C   0  0  0  0  0  0  0  0  0  0  0  0
    6.1790    0.5730   19.9990 C   0  0  0  0  0  0  0  0  0  0  0  0
    7.3170   -0.1610   19.8550 C   0  0  0  0  0  0  0  0  0  0  0  0
    5.4210    0.9600   21.0930 C   0  0  0  0  0  0  0  0  0  0  0  0
    4.2750    1.7050   20.8490 C   0  0  0  0  0  0  0  0  0  0  0  0
    3.9160    2.0630   19.5520 C   0  0  0  0  0  0  0  0  0  0  0  0
    4.6890    1.6810   18.4640 C   0  0  0  0  0  0  0  0  0  0  0  0
    9.0420    0.3700   21.5280 C   0  0  0  0  0  0  0  0  0  0  0  0
    7.3637   -6.1365   27.1885 C   0  0  0  0  0  0  0  0  0  0  0  0
    8.1962   -4.9739   27.7340 C   0  0  0  0  0  0  0  0  0  0  0  0
    7.1943   -6.0395   25.6706 C   0  0  0  0  0  0  0  0  0  0  0  0
    9.5197   -4.8493   26.9795 C   0  0  0  0  0  0  0  0  0  0  0  0
    8.5443   -5.8838   24.9636 C   0  0  0  0  0  0  0  0  0  0  0  0
    9.8870    1.3260   23.5730 C   0  0  0  0  0  0  0  0  0  0  0  0
    9.4560    0.1560   22.8130 C   0  0  2  0  0  0  0  0  0  0  0  0
    7.6390   -0.2680   18.5410 N   0  0  0  0  0  0  0  0  0  0  0  0
    6.7580    0.3810   17.8350 N   0  0  0  0  0  0  0  0  0  0  0  0
    5.8300    0.9190   18.6970 N   0  0  0  0  0  0  0  0  0  0  0  0
    9.2563   -4.7385   25.5420 N   0  0  0  0  0  0  0  0  0  0  0  0
    8.1890   -0.7180   20.8700 N   0  0  0  0  0  0  0  0  0  0  0  0
    9.2690    1.4140   20.9380 O   0  0  0  0  0  0  0  0  0  0  0  0
   13.6675    2.7284   23.4300 S   0  0  0  0  0  0  0  0  0  0  0  0
    8.9214   -0.1986   25.4206 H   0  0  0  0  0  0  0  0  0  0  0  0
   10.0622   -2.2326   21.8251 H   0  0  0  0  0  0  0  0  0  0  0  0
    8.6882   -2.3542   26.5803 H   0  0  0  0  0  0  0  0  0  0  0  0
    9.9258   -4.3896   22.9914 H   0  0  0  0  0  0  0  0  0  0  0  0
   12.1191   -0.5341   23.4370 H   0  0  0  0  0  0  0  0  0  0  0  0
   14.5547    0.4533   23.3471 H   0  0  0  0  0  0  0  0  0  0  0  0
   11.4660    3.7761   23.5503 H   0  0  0  0  0  0  0  0  0  0  0  0
    5.6855    0.7074   22.1002 H   0  0  0  0  0  0  0  0  0  0  0  0
    3.6634    2.0034   21.6926 H   0  0  0  0  0  0  0  0  0  0  0  0
    3.0111    2.6563   19.3629 H   0  0  0  0  0  0  0  0  0  0  0  0
    4.4370    1.9522   17.4626 H   0  0  0  0  0  0  0  0  0  0  0  0
    7.8484   -7.0905   27.4464 H   0  0  0  0  0  0  0  0  0  0  0  0
    6.3761   -6.1442   27.6721 H   0  0  0  0  0  0  0  0  0  0  0  0
    7.6308   -4.0428   27.6404 H   0  0  0  0  0  0  0  0  0  0  0  0
    8.3917   -5.1316   28.7967 H   0  0  0  0  0  0  0  0  0  0  0  0
    6.6889   -6.9376   25.3006 H   0  0  0  0  0  0  0  0  0  0  0  0
    6.5516   -5.1860   25.4256 H   0  0  0  0  0  0  0  0  0  0  0  0
   10.0494   -3.9643   27.3413 H   0  0  0  0  0  0  0  0  0  0  0  0
   10.1432   -5.7258   27.1775 H   0  0  0  0  0  0  0  0  0  0  0  0
    9.1338   -6.7931   25.0863 H   0  0  0  0  0  0  0  0  0  0  0  0
    8.3657   -5.7262   23.8995 H   0  0  0  0  0  0  0  0  0  0  0  0
    9.5760    1.2490   24.6231 H   0  0  0  0  0  0  0  0  0  0  0  0
    9.3844    2.2230   23.1853 H   0  0  0  0  0  0  0  0  0  0  0  0
    8.0674    0.5009   23.2732 H   0  0  0  0  0  0  0  0  0  0  0  0
    8.2585   -1.5522   21.1129 H   0  0  0  0  0  0  0  0  0  0  0  0
  1  3  2  0  0  0  0
  1  8  1  0  0  0  0
  2  4  1  0  0  0  0
  2  8  2  0  0  0  0
  3 10  1  0  0  0  0
  4 10  2  0  0  0  0
  5  6  2  0  0  0  0
  5  9  1  0  0  0  0
  6 31  1  0  0  0  0
  7  9  2  0  0  0  0
  7 31  1  0  0  0  0
  8 24  1  0  0  0  0
  9 23  1  0  0  0  0
 10 28  1  0  0  0  0
 11 12  2  0  0  0  0
 11 13  1  0  0  0  0
 11 27  1  0  0  0  0
 12 25  1  0  0  0  0
 12 29  1  0  0  0  0
 13 14  2  0  0  0  0
 14 15  1  0  0  0  0
 15 16  2  0  0  0  0
 16 27  1  0  0  0  0
 17 24  1  6  0  0  0
 17 29  1  0  0  0  0
 17 30  2  0  0  0  0
 18 19  1  0  0  0  0
 18 20  1  0  0  0  0
 19 21  1  0  0  0  0
 20 22  1  0  0  0  0
 21 28  1  0  0  0  0
 22 28  1  0  0  0  0
 23 24  1  0  0  0  0
 25 26  2  0  0  0  0
 26 27  1  0  0  0  0
  1 32  1  0  0  0  0
  2 33  1  0  0  0  0
  3 34  1  0  0  0  0
  4 35  1  0  0  0  0
  5 36  1  0  0  0  0
  6 37  1  0  0  0  0
  7 38  1  0  0  0  0
 13 39  1  0  0  0  0
 14 40  1  0  0  0  0
 15 41  1  0  0  0  0
 16 42  1  0  0  0  0
 18 43  1  0  0  0  0
 18 44  1  0  0  0  0
 19 45  1  0  0  0  0
 19 46  1  0  0  0  0
 20 47  1  0  0  0  0
 20 48  1  0  0  0  0
 21 49  1  0  0  0  0
 21 50  1  0  0  0  0
 22 51  1  0  0  0  0
 22 52  1  0  0  0  0
 23 53  1  0  0  0  0
 23 54  1  0  0  0  0
 24 55  1  0  0  0  0
 29 56  1  0  0  0  0
M  END
> <clash_score>
0

> <docking_score>
-9.468750953674316

> <overlap_score>
0.9986698031425476

$$$$
BENZO_265_1
  -OEChem-08222022183D

 47 50  0     1  0  0  0  0  0999 V2000
   14.1341    1.9700   23.3554 C   0  0  0  0  0  0  0  0  0  0  0  0
   13.2717    3.0547   23.5141 C   0  0  0  0  0  0  0  0  0  0  0  0
   13.6192    0.6767   23.2672 C   0  0  0  0  0  0  0  0  0  0  0  0
   11.8943    2.8461   23.5846 C   0  0  0  0  0  0  0  0  0  0  0  0
   12.2418    0.4680   23.3377 C   0  0  0  0  0  0  0  0  0  0  0  0
    8.9960   -2.3380   25.5320 C   0  0  0  0  0  0  0  0  0  0  0  0
    9.6730   -3.4710   23.5300 C   0  0  0  0  0  0  0  0  0  0  0  0
    9.0720   -1.1280   24.8640 C   0  0  0  0  0  0  0  0  0  0  0  0
    9.7200   -2.2600   22.8630 C   0  0  0  0  0  0  0  0  0  0  0  0
    9.3070   -3.5340   24.8780 C   0  0  0  0  0  0  0  0  0  0  0  0
   11.3794    1.5528   23.4964 C   0  0  0  0  0  0  0  0  0  0  0  0
    9.3350   -1.0880   23.5010 C   0  0  0  0  0  0  0  0  0  0  0  0
    6.1790    0.5730   19.9990 C   0  0  0  0  0  0  0  0  0  0  0  0
    7.3170   -0.1610   19.8550 C   0  0  0  0  0  0  0  0  0  0  0  0
    5.4210    0.9600   21.0930 C   0  0  0  0  0  0  0  0  0  0  0  0
    4.2750    1.7050   20.8490 C   0  0  0  0  0  0  0  0  0  0  0  0
    3.9160    2.0630   19.5520 C   0  0  0  0  0  0  0  0  0  0  0  0
    4.6890    1.6810   18.4640 C   0  0  0  0  0  0  0  0  0  0  0  0
    9.0420    0.3700   21.5280 C   0  0  0  0  0  0  0  0  0  0  0  0
    9.2507   -4.8268   25.5895 C   0  0  0  0  0  0  0  0  0  0  0  0
    9.8870    1.3260   23.5730 C   0  0  0  0  0  0  0  0  0  0  0  0
    9.4560    0.1560   22.8130 C   0  0  1  0  0  0  0  0  0  0  0  0
    7.6390   -0.2680   18.5410 N   0  0  0  0  0  0  0  0  0  0  0  0
    6.7580    0.3810   17.8350 N   0  0  0  0  0  0  0  0  0  0  0  0
    5.8300    0.9190   18.6970 N   0  0  0  0  0  0  0  0  0  0  0  0
    8.1890   -0.7180   20.8700 N   0  0  0  0  0  0  0  0  0  0  0  0
    9.2690    1.4140   20.9380 O   0  0  0  0  0  0  0  0  0  0  0  0
   15.2065    2.1328   23.2992 H   0  0  0  0  0  0  0  0  0  0  0  0
   13.6724    4.0620   23.5817 H   0  0  0  0  0  0  0  0  0  0  0  0
   14.2903   -0.1680   23.1426 H   0  0  0  0  0  0  0  0  0  0  0  0
   11.2299    3.6973   23.7085 H   0  0  0  0  0  0  0  0  0  0  0  0
   11.8496   -0.5431   23.2682 H   0  0  0  0  0  0  0  0  0  0  0  0
    8.6904   -2.3557   26.5808 H   0  0  0  0  0  0  0  0  0  0  0  0
    9.9249   -4.3911   22.9935 H   0  0  0  0  0  0  0  0  0  0  0  0
    8.9209   -0.1987   25.4207 H   0  0  0  0  0  0  0  0  0  0  0  0
   10.0640   -2.2315   21.8255 H   0  0  0  0  0  0  0  0  0  0  0  0
    5.6855    0.7074   22.1002 H   0  0  0  0  0  0  0  0  0  0  0  0
    3.6634    2.0034   21.6926 H   0  0  0  0  0  0  0  0  0  0  0  0
    3.0111    2.6563   19.3629 H   0  0  0  0  0  0  0  0  0  0  0  0
    4.4370    1.9522   17.4626 H   0  0  0  0  0  0  0  0  0  0  0  0
    8.2506   -5.2684   25.5009 H   0  0  0  0  0  0  0  0  0  0  0  0
    9.9820   -5.5375   25.1832 H   0  0  0  0  0  0  0  0  0  0  0  0
    9.4843   -4.7055   26.6554 H   0  0  0  0  0  0  0  0  0  0  0  0
    9.5854    1.2495   24.6258 H   0  0  0  0  0  0  0  0  0  0  0  0
    9.3886    2.2282   23.1920 H   0  0  0  0  0  0  0  0  0  0  0  0
    8.0686    0.4964   23.2745 H   0  0  0  0  0  0  0  0  0  0  0  0
    8.2392   -1.5641   21.0954 H   0  0  0  0  0  0  0  0  0  0  0  0
  1  2  1  0  0  0  0
  1  3  2  0  0  0  0
  2  4  2  0  0  0  0
  3  5  1  0  0  0  0
  4 11  1  0  0  0  0
  5 11  2  0  0  0  0
  6  8  2  0  0  0  0
  6 10  1  0  0  0  0
  7  9  1  0  0  0  0
  7 10  2  0  0  0  0
  8 12  1  0  0  0  0
  9 12  2  0  0  0  0
 10 20  1  0  0  0  0
 11 21  1  0  0  0  0
 12 22  1  0  0  0  0
 13 14  2  0  0  0  0
 13 15  1  0  0  0  0
 13 25  1  0  0  0  0
 14 23  1  0  0  0  0
 14 26  1  0  0  0  0
 15 16  2  0  0  0  0
 16 17  1  0  0  0  0
 17 18  2  0  0  0  0
 18 25  1  0  0  0  0
 19 22  1  0  0  0  0
 19 26  1  0  0  0  0
 19 27  2  0  0  0  0
 21 22  1  1  0  0  0
 23 24  2  0  0  0  0
 24 25  1  0  0  0  0
  1 28  1  0  0  0  0
  2 29  1  0  0  0  0
  3 30  1  0  0  0  0
  4 31  1  0  0  0  0
  5 32  1  0  0  0  0
  6 33  1  0  0  0  0
  7 34  1  0  0  0  0
  8 35  1  0  0  0  0
  9 36  1  0  0  0  0
 15 37  1  0  0  0  0
 16 38  1  0  0  0  0
 17 39  1  0  0  0  0
 18 40  1  0  0  0  0
 20 41  1  0  0  0  0
 20 42  1  0  0  0  0
 20 43  1  0  0  0  0
 21 44  1  0  0  0  0
 21 45  1  0  0  0  0
 22 46  1  0  0  0  0
 26 47  1  0  0  0  0
M  END
> <clash_score>
0

> <docking_score>
-9.298919677734375

> <overlap_score>
0.9608622789382935

$$$$
BENZO_265_2
  -OEChem-08222022183D

 47 50  0     1  0  0  0  0  0999 V2000
   12.9427    3.5803   21.5528 C   0  0  0  0  0  0  0  0  0  0  0  0
   13.2971    2.5494   22.4231 C   0  0  0  0  0  0  0  0  0  0  0  0
   11.5975    3.8801   21.3380 C   0  0  0  0  0  0  0  0  0  0  0  0
   12.3064    1.8183   23.0784 C   0  0  0  0  0  0  0  0  0  0  0  0
   10.6067    3.1489   21.9933 C   0  0  0  0  0  0  0  0  0  0  0  0
    8.9960   -2.3380   25.5320 C   0  0  0  0  0  0  0  0  0  0  0  0
    9.6730   -3.4710   23.5300 C   0  0  0  0  0  0  0  0  0  0  0  0
    9.0720   -1.1280   24.8640 C   0  0  0  0  0  0  0  0  0  0  0  0
    9.7200   -2.2600   22.8630 C   0  0  0  0  0  0  0  0  0  0  0  0
    9.3070   -3.5340   24.8780 C   0  0  0  0  0  0  0  0  0  0  0  0
   10.9611    2.1180   22.8635 C   0  0  0  0  0  0  0  0  0  0  0  0
    9.3350   -1.0880   23.5010 C   0  0  0  0  0  0  0  0  0  0  0  0
    6.1790    0.5730   19.9990 C   0  0  0  0  0  0  0  0  0  0  0  0
    7.3170   -0.1610   19.8550 C   0  0  0  0  0  0  0  0  0  0  0  0
    5.4210    0.9600   21.0930 C   0  0  0  0  0  0  0  0  0  0  0  0
    4.2750    1.7050   20.8490 C   0  0  0  0  0  0  0  0  0  0  0  0
    3.9160    2.0630   19.5520 C   0  0  0  0  0  0  0  0  0  0  0  0
    4.6890    1.6810   18.4640 C   0  0  0  0  0  0  0  0  0  0  0  0
    9.0420    0.3700   21.5280 C   0  0  0  0  0  0  0  0  0  0  0  0
    9.2507   -4.8268   25.5895 C   0  0  0  0  0  0  0  0  0  0  0  0
    9.8870    1.3260   23.5730 C   0  0  0  0  0  0  0  0  0  0  0  0
    9.4560    0.1560   22.8130 C   0  0  2  0  0  0  0  0  0  0  0  0
    7.6390   -0.2680   18.5410 N   0  0  0  0  0  0  0  0  0  0  0  0
    6.7580    0.3810   17.8350 N   0  0  0  0  0  0  0  0  0  0  0  0
    5.8300    0.9190   18.6970 N   0  0  0  0  0  0  0  0  0  0  0  0
    8.1890   -0.7180   20.8700 N   0  0  0  0  0  0  0  0  0  0  0  0
    9.2690    1.4140   20.9380 O   0  0  0  0  0  0  0  0  0  0  0  0
   13.7143    4.1504   21.0437 H   0  0  0  0  0  0  0  0  0  0  0  0
   14.3446    2.3166   22.5913 H   0  0  0  0  0  0  0  0  0  0  0  0
   11.3212    4.6833   20.6614 H   0  0  0  0  0  0  0  0  0  0  0  0
   12.5919    1.0167   23.7545 H   0  0  0  0  0  0  0  0  0  0  0  0
    9.5611    3.3895   21.8196 H   0  0  0  0  0  0  0  0  0  0  0  0
    8.6904   -2.3557   26.5808 H   0  0  0  0  0  0  0  0  0  0  0  0
    9.9249   -4.3911   22.9935 H   0  0  0  0  0  0  0  0  0  0  0  0
    8.9209   -0.1987   25.4207 H   0  0  0  0  0  0  0  0  0  0  0  0
   10.0640   -2.2315   21.8255 H   0  0  0  0  0  0  0  0  0  0  0  0
    5.6855    0.7074   22.1002 H   0  0  0  0  0  0  0  0  0  0  0  0
    3.6634    2.0034   21.6926 H   0  0  0  0  0  0  0  0  0  0  0  0
    3.0111    2.6563   19.3629 H   0  0  0  0  0  0  0  0  0  0  0  0
    4.4370    1.9522   17.4626 H   0  0  0  0  0  0  0  0  0  0  0  0
    8.2506   -5.2684   25.5009 H   0  0  0  0  0  0  0  0  0  0  0  0
    9.9820   -5.5375   25.1832 H   0  0  0  0  0  0  0  0  0  0  0  0
    9.4843   -4.7055   26.6554 H   0  0  0  0  0  0  0  0  0  0  0  0
   10.2455    1.0419   24.5710 H   0  0  0  0  0  0  0  0  0  0  0  0
    9.0345    1.9965   23.7496 H   0  0  0  0  0  0  0  0  0  0  0  0
   10.7927   -0.1029   22.4279 H   0  0  0  0  0  0  0  0  0  0  0  0
    8.2392   -1.5641   21.0954 H   0  0  0  0  0  0  0  0  0  0  0  0
  1  2  1  0  0  0  0
  1  3  2  0  0  0  0
  2  4  2  0  0  0  0
  3  5  1  0  0  0  0
  4 11  1  0  0  0  0
  5 11  2  0  0  0  0
  6  8  2  0  0  0  0
  6 10  1  0  0  0  0
  7  9  1  0  0  0  0
  7 10  2  0  0  0  0
  8 12  1  0  0  0  0
  9 12  2  0  0  0  0
 10 20  1  0  0  0  0
 11 21  1  0  0  0  0
 12 22  1  0  0  0  0
 13 14  2  0  0  0  0
 13 15  1  0  0  0  0
 13 25  1  0  0  0  0
 14 23  1  0  0  0  0
 14 26  1  0  0  0  0
 15 16  2  0  0  0  0
 16 17  1  0  0  0  0
 17 18  2  0  0  0  0
 18 25  1  0  0  0  0
 19 22  1  0  0  0  0
 19 26  1  0  0  0  0
 19 27  2  0  0  0  0
 21 22  1  6  0  0  0
 23 24  2  0  0  0  0
 24 25  1  0  0  0  0
  1 28  1  0  0  0  0
  2 29  1  0  0  0  0
  3 30  1  0  0  0  0
  4 31  1  0  0  0  0
  5 32  1  0  0  0  0
  6 33  1  0  0  0  0
  7 34  1  0  0  0  0
  8 35  1  0  0  0  0
  9 36  1  0  0  0  0
 15 37  1  0  0  0  0
 16 38  1  0  0  0  0
 17 39  1  0  0  0  0
 18 40  1  0  0  0  0
 20 41  1  0  0  0  0
 20 42  1  0  0  0  0
 20 43  1  0  0  0  0
 21 44  1  0  0  0  0
 21 45  1  0  0  0  0
 22 46  1  0  0  0  0
 26 47  1  0  0  0  0
M  END
> <clash_score>
0.6163882399364046

> <docking_score>
-9.219123840332031

> <overlap_score>
0.9163943529129028

$$$$
BENZO_262_1
  -OEChem-08222022183D

 59 63  0     1  0  0  0  0  0999 V2000
   13.2943    2.5807   22.4505 C   0  0  0  0  0  0  0  0  0  0  0  0
   12.3047    1.8379   23.0944 C   0  0  0  0  0  0  0  0  0  0  0  0
    9.0720   -1.1280   24.8640 C   0  0  0  0  0  0  0  0  0  0  0  0
    9.7200   -2.2600   22.8630 C   0  0  0  0  0  0  0  0  0  0  0  0
    8.9960   -2.3380   25.5320 C   0  0  0  0  0  0  0  0  0  0  0  0
    9.6730   -3.4710   23.5300 C   0  0  0  0  0  0  0  0  0  0  0  0
   12.9381    3.6176   21.5882 C   0  0  0  0  0  0  0  0  0  0  0  0
   10.6025    3.1690   22.0135 C   0  0  0  0  0  0  0  0  0  0  0  0
    9.3350   -1.0880   23.5010 C   0  0  0  0  0  0  0  0  0  0  0  0
   10.9588    2.1321   22.8759 C   0  0  0  0  0  0  0  0  0  0  0  0
    9.3070   -3.5340   24.8780 C   0  0  0  0  0  0  0  0  0  0  0  0
   11.5922    3.9117   21.3697 C   0  0  0  0  0  0  0  0  0  0  0  0
    6.1790    0.5730   19.9990 C   0  0  0  0  0  0  0  0  0  0  0  0
    7.3170   -0.1610   19.8550 C   0  0  0  0  0  0  0  0  0  0  0  0
    5.4210    0.9600   21.0930 C   0  0  0  0  0  0  0  0  0  0  0  0
    4.2750    1.7050   20.8490 C   0  0  0  0  0  0  0  0  0  0  0  0
    3.9160    2.0630   19.5520 C   0  0  0  0  0  0  0  0  0  0  0  0
    4.6890    1.6810   18.4640 C   0  0  0  0  0  0  0  0  0  0  0  0
    9.0420    0.3700   21.5280 C   0  0  0  0  0  0  0  0  0  0  0  0
    7.3637   -6.1365   27.1885 C   0  0  0  0  0  0  0  0  0  0  0  0
    8.1962   -4.9739   27.7340 C   0  0  0  0  0  0  0  0  0  0  0  0
    7.1943   -6.0395   25.6706 C   0  0  0  0  0  0  0  0  0  0  0  0
    9.5197   -4.8493   26.9795 C   0  0  0  0  0  0  0  0  0  0  0  0
    8.5443   -5.8838   24.9636 C   0  0  0  0  0  0  0  0  0  0  0  0
    9.8870    1.3260   23.5730 C   0  0  0  0  0  0  0  0  0  0  0  0
    9.4560    0.1560   22.8130 C   0  0  1  0  0  0  0  0  0  0  0  0
    7.6390   -0.2680   18.5410 N   0  0  0  0  0  0  0  0  0  0  0  0
    6.7580    0.3810   17.8350 N   0  0  0  0  0  0  0  0  0  0  0  0
    5.8300    0.9190   18.6970 N   0  0  0  0  0  0  0  0  0  0  0  0
    9.2563   -4.7385   25.5420 N   0  0  0  0  0  0  0  0  0  0  0  0
    8.1890   -0.7180   20.8700 N   0  0  0  0  0  0  0  0  0  0  0  0
    9.2690    1.4140   20.9380 O   0  0  0  0  0  0  0  0  0  0  0  0
   11.1532    5.1904   20.3048 Cl  0  0  0  0  0  0  0  0  0  0  0  0
   14.3422    2.3512   22.6208 H   0  0  0  0  0  0  0  0  0  0  0  0
   12.5914    1.0317   23.7645 H   0  0  0  0  0  0  0  0  0  0  0  0
    8.9214   -0.1986   25.4206 H   0  0  0  0  0  0  0  0  0  0  0  0
   10.0622   -2.2326   21.8251 H   0  0  0  0  0  0  0  0  0  0  0  0
    8.6882   -2.3542   26.5803 H   0  0  0  0  0  0  0  0  0  0  0  0
    9.9258   -4.3896   22.9914 H   0  0  0  0  0  0  0  0  0  0  0  0
   13.7201    4.1879   21.0929 H   0  0  0  0  0  0  0  0  0  0  0  0
    9.5518    3.3947   21.8469 H   0  0  0  0  0  0  0  0  0  0  0  0
    5.6855    0.7074   22.1002 H   0  0  0  0  0  0  0  0  0  0  0  0
    3.6634    2.0034   21.6926 H   0  0  0  0  0  0  0  0  0  0  0  0
    3.0111    2.6563   19.3629 H   0  0  0  0  0  0  0  0  0  0  0  0
    4.4370    1.9522   17.4626 H   0  0  0  0  0  0  0  0  0  0  0  0
    7.8484   -7.0905   27.4464 H   0  0  0  0  0  0  0  0  0  0  0  0
    6.3761   -6.1442   27.6721 H   0  0  0  0  0  0  0  0  0  0  0  0
    7.6308   -4.0428   27.6404 H   0  0  0  0  0  0  0  0  0  0  0  0
    8.3917   -5.1316   28.7967 H   0  0  0  0  0  0  0  0  0  0  0  0
    6.6889   -6.9376   25.3006 H   0  0  0  0  0  0  0  0  0  0  0  0
    6.5516   -5.1860   25.4256 H   0  0  0  0  0  0  0  0  0  0  0  0
   10.0494   -3.9643   27.3413 H   0  0  0  0  0  0  0  0  0  0  0  0
   10.1432   -5.7258   27.1775 H   0  0  0  0  0  0  0  0  0  0  0  0
    9.1338   -6.7931   25.0863 H   0  0  0  0  0  0  0  0  0  0  0  0
    8.3657   -5.7262   23.8995 H   0  0  0  0  0  0  0  0  0  0  0  0
   10.2417    1.0375   24.5711 H   0  0  0  0  0  0  0  0  0  0  0  0
    9.0279    1.9881   23.7492 H   0  0  0  0  0  0  0  0  0  0  0  0
   10.7949   -0.0994   22.4253 H   0  0  0  0  0  0  0  0  0  0  0  0
    8.2585   -1.5522   21.1129 H   0  0  0  0  0  0  0  0  0  0  0  0
  1  2  2  0  0  0  0
  1  7  1  0  0  0  0
  2 10  1  0  0  0  0
  3  5  2  0  0  0  0
  3  9  1  0  0  0  0
  4  6  1  0  0  0  0
  4  9  2  0  0  0  0
  5 11  1  0  0  0  0
  6 11  2  0  0  0  0
  7 12  2  0  0  0  0
  8 10  2  0  0  0  0
  8 12  1  0  0  0  0
  9 26  1  0  0  0  0
 10 25  1  0  0  0  0
 11 30  1  0  0  0  0
 12 33  1  0  0  0  0
 13 14  2  0  0  0  0
 13 15  1  0  0  0  0
 13 29  1  0  0  0  0
 14 27  1  0  0  0  0
 14 31  1  0  0  0  0
 15 16  2  0  0  0  0
 16 17  1  0  0  0  0
 17 18  2  0  0  0  0
 18 29  1  0  0  0  0
 19 26  1  1  0  0  0
 19 31  1  0  0  0  0
 19 32  2  0  0  0  0
 20 21  1  0  0  0  0
 20 22  1  0  0  0  0
 21 23  1  0  0  0  0
 22 24  1  0  0  0  0
 23 30  1  0  0  0  0
 24 30  1  0  0  0  0
 25 26  1  0  0  0  0
 27 28  2  0  0  0  0
 28 29  1  0  0  0  0
  1 34  1  0  0  0  0
  2 35  1  0  0  0  0
  3 36  1  0  0  0  0
  4 37  1  0  0  0  0
  5 38  1  0  0  0  0
  6 39  1  0  0  0  0
  7 40  1  0  0  0  0
  8 41  1  0  0  0  0
 15 42  1  0  0  0  0
 16 43  1  0  0  0  0
 17 44  1  0  0  0  0
 18 45  1  0  0  0  0
 20 46  1  0  0  0  0
 20 47  1  0  0  0  0
 21 48  1  0  0  0  0
 21 49  1  0  0  0  0
 22 50  1  0  0  0  0
 22 51  1  0  0  0  0
 23 52  1  0  0  0  0
 23 53  1  0  0  0  0
 24 54  1  0  0  0  0
 24 55  1  0  0  0  0
 25 56  1  0  0  0  0
 25 57  1  0  0  0  0
 26 58  1  0  0  0  0
 31 59  1  0  0  0  0
M  END
> <clash_score>
2.1999107557461057

> <docking_score>
-8.288541793823242

> <overlap_score>
0.9694707989692688

$$$$
BENZO_264_1
  -OEChem-08222022183D

 44 47  0     1  0  0  0  0  0999 V2000
    8.9960   -2.3380   25.5320 C   0  0  0  0  0  0  0  0  0  0  0  0
    9.6730   -3.4710   23.5300 C   0  0  0  0  0  0  0  0  0  0  0  0
    9.0720   -1.1280   24.8640 C   0  0  0  0  0  0  0  0  0  0  0  0
    9.7200   -2.2600   22.8630 C   0  0  0  0  0  0  0  0  0  0  0  0
   12.3398    0.5029   23.4216 C   0  0  0  0  0  0  0  0  0  0  0  0
   13.6291    0.9843   23.3622 C   0  0  0  0  0  0  0  0  0  0  0  0
   11.9713    2.7968   23.4917 C   0  0  0  0  0  0  0  0  0  0  0  0
    9.3070   -3.5340   24.8780 C   0  0  0  0  0  0  0  0  0  0  0  0
    9.3350   -1.0880   23.5010 C   0  0  0  0  0  0  0  0  0  0  0  0
   11.3794    1.5528   23.4964 C   0  0  0  0  0  0  0  0  0  0  0  0
    6.1790    0.5730   19.9990 C   0  0  0  0  0  0  0  0  0  0  0  0
    7.3170   -0.1610   19.8550 C   0  0  0  0  0  0  0  0  0  0  0  0
    5.4210    0.9600   21.0930 C   0  0  0  0  0  0  0  0  0  0  0  0
    4.2750    1.7050   20.8490 C   0  0  0  0  0  0  0  0  0  0  0  0
    3.9160    2.0630   19.5520 C   0  0  0  0  0  0  0  0  0  0  0  0
    4.6890    1.6810   18.4640 C   0  0  0  0  0  0  0  0  0  0  0  0
    9.0420    0.3700   21.5280 C   0  0  0  0  0  0  0  0  0  0  0  0
    9.2507   -4.8268   25.5895 C   0  0  0  0  0  0  0  0  0  0  0  0
    9.8870    1.3260   23.5730 C   0  0  0  0  0  0  0  0  0  0  0  0
    9.4560    0.1560   22.8130 C   0  0  1  0  0  0  0  0  0  0  0  0
    7.6390   -0.2680   18.5410 N   0  0  0  0  0  0  0  0  0  0  0  0
    6.7580    0.3810   17.8350 N   0  0  0  0  0  0  0  0  0  0  0  0
    5.8300    0.9190   18.6970 N   0  0  0  0  0  0  0  0  0  0  0  0
    8.1890   -0.7180   20.8700 N   0  0  0  0  0  0  0  0  0  0  0  0
    9.2690    1.4140   20.9380 O   0  0  0  0  0  0  0  0  0  0  0  0
   13.6781    2.6957   23.3969 S   0  0  0  0  0  0  0  0  0  0  0  0
    8.6904   -2.3557   26.5808 H   0  0  0  0  0  0  0  0  0  0  0  0
    9.9249   -4.3911   22.9935 H   0  0  0  0  0  0  0  0  0  0  0  0
    8.9209   -0.1987   25.4207 H   0  0  0  0  0  0  0  0  0  0  0  0
   10.0640   -2.2315   21.8255 H   0  0  0  0  0  0  0  0  0  0  0  0
   12.1014   -0.5532   23.4119 H   0  0  0  0  0  0  0  0  0  0  0  0
   14.5445    0.4131   23.3009 H   0  0  0  0  0  0  0  0  0  0  0  0
   11.4871    3.7623   23.5403 H   0  0  0  0  0  0  0  0  0  0  0  0
    5.6855    0.7074   22.1002 H   0  0  0  0  0  0  0  0  0  0  0  0
    3.6634    2.0034   21.6926 H   0  0  0  0  0  0  0  0  0  0  0  0
    3.0111    2.6563   19.3629 H   0  0  0  0  0  0  0  0  0  0  0  0
    4.4370    1.9522   17.4626 H   0  0  0  0  0  0  0  0  0  0  0  0
    8.2506   -5.2684   25.5009 H   0  0  0  0  0  0  0  0  0  0  0  0
    9.9820   -5.5375   25.1832 H   0  0  0  0  0  0  0  0  0  0  0  0
    9.4843   -4.7055   26.6554 H   0  0  0  0  0  0  0  0  0  0  0  0
    9.5854    1.2495   24.6258 H   0  0  0  0  0  0  0  0  0  0  0  0
    9.3886    2.2282   23.1920 H   0  0  0  0  0  0  0  0  0  0  0  0
    8.0686    0.4964   23.2745 H   0  0  0  0  0  0  0  0  0  0  0  0
    8.2392   -1.5641   21.0954 H   0  0  0  0  0  0  0  0  0  0  0  0
  1  3  2  0  0  0  0
  1  8  1  0  0  0  0
  2  4  1  0  0  0  0
  2  8  2  0  0  0  0
  3  9  1  0  0  0  0
  4  9  2  0  0  0  0
  5  6  2  0  0  0  0
  5 10  1  0  0  0  0
  6 26  1  0  0  0  0
  7 10  2  0  0  0  0
  7 26  1  0  0  0  0
  8 18  1  0  0  0  0
  9 20  1  0  0  0  0
 10 19  1  0  0  0  0
 11 12  2  0  0  0  0
 11 13  1  0  0  0  0
 11 23  1  0  0  0  0
 12 21  1  0  0  0  0
 12 24  1  0  0  0  0
 13 14  2  0  0  0  0
 14 15  1  0  0  0  0
 15 16  2  0  0  0  0
 16 23  1  0  0  0  0
 17 20  1  0  0  0  0
 17 24  1  0  0  0  0
 17 25  2  0  0  0  0
 19 20  1  1  0  0  0
 21 22  2  0  0  0  0
 22 23  1  0  0  0  0
  1 27  1  0  0  0  0
  2 28  1  0  0  0  0
  3 29  1  0  0  0  0
  4 30  1  0  0  0  0
  5 31  1  0  0  0  0
  6 32  1  0  0  0  0
  7 33  1  0  0  0  0
 13 34  1  0  0  0  0
 14 35  1  0  0  0  0
 15 36  1  0  0  0  0
 16 37  1  0  0  0  0
 18 38  1  0  0  0  0
 18 39  1  0  0  0  0
 18 40  1  0  0  0  0
 19 41  1  0  0  0  0
 19 42  1  0  0  0  0
 20 43  1  0  0  0  0
 24 44  1  0  0  0  0
M  END
> <clash_score>
0

> <docking_score>
-9.763093948364258

> <overlap_score>
0.9454269409179688

$$$$
BENZO_264_2
  -OEChem-08222022183D

 44 47  0     1  0  0  0  0  0999 V2000
    8.9960   -2.3380   25.5320 C   0  0  0  0  0  0  0  0  0  0  0  0
    9.6730   -3.4710   23.5300 C   0  0  0  0  0  0  0  0  0  0  0  0
    9.0720   -1.1280   24.8640 C   0  0  0  0  0  0  0  0  0  0  0  0
    9.7200   -2.2600   22.8630 C   0  0  0  0  0  0  0  0  0  0  0  0
   12.3907    0.6679   23.6950 C   0  0  0  0  0  0  0  0  0  0  0  0
   13.4189    0.5308   24.6014 C   0  0  0  0  0  0  0  0  0  0  0  0
   11.3314    1.2632   25.6763 C   0  0  0  0  0  0  0  0  0  0  0  0
    9.3070   -3.5340   24.8780 C   0  0  0  0  0  0  0  0  0  0  0  0
    9.3350   -1.0880   23.5010 C   0  0  0  0  0  0  0  0  0  0  0  0
   11.1814    1.0923   24.3176 C   0  0  0  0  0  0  0  0  0  0  0  0
    6.1790    0.5730   19.9990 C   0  0  0  0  0  0  0  0  0  0  0  0
    7.3170   -0.1610   19.8550 C   0  0  0  0  0  0  0  0  0  0  0  0
    5.4210    0.9600   21.0930 C   0  0  0  0  0  0  0  0  0  0  0  0
    4.2750    1.7050   20.8490 C   0  0  0  0  0  0  0  0  0  0  0  0
    3.9160    2.0630   19.5520 C   0  0  0  0  0  0  0  0  0  0  0  0
    4.6890    1.6810   18.4640 C   0  0  0  0  0  0  0  0  0  0  0  0
    9.0420    0.3700   21.5280 C   0  0  0  0  0  0  0  0  0  0  0  0
    9.2507   -4.8268   25.5895 C   0  0  0  0  0  0  0  0  0  0  0  0
    9.8870    1.3260   23.5730 C   0  0  0  0  0  0  0  0  0  0  0  0
    9.4560    0.1560   22.8130 C   0  0  2  0  0  0  0  0  0  0  0  0
    7.6390   -0.2680   18.5410 N   0  0  0  0  0  0  0  0  0  0  0  0
    6.7580    0.3810   17.8350 N   0  0  0  0  0  0  0  0  0  0  0  0
    5.8300    0.9190   18.6970 N   0  0  0  0  0  0  0  0  0  0  0  0
    8.1890   -0.7180   20.8700 N   0  0  0  0  0  0  0  0  0  0  0  0
    9.2690    1.4140   20.9380 O   0  0  0  0  0  0  0  0  0  0  0  0
   12.9250    0.9128   26.1959 S   0  0  0  0  0  0  0  0  0  0  0  0
    8.6904   -2.3557   26.5808 H   0  0  0  0  0  0  0  0  0  0  0  0
    9.9249   -4.3911   22.9935 H   0  0  0  0  0  0  0  0  0  0  0  0
    8.9209   -0.1987   25.4207 H   0  0  0  0  0  0  0  0  0  0  0  0
   10.0640   -2.2315   21.8255 H   0  0  0  0  0  0  0  0  0  0  0  0
   12.5049    0.4716   22.6364 H   0  0  0  0  0  0  0  0  0  0  0  0
   14.4362    0.2239   24.4037 H   0  0  0  0  0  0  0  0  0  0  0  0
   10.5839    1.5757   26.3924 H   0  0  0  0  0  0  0  0  0  0  0  0
    5.6855    0.7074   22.1002 H   0  0  0  0  0  0  0  0  0  0  0  0
    3.6634    2.0034   21.6926 H   0  0  0  0  0  0  0  0  0  0  0  0
    3.0111    2.6563   19.3629 H   0  0  0  0  0  0  0  0  0  0  0  0
    4.4370    1.9522   17.4626 H   0  0  0  0  0  0  0  0  0  0  0  0
    8.2506   -5.2684   25.5009 H   0  0  0  0  0  0  0  0  0  0  0  0
    9.9820   -5.5375   25.1832 H   0  0  0  0  0  0  0  0  0  0  0  0
    9.4843   -4.7055   26.6554 H   0  0  0  0  0  0  0  0  0  0  0  0
    9.1131    1.6463   24.2828 H   0  0  0  0  0  0  0  0  0  0  0  0
   10.0354    2.1807   22.8984 H   0  0  0  0  0  0  0  0  0  0  0  0
   10.7927   -0.1029   22.4279 H   0  0  0  0  0  0  0  0  0  0  0  0
    8.2392   -1.5641   21.0954 H   0  0  0  0  0  0  0  0  0  0  0  0
  1  3  2  0  0  0  0
  1  8  1  0  0  0  0
  2  4  1  0  0  0  0
  2  8  2  0  0  0  0
  3  9  1  0  0  0  0
  4  9  2  0  0  0  0
  5  6  2  0  0  0  0
  5 10  1  0  0  0  0
  6 26  1  0  0  0  0
  7 10  2  0  0  0  0
  7 26  1  0  0  0  0
  8 18  1  0  0  0  0
  9 20  1  0  0  0  0
 10 19  1  0  0  0  0
 11 12  2  0  0  0  0
 11 13  1  0  0  0  0
 11 23  1  0  0  0  0
 12 21  1  0  0  0  0
 12 24  1  0  0  0  0
 13 14  2  0  0  0  0
 14 15  1  0  0  0  0
 15 16  2  0  0  0  0
 16 23  1  0  0  0  0
 17 20  1  0  0  0  0
 17 24  1  0  0  0  0
 17 25  2  0  0  0  0
 19 20  1  6  0  0  0
 21 22  2  0  0  0  0
 22 23  1  0  0  0  0
  1 27  1  0  0  0  0
  2 28  1  0  0  0  0
  3 29  1  0  0  0  0
  4 30  1  0  0  0  0
  5 31  1  0  0  0  0
  6 32  1  0  0  0  0
  7 33  1  0  0  0  0
 13 34  1  0  0  0  0
 14 35  1  0  0  0  0
 15 36  1  0  0  0  0
 16 37  1  0  0  0  0
 18 38  1  0  0  0  0
 18 39  1  0  0  0  0
 18 40  1  0  0  0  0
 19 41  1  0  0  0  0
 19 42  1  0  0  0  0
 20 43  1  0  0  0  0
 24 44  1  0  0  0  0
M  END
> <clash_score>
0.6216867689726071

> <docking_score>
-7.648956298828125

> <overlap_score>
0.8681578636169434

$$$$
BENZO_263_2
  -OEChem-08222022183D

 59 63  0     1  0  0  0  0  0999 V2000
    9.0720   -1.1280   24.8640 C   0  0  0  0  0  0  0  0  0  0  0  0
    9.7200   -2.2600   22.8630 C   0  0  0  0  0  0  0  0  0  0  0  0
    8.9960   -2.3380   25.5320 C   0  0  0  0  0  0  0  0  0  0  0  0
    9.6730   -3.4710   23.5300 C   0  0  0  0  0  0  0  0  0  0  0  0
   12.3549    1.9792   22.9728 C   0  0  0  0  0  0  0  0  0  0  0  0
   10.7877    3.1780   22.0023 C   0  0  0  0  0  0  0  0  0  0  0  0
    9.3350   -1.0880   23.5010 C   0  0  0  0  0  0  0  0  0  0  0  0
   10.9588    2.1321   22.8759 C   0  0  0  0  0  0  0  0  0  0  0  0
    9.3070   -3.5340   24.8780 C   0  0  0  0  0  0  0  0  0  0  0  0
    6.1790    0.5730   19.9990 C   0  0  0  0  0  0  0  0  0  0  0  0
    7.3170   -0.1610   19.8550 C   0  0  0  0  0  0  0  0  0  0  0  0
    5.4210    0.9600   21.0930 C   0  0  0  0  0  0  0  0  0  0  0  0
    4.2750    1.7050   20.8490 C   0  0  0  0  0  0  0  0  0  0  0  0
    3.9160    2.0630   19.5520 C   0  0  0  0  0  0  0  0  0  0  0  0
    4.6890    1.6810   18.4640 C   0  0  0  0  0  0  0  0  0  0  0  0
    9.0420    0.3700   21.5280 C   0  0  0  0  0  0  0  0  0  0  0  0
    7.3637   -6.1365   27.1885 C   0  0  0  0  0  0  0  0  0  0  0  0
    8.1962   -4.9739   27.7340 C   0  0  0  0  0  0  0  0  0  0  0  0
    7.1943   -6.0395   25.6706 C   0  0  0  0  0  0  0  0  0  0  0  0
    9.5197   -4.8493   26.9795 C   0  0  0  0  0  0  0  0  0  0  0  0
    8.5443   -5.8838   24.9636 C   0  0  0  0  0  0  0  0  0  0  0  0
   12.3765    4.6444   20.7357 C   0  0  0  0  0  0  0  0  0  0  0  0
    9.8870    1.3260   23.5730 C   0  0  0  0  0  0  0  0  0  0  0  0
    9.4560    0.1560   22.8130 C   0  0  2  0  0  0  0  0  0  0  0  0
   13.0232    2.8576   22.2206 N   0  0  0  0  0  0  0  0  0  0  0  0
    7.6390   -0.2680   18.5410 N   0  0  0  0  0  0  0  0  0  0  0  0
    6.7580    0.3810   17.8350 N   0  0  0  0  0  0  0  0  0  0  0  0
   12.0428    3.5725   21.6427 N   0  0  0  0  0  0  0  0  0  0  0  0
    5.8300    0.9190   18.6970 N   0  0  0  0  0  0  0  0  0  0  0  0
    9.2563   -4.7385   25.5420 N   0  0  0  0  0  0  0  0  0  0  0  0
    8.1890   -0.7180   20.8700 N   0  0  0  0  0  0  0  0  0  0  0  0
    9.2690    1.4140   20.9380 O   0  0  0  0  0  0  0  0  0  0  0  0
    8.9214   -0.1986   25.4206 H   0  0  0  0  0  0  0  0  0  0  0  0
   10.0622   -2.2326   21.8251 H   0  0  0  0  0  0  0  0  0  0  0  0
    8.6882   -2.3542   26.5803 H   0  0  0  0  0  0  0  0  0  0  0  0
    9.9258   -4.3896   22.9914 H   0  0  0  0  0  0  0  0  0  0  0  0
   12.9154    1.2645   23.5587 H   0  0  0  0  0  0  0  0  0  0  0  0
    9.9018    3.6623   21.6145 H   0  0  0  0  0  0  0  0  0  0  0  0
    5.6855    0.7074   22.1002 H   0  0  0  0  0  0  0  0  0  0  0  0
    3.6634    2.0034   21.6926 H   0  0  0  0  0  0  0  0  0  0  0  0
    3.0111    2.6563   19.3629 H   0  0  0  0  0  0  0  0  0  0  0  0
    4.4370    1.9522   17.4626 H   0  0  0  0  0  0  0  0  0  0  0  0
    7.8484   -7.0905   27.4464 H   0  0  0  0  0  0  0  0  0  0  0  0
    6.3761   -6.1442   27.6721 H   0  0  0  0  0  0  0  0  0  0  0  0
    7.6308   -4.0428   27.6404 H   0  0  0  0  0  0  0  0  0  0  0  0
    8.3917   -5.1316   28.7967 H   0  0  0  0  0  0  0  0  0  0  0  0
    6.6889   -6.9376   25.3006 H   0  0  0  0  0  0  0  0  0  0  0  0
    6.5516   -5.1860   25.4256 H   0  0  0  0  0  0  0  0  0  0  0  0
   10.0494   -3.9643   27.3413 H   0  0  0  0  0  0  0  0  0  0  0  0
   10.1432   -5.7258   27.1775 H   0  0  0  0  0  0  0  0  0  0  0  0
    9.1338   -6.7931   25.0863 H   0  0  0  0  0  0  0  0  0  0  0  0
    8.3657   -5.7262   23.8995 H   0  0  0  0  0  0  0  0  0  0  0  0
   12.4726    5.5632   21.3202 H   0  0  0  0  0  0  0  0  0  0  0  0
   13.3178    4.4131   20.2294 H   0  0  0  0  0  0  0  0  0  0  0  0
   11.5839    4.7460   19.9892 H   0  0  0  0  0  0  0  0  0  0  0  0
   10.2417    1.0375   24.5711 H   0  0  0  0  0  0  0  0  0  0  0  0
    9.0279    1.9881   23.7492 H   0  0  0  0  0  0  0  0  0  0  0  0
   10.7949   -0.0994   22.4253 H   0  0  0  0  0  0  0  0  0  0  0  0
    8.2585   -1.5522   21.1129 H   0  0  0  0  0  0  0  0  0  0  0  0
  1  3  2  0  0  0  0
  1  7  1  0  0  0  0
  2  4  1  0  0  0  0
  2  7  2  0  0  0  0
  3  9  1  0  0  0  0
  4  9  2  0  0  0  0
  5  8  1  0  0  0  0
  5 25  2  0  0  0  0
  6  8  2  0  0  0  0
  6 28  1  0  0  0  0
  7 24  1  0  0  0  0
  8 23  1  0  0  0  0
  9 30  1  0  0  0  0
 10 11  2  0  0  0  0
 10 12  1  0  0  0  0
 10 29  1  0  0  0  0
 11 26  1  0  0  0  0
 11 31  1  0  0  0  0
 12 13  2  0  0  0  0
 13 14  1  0  0  0  0
 14 15  2  0  0  0  0
 15 29  1  0  0  0  0
 16 24  1  0  0  0  0
 16 31  1  0  0  0  0
 16 32  2  0  0  0  0
 17 18  1  0  0  0  0
 17 19  1  0  0  0  0
 18 20  1  0  0  0  0
 19 21  1  0  0  0  0
 20 30  1  0  0  0  0
 21 30  1  0  0  0  0
 22 28  1  0  0  0  0
 23 24  1  6  0  0  0
 25 28  1  0  0  0  0
 26 27  2  0  0  0  0
 27 29  1  0  0  0  0
  1 33  1  0  0  0  0
  2 34  1  0  0  0  0
  3 35  1  0  0  0  0
  4 36  1  0  0  0  0
  5 37  1  0  0  0  0
  6 38  1  0  0  0  0
 12 39  1  0  0  0  0
 13 40  1  0  0  0  0
 14 41  1  0  0  0  0
 15 42  1  0  0  0  0
 17 43  1  0  0  0  0
 17 44  1  0  0  0  0
 18 45  1  0  0  0  0
 18 46  1  0  0  0  0
 19 47  1  0  0  0  0
 19 48  1  0  0  0  0
 20 49  1  0  0  0  0
 20 50  1  0  0  0  0
 21 51  1  0  0  0  0
 21 52  1  0  0  0  0
 22 53  1  0  0  0  0
 22 54  1  0  0  0  0
 22 55  1  0  0  0  0
 23 56  1  0  0  0  0
 23 57  1  0  0  0  0
 24 58  1  0  0  0  0
 31 59  1  0  0  0  0
M  END
> <clash_score>
0

> <docking_score>
-7.761958122253418

> <overlap_score>
0.9639798402786255

$$$$
BENZO_262_2
  -OEChem-08222022183D

 59 63  0     1  0  0  0  0  0999 V2000
   13.6270    0.7091   23.2981 C   0  0  0  0  0  0  0  0  0  0  0  0
   12.2510    0.4886   23.3574 C   0  0  0  0  0  0  0  0  0  0  0  0
    9.0720   -1.1280   24.8640 C   0  0  0  0  0  0  0  0  0  0  0  0
    9.7200   -2.2600   22.8630 C   0  0  0  0  0  0  0  0  0  0  0  0
    8.9960   -2.3380   25.5320 C   0  0  0  0  0  0  0  0  0  0  0  0
    9.6730   -3.4710   23.5300 C   0  0  0  0  0  0  0  0  0  0  0  0
   14.1301    2.0068   23.3918 C   0  0  0  0  0  0  0  0  0  0  0  0
   11.8810    2.8633   23.6037 C   0  0  0  0  0  0  0  0  0  0  0  0
    9.3350   -1.0880   23.5010 C   0  0  0  0  0  0  0  0  0  0  0  0
   11.3780    1.5657   23.5101 C   0  0  0  0  0  0  0  0  0  0  0  0
    9.3070   -3.5340   24.8780 C   0  0  0  0  0  0  0  0  0  0  0  0
   13.2570    3.0839   23.5445 C   0  0  0  0  0  0  0  0  0  0  0  0
    6.1790    0.5730   19.9990 C   0  0  0  0  0  0  0  0  0  0  0  0
    7.3170   -0.1610   19.8550 C   0  0  0  0  0  0  0  0  0  0  0  0
    5.4210    0.9600   21.0930 C   0  0  0  0  0  0  0  0  0  0  0  0
    4.2750    1.7050   20.8490 C   0  0  0  0  0  0  0  0  0  0  0  0
    3.9160    2.0630   19.5520 C   0  0  0  0  0  0  0  0  0  0  0  0
    4.6890    1.6810   18.4640 C   0  0  0  0  0  0  0  0  0  0  0  0
    9.0420    0.3700   21.5280 C   0  0  0  0  0  0  0  0  0  0  0  0
    7.3637   -6.1365   27.1885 C   0  0  0  0  0  0  0  0  0  0  0  0
    8.1962   -4.9739   27.7340 C   0  0  0  0  0  0  0  0  0  0  0  0
    7.1943   -6.0395   25.6706 C   0  0  0  0  0  0  0  0  0  0  0  0
    9.5197   -4.8493   26.9795 C   0  0  0  0  0  0  0  0  0  0  0  0
    8.5443   -5.8838   24.9636 C   0  0  0  0  0  0  0  0  0  0  0  0
    9.8870    1.3260   23.5730 C   0  0  0  0  0  0  0  0  0  0  0  0
    9.4560    0.1560   22.8130 C   0  0  2  0  0  0  0  0  0  0  0  0
    7.6390   -0.2680   18.5410 N   0  0  0  0  0  0  0  0  0  0  0  0
    6.7580    0.3810   17.8350 N   0  0  0  0  0  0  0  0  0  0  0  0
    5.8300    0.9190   18.6970 N   0  0  0  0  0  0  0  0  0  0  0  0
    9.2563   -4.7385   25.5420 N   0  0  0  0  0  0  0  0  0  0  0  0
    8.1890   -0.7180   20.8700 N   0  0  0  0  0  0  0  0  0  0  0  0
    9.2690    1.4140   20.9380 O   0  0  0  0  0  0  0  0  0  0  0  0
   13.8782    4.6848   23.6588 Cl  0  0  0  0  0  0  0  0  0  0  0  0
   14.3065   -0.1299   23.1790 H   0  0  0  0  0  0  0  0  0  0  0  0
   11.8679   -0.5259   23.2835 H   0  0  0  0  0  0  0  0  0  0  0  0
    8.9214   -0.1986   25.4206 H   0  0  0  0  0  0  0  0  0  0  0  0
   10.0622   -2.2326   21.8251 H   0  0  0  0  0  0  0  0  0  0  0  0
    8.6882   -2.3542   26.5803 H   0  0  0  0  0  0  0  0  0  0  0  0
    9.9258   -4.3896   22.9914 H   0  0  0  0  0  0  0  0  0  0  0  0
   15.2048    2.1638   23.3438 H   0  0  0  0  0  0  0  0  0  0  0  0
   11.1962    3.6997   23.7233 H   0  0  0  0  0  0  0  0  0  0  0  0
    5.6855    0.7074   22.1002 H   0  0  0  0  0  0  0  0  0  0  0  0
    3.6634    2.0034   21.6926 H   0  0  0  0  0  0  0  0  0  0  0  0
    3.0111    2.6563   19.3629 H   0  0  0  0  0  0  0  0  0  0  0  0
    4.4370    1.9522   17.4626 H   0  0  0  0  0  0  0  0  0  0  0  0
    7.8484   -7.0905   27.4464 H   0  0  0  0  0  0  0  0  0  0  0  0
    6.3761   -6.1442   27.6721 H   0  0  0  0  0  0  0  0  0  0  0  0
    7.6308   -4.0428   27.6404 H   0  0  0  0  0  0  0  0  0  0  0  0
    8.3917   -5.1316   28.7967 H   0  0  0  0  0  0  0  0  0  0  0  0
    6.6889   -6.9376   25.3006 H   0  0  0  0  0  0  0  0  0  0  0  0
    6.5516   -5.1860   25.4256 H   0  0  0  0  0  0  0  0  0  0  0  0
   10.0494   -3.9643   27.3413 H   0  0  0  0  0  0  0  0  0  0  0  0
   10.1432   -5.7258   27.1775 H   0  0  0  0  0  0  0  0  0  0  0  0
    9.1338   -6.7931   25.0863 H   0  0  0  0  0  0  0  0  0  0  0  0
    8.3657   -5.7262   23.8995 H   0  0  0  0  0  0  0  0  0  0  0  0
    9.5760    1.2490   24.6231 H   0  0  0  0  0  0  0  0  0  0  0  0
    9.3844    2.2230   23.1853 H   0  0  0  0  0  0  0  0  0  0  0  0
    8.0674    0.5009   23.2732 H   0  0  0  0  0  0  0  0  0  0  0  0
    8.2585   -1.5522   21.1129 H   0  0  0  0  0  0  0  0  0  0  0  0
  1  2  2  0  0  0  0
  1  7  1  0  0  0  0
  2 10  1  0  0  0  0
  3  5  2  0  0  0  0
  3  9  1  0  0  0  0
  4  6  1  0  0  0  0
  4  9  2  0  0  0  0
  5 11  1  0  0  0  0
  6 11  2  0  0  0  0
  7 12  2  0  0  0  0
  8 10  2  0  0  0  0
  8 12  1  0  0  0  0
  9 26  1  0  0  0  0
 10 25  1  0  0  0  0
 11 30  1  0  0  0  0
 12 33  1  0  0  0  0
 13 14  2  0  0  0  0
 13 15  1  0  0  0  0
 13 29  1  0  0  0  0
 14 27  1  0  0  0  0
 14 31  1  0  0  0  0
 15 16  2  0  0  0  0
 16 17  1  0  0  0  0
 17 18  2  0  0  0  0
 18 29  1  0  0  0  0
 19 26  1  6  0  0  0
 19 31  1  0  0  0  0
 19 32  2  0  0  0  0
 20 21  1  0  0  0  0
 20 22  1  0  0  0  0
 21 23  1  0  0  0  0
 22 24  1  0  0  0  0
 23 30  1  0  0  0  0
 24 30  1  0  0  0  0
 25 26  1  0  0  0  0
 27 28  2  0  0  0  0
 28 29  1  0  0  0  0
  1 34  1  0  0  0  0
  2 35  1  0  0  0  0
  3 36  1  0  0  0  0
  4 37  1  0  0  0  0
  5 38  1  0  0  0  0
  6 39  1  0  0  0  0
  7 40  1  0  0  0  0
  8 41  1  0  0  0  0
 15 42  1  0  0  0  0
 16 43  1  0  0  0  0
 17 44  1  0  0  0  0
 18 45  1  0  0  0  0
 20 46  1  0  0  0  0
 20 47  1  0  0  0  0
 21 48  1  0  0  0  0
 21 49  1  0  0  0  0
 22 50  1  0  0  0  0
 22 51  1  0  0  0  0
 23 52  1  0  0  0  0
 23 53  1  0  0  0  0
 24 54  1  0  0  0  0
 24 55  1  0  0  0  0
 25 56  1  0  0  0  0
 25 57  1  0  0  0  0
 26 58  1  0  0  0  0
 31 59  1  0  0  0  0
M  END
> <clash_score>
0

> <docking_score>
-8.707826614379883

> <overlap_score>
1.0154396295547485

$$$$
BENZO_263_1
  -OEChem-08222022183D

 59 63  0     1  0  0  0  0  0999 V2000
    9.0720   -1.1280   24.8640 C   0  0  0  0  0  0  0  0  0  0  0  0
    9.7200   -2.2600   22.8630 C   0  0  0  0  0  0  0  0  0  0  0  0
    8.9960   -2.3380   25.5320 C   0  0  0  0  0  0  0  0  0  0  0  0
    9.6730   -3.4710   23.5300 C   0  0  0  0  0  0  0  0  0  0  0  0
   12.0594    2.7949   23.5898 C   0  0  0  0  0  0  0  0  0  0  0  0
   12.3731    0.6302   23.3648 C   0  0  0  0  0  0  0  0  0  0  0  0
    9.3350   -1.0880   23.5010 C   0  0  0  0  0  0  0  0  0  0  0  0
   11.3780    1.5657   23.5101 C   0  0  0  0  0  0  0  0  0  0  0  0
    9.3070   -3.5340   24.8780 C   0  0  0  0  0  0  0  0  0  0  0  0
    6.1790    0.5730   19.9990 C   0  0  0  0  0  0  0  0  0  0  0  0
    7.3170   -0.1610   19.8550 C   0  0  0  0  0  0  0  0  0  0  0  0
    5.4210    0.9600   21.0930 C   0  0  0  0  0  0  0  0  0  0  0  0
    4.2750    1.7050   20.8490 C   0  0  0  0  0  0  0  0  0  0  0  0
    3.9160    2.0630   19.5520 C   0  0  0  0  0  0  0  0  0  0  0  0
    4.6890    1.6810   18.4640 C   0  0  0  0  0  0  0  0  0  0  0  0
    9.0420    0.3700   21.5280 C   0  0  0  0  0  0  0  0  0  0  0  0
    7.3637   -6.1365   27.1885 C   0  0  0  0  0  0  0  0  0  0  0  0
    8.1962   -4.9739   27.7340 C   0  0  0  0  0  0  0  0  0  0  0  0
    7.1943   -6.0395   25.6706 C   0  0  0  0  0  0  0  0  0  0  0  0
    9.5197   -4.8493   26.9795 C   0  0  0  0  0  0  0  0  0  0  0  0
    8.5443   -5.8838   24.9636 C   0  0  0  0  0  0  0  0  0  0  0  0
   14.8715    0.7757   23.2396 C   0  0  0  0  0  0  0  0  0  0  0  0
    9.8870    1.3260   23.5730 C   0  0  0  0  0  0  0  0  0  0  0  0
    9.4560    0.1560   22.8130 C   0  0  1  0  0  0  0  0  0  0  0  0
   13.3850    2.6563   23.5026 N   0  0  0  0  0  0  0  0  0  0  0  0
    7.6390   -0.2680   18.5410 N   0  0  0  0  0  0  0  0  0  0  0  0
    6.7580    0.3810   17.8350 N   0  0  0  0  0  0  0  0  0  0  0  0
   13.5445    1.3288   23.3666 N   0  0  0  0  0  0  0  0  0  0  0  0
    5.8300    0.9190   18.6970 N   0  0  0  0  0  0  0  0  0  0  0  0
    9.2563   -4.7385   25.5420 N   0  0  0  0  0  0  0  0  0  0  0  0
    8.1890   -0.7180   20.8700 N   0  0  0  0  0  0  0  0  0  0  0  0
    9.2690    1.4140   20.9380 O   0  0  0  0  0  0  0  0  0  0  0  0
    8.9214   -0.1986   25.4206 H   0  0  0  0  0  0  0  0  0  0  0  0
   10.0622   -2.2326   21.8251 H   0  0  0  0  0  0  0  0  0  0  0  0
    8.6882   -2.3542   26.5803 H   0  0  0  0  0  0  0  0  0  0  0  0
    9.9258   -4.3896   22.9914 H   0  0  0  0  0  0  0  0  0  0  0  0
   11.6476    3.7871   23.7088 H   0  0  0  0  0  0  0  0  0  0  0  0
   12.3482   -0.4464   23.2641 H   0  0  0  0  0  0  0  0  0  0  0  0
    5.6855    0.7074   22.1002 H   0  0  0  0  0  0  0  0  0  0  0  0
    3.6634    2.0034   21.6926 H   0  0  0  0  0  0  0  0  0  0  0  0
    3.0111    2.6563   19.3629 H   0  0  0  0  0  0  0  0  0  0  0  0
    4.4370    1.9522   17.4626 H   0  0  0  0  0  0  0  0  0  0  0  0
    7.8484   -7.0905   27.4464 H   0  0  0  0  0  0  0  0  0  0  0  0
    6.3761   -6.1442   27.6721 H   0  0  0  0  0  0  0  0  0  0  0  0
    7.6308   -4.0428   27.6404 H   0  0  0  0  0  0  0  0  0  0  0  0
    8.3917   -5.1316   28.7967 H   0  0  0  0  0  0  0  0  0  0  0  0
    6.6889   -6.9376   25.3006 H   0  0  0  0  0  0  0  0  0  0  0  0
    6.5516   -5.1860   25.4256 H   0  0  0  0  0  0  0  0  0  0  0  0
   10.0494   -3.9643   27.3413 H   0  0  0  0  0  0  0  0  0  0  0  0
   10.1432   -5.7258   27.1775 H   0  0  0  0  0  0  0  0  0  0  0  0
    9.1338   -6.7931   25.0863 H   0  0  0  0  0  0  0  0  0  0  0  0
    8.3657   -5.7262   23.8995 H   0  0  0  0  0  0  0  0  0  0  0  0
   15.1241    0.7456   22.1764 H   0  0  0  0  0  0  0  0  0  0  0  0
   15.5818    1.4045   23.7836 H   0  0  0  0  0  0  0  0  0  0  0  0
   14.8855   -0.2314   23.6656 H   0  0  0  0  0  0  0  0  0  0  0  0
    9.5760    1.2490   24.6231 H   0  0  0  0  0  0  0  0  0  0  0  0
    9.3844    2.2230   23.1853 H   0  0  0  0  0  0  0  0  0  0  0  0
    8.0674    0.5009   23.2732 H   0  0  0  0  0  0  0  0  0  0  0  0
    8.2585   -1.5522   21.1129 H   0  0  0  0  0  0  0  0  0  0  0  0
  1  3  2  0  0  0  0
  1  7  1  0  0  0  0
  2  4  1  0  0  0  0
  2  7  2  0  0  0  0
  3  9  1  0  0  0  0
  4  9  2  0  0  0  0
  5  8  1  0  0  0  0
  5 25  2  0  0  0  0
  6  8  2  0  0  0  0
  6 28  1  0  0  0  0
  7 24  1  0  0  0  0
  8 23  1  0  0  0  0
  9 30  1  0  0  0  0
 10 11  2  0  0  0  0
 10 12  1  0  0  0  0
 10 29  1  0  0  0  0
 11 26  1  0  0  0  0
 11 31  1  0  0  0  0
 12 13  2  0  0  0  0
 13 14  1  0  0  0  0
 14 15  2  0  0  0  0
 15 29  1  0  0  0  0
 16 24  1  0  0  0  0
 16 31  1  0  0  0  0
 16 32  2  0  0  0  0
 17 18  1  0  0  0  0
 17 19  1  0  0  0  0
 18 20  1  0  0  0  0
 19 21  1  0  0  0  0
 20 30  1  0  0  0  0
 21 30  1  0  0  0  0
 22 28  1  0  0  0  0
 23 24  1  1  0  0  0
 25 28  1  0  0  0  0
 26 27  2  0  0  0  0
 27 29  1  0  0  0  0
  1 33  1  0  0  0  0
  2 34  1  0  0  0  0
  3 35  1  0  0  0  0
  4 36  1  0  0  0  0
  5 37  1  0  0  0  0
  6 38  1  0  0  0  0
 12 39  1  0  0  0  0
 13 40  1  0  0  0  0
 14 41  1  0  0  0  0
 15 42  1  0  0  0  0
 17 43  1  0  0  0  0
 17 44  1  0  0  0  0
 18 45  1  0  0  0  0
 18 46  1  0  0  0  0
 19 47  1  0  0  0  0
 19 48  1  0  0  0  0
 20 49  1  0  0  0  0
 20 50  1  0  0  0  0
 21 51  1  0  0  0  0
 21 52  1  0  0  0  0
 22 53  1  0  0  0  0
 22 54  1  0  0  0  0
 22 55  1  0  0  0  0
 23 56  1  0  0  0  0
 23 57  1  0  0  0  0
 24 58  1  0  0  0  0
 31 59  1  0  0  0  0
M  END
> <clash_score>
0

> <docking_score>
-9.017536163330078

> <overlap_score>
1.0146235227584839

$$$$
BENZO_267_1
  -OEChem-08222022183D

 47 50  0     1  0  0  0  0  0999 V2000
    8.9960   -2.3380   25.5320 C   0  0  0  0  0  0  0  0  0  0  0  0
    9.6730   -3.4710   23.5300 C   0  0  0  0  0  0  0  0  0  0  0  0
    9.0720   -1.1280   24.8640 C   0  0  0  0  0  0  0  0  0  0  0  0
    9.7200   -2.2600   22.8630 C   0  0  0  0  0  0  0  0  0  0  0  0
   12.0720    2.7762   23.5689 C   0  0  0  0  0  0  0  0  0  0  0  0
   12.3651    0.6087   23.3429 C   0  0  0  0  0  0  0  0  0  0  0  0
    9.3070   -3.5340   24.8780 C   0  0  0  0  0  0  0  0  0  0  0  0
    9.3350   -1.0880   23.5010 C   0  0  0  0  0  0  0  0  0  0  0  0
   11.3794    1.5528   23.4964 C   0  0  0  0  0  0  0  0  0  0  0  0
    6.1790    0.5730   19.9990 C   0  0  0  0  0  0  0  0  0  0  0  0
    7.3170   -0.1610   19.8550 C   0  0  0  0  0  0  0  0  0  0  0  0
    5.4210    0.9600   21.0930 C   0  0  0  0  0  0  0  0  0  0  0  0
    4.2750    1.7050   20.8490 C   0  0  0  0  0  0  0  0  0  0  0  0
    3.9160    2.0630   19.5520 C   0  0  0  0  0  0  0  0  0  0  0  0
    4.6890    1.6810   18.4640 C   0  0  0  0  0  0  0  0  0  0  0  0
    9.0420    0.3700   21.5280 C   0  0  0  0  0  0  0  0  0  0  0  0
    9.2507   -4.8268   25.5895 C   0  0  0  0  0  0  0  0  0  0  0  0
   14.8634    0.7326   23.1949 C   0  0  0  0  0  0  0  0  0  0  0  0
    9.8870    1.3260   23.5730 C   0  0  0  0  0  0  0  0  0  0  0  0
    9.4560    0.1560   22.8130 C   0  0  1  0  0  0  0  0  0  0  0  0
   13.3955    2.6261   23.4698 N   0  0  0  0  0  0  0  0  0  0  0  0
    7.6390   -0.2680   18.5410 N   0  0  0  0  0  0  0  0  0  0  0  0
    6.7580    0.3810   17.8350 N   0  0  0  0  0  0  0  0  0  0  0  0
   13.5424    1.2972   23.3335 N   0  0  0  0  0  0  0  0  0  0  0  0
    5.8300    0.9190   18.6970 N   0  0  0  0  0  0  0  0  0  0  0  0
    8.1890   -0.7180   20.8700 N   0  0  0  0  0  0  0  0  0  0  0  0
    9.2690    1.4140   20.9380 O   0  0  0  0  0  0  0  0  0  0  0  0
    8.6904   -2.3557   26.5808 H   0  0  0  0  0  0  0  0  0  0  0  0
    9.9249   -4.3911   22.9935 H   0  0  0  0  0  0  0  0  0  0  0  0
    8.9209   -0.1987   25.4207 H   0  0  0  0  0  0  0  0  0  0  0  0
   10.0640   -2.2315   21.8255 H   0  0  0  0  0  0  0  0  0  0  0  0
   11.6698    3.7720   23.6907 H   0  0  0  0  0  0  0  0  0  0  0  0
   12.3300   -0.4677   23.2433 H   0  0  0  0  0  0  0  0  0  0  0  0
    5.6855    0.7074   22.1002 H   0  0  0  0  0  0  0  0  0  0  0  0
    3.6634    2.0034   21.6926 H   0  0  0  0  0  0  0  0  0  0  0  0
    3.0111    2.6563   19.3629 H   0  0  0  0  0  0  0  0  0  0  0  0
    4.4370    1.9522   17.4626 H   0  0  0  0  0  0  0  0  0  0  0  0
    8.2506   -5.2684   25.5009 H   0  0  0  0  0  0  0  0  0  0  0  0
    9.9820   -5.5375   25.1832 H   0  0  0  0  0  0  0  0  0  0  0  0
    9.4843   -4.7055   26.6554 H   0  0  0  0  0  0  0  0  0  0  0  0
   15.1060    0.6995   22.1295 H   0  0  0  0  0  0  0  0  0  0  0  0
   15.5839    1.3558   23.7319 H   0  0  0  0  0  0  0  0  0  0  0  0
   14.8726   -0.2743   23.6217 H   0  0  0  0  0  0  0  0  0  0  0  0
    9.5854    1.2495   24.6258 H   0  0  0  0  0  0  0  0  0  0  0  0
    9.3886    2.2282   23.1920 H   0  0  0  0  0  0  0  0  0  0  0  0
    8.0686    0.4964   23.2745 H   0  0  0  0  0  0  0  0  0  0  0  0
    8.2392   -1.5641   21.0954 H   0  0  0  0  0  0  0  0  0  0  0  0
  1  3  2  0  0  0  0
  1  7  1  0  0  0  0
  2  4  1  0  0  0  0
  2  7  2  0  0  0  0
  3  8  1  0  0  0  0
  4  8  2  0  0  0  0
  5  9  1  0  0  0  0
  5 21  2  0  0  0  0
  6  9  2  0  0  0  0
  6 24  1  0  0  0  0
  7 17  1  0  0  0  0
  8 20  1  0  0  0  0
  9 19  1  0  0  0  0
 10 11  2  0  0  0  0
 10 12  1  0  0  0  0
 10 25  1  0  0  0  0
 11 22  1  0  0  0  0
 11 26  1  0  0  0  0
 12 13  2  0  0  0  0
 13 14  1  0  0  0  0
 14 15  2  0  0  0  0
 15 25  1  0  0  0  0
 16 20  1  0  0  0  0
 16 26  1  0  0  0  0
 16 27  2  0  0  0  0
 18 24  1  0  0  0  0
 19 20  1  1  0  0  0
 21 24  1  0  0  0  0
 22 23  2  0  0  0  0
 23 25  1  0  0  0  0
  1 28  1  0  0  0  0
  2 29  1  0  0  0  0
  3 30  1  0  0  0  0
  4 31  1  0  0  0  0
  5 32  1  0  0  0  0
  6 33  1  0  0  0  0
 12 34  1  0  0  0  0
 13 35  1  0  0  0  0
 14 36  1  0  0  0  0
 15 37  1  0  0  0  0
 17 38  1  0  0  0  0
 17 39  1  0  0  0  0
 17 40  1  0  0  0  0
 18 41  1  0  0  0  0
 18 42  1  0  0  0  0
 18 43  1  0  0  0  0
 19 44  1  0  0  0  0
 19 45  1  0  0  0  0
 20 46  1  0  0  0  0
 26 47  1  0  0  0  0
M  END
> <clash_score>
0

> <docking_score>
-9.339555740356445

> <overlap_score>
0.9617199301719666

$$$$
BENZO_267_2
  -OEChem-08222022183D

 47 50  0     1  0  0  0  0  0999 V2000
    8.9960   -2.3380   25.5320 C   0  0  0  0  0  0  0  0  0  0  0  0
    9.6730   -3.4710   23.5300 C   0  0  0  0  0  0  0  0  0  0  0  0
    9.0720   -1.1280   24.8640 C   0  0  0  0  0  0  0  0  0  0  0  0
    9.7200   -2.2600   22.8630 C   0  0  0  0  0  0  0  0  0  0  0  0
   12.3565    1.9564   22.9554 C   0  0  0  0  0  0  0  0  0  0  0  0
   10.7932    3.1569   21.9808 C   0  0  0  0  0  0  0  0  0  0  0  0
    9.3070   -3.5340   24.8780 C   0  0  0  0  0  0  0  0  0  0  0  0
    9.3350   -1.0880   23.5010 C   0  0  0  0  0  0  0  0  0  0  0  0
   10.9611    2.1180   22.8635 C   0  0  0  0  0  0  0  0  0  0  0  0
    6.1790    0.5730   19.9990 C   0  0  0  0  0  0  0  0  0  0  0  0
    7.3170   -0.1610   19.8550 C   0  0  0  0  0  0  0  0  0  0  0  0
    5.4210    0.9600   21.0930 C   0  0  0  0  0  0  0  0  0  0  0  0
    4.2750    1.7050   20.8490 C   0  0  0  0  0  0  0  0  0  0  0  0
    3.9160    2.0630   19.5520 C   0  0  0  0  0  0  0  0  0  0  0  0
    4.6890    1.6810   18.4640 C   0  0  0  0  0  0  0  0  0  0  0  0
    9.0420    0.3700   21.5280 C   0  0  0  0  0  0  0  0  0  0  0  0
    9.2507   -4.8268   25.5895 C   0  0  0  0  0  0  0  0  0  0  0  0
   12.3862    4.6002   20.6932 C   0  0  0  0  0  0  0  0  0  0  0  0
    9.8870    1.3260   23.5730 C   0  0  0  0  0  0  0  0  0  0  0  0
    9.4560    0.1560   22.8130 C   0  0  2  0  0  0  0  0  0  0  0  0
   13.0274    2.8231   22.1920 N   0  0  0  0  0  0  0  0  0  0  0  0
    7.6390   -0.2680   18.5410 N   0  0  0  0  0  0  0  0  0  0  0  0
    6.7580    0.3810   17.8350 N   0  0  0  0  0  0  0  0  0  0  0  0
   12.0493    3.5392   21.6118 N   0  0  0  0  0  0  0  0  0  0  0  0
    5.8300    0.9190   18.6970 N   0  0  0  0  0  0  0  0  0  0  0  0
    8.1890   -0.7180   20.8700 N   0  0  0  0  0  0  0  0  0  0  0  0
    9.2690    1.4140   20.9380 O   0  0  0  0  0  0  0  0  0  0  0  0
    8.6904   -2.3557   26.5808 H   0  0  0  0  0  0  0  0  0  0  0  0
    9.9249   -4.3911   22.9935 H   0  0  0  0  0  0  0  0  0  0  0  0
    8.9209   -0.1987   25.4207 H   0  0  0  0  0  0  0  0  0  0  0  0
   10.0640   -2.2315   21.8255 H   0  0  0  0  0  0  0  0  0  0  0  0
   12.9148    1.2434   23.5455 H   0  0  0  0  0  0  0  0  0  0  0  0
    9.9088    3.6436   21.5925 H   0  0  0  0  0  0  0  0  0  0  0  0
    5.6855    0.7074   22.1002 H   0  0  0  0  0  0  0  0  0  0  0  0
    3.6634    2.0034   21.6926 H   0  0  0  0  0  0  0  0  0  0  0  0
    3.0111    2.6563   19.3629 H   0  0  0  0  0  0  0  0  0  0  0  0
    4.4370    1.9522   17.4626 H   0  0  0  0  0  0  0  0  0  0  0  0
    8.2506   -5.2684   25.5009 H   0  0  0  0  0  0  0  0  0  0  0  0
    9.9820   -5.5375   25.1832 H   0  0  0  0  0  0  0  0  0  0  0  0
    9.4843   -4.7055   26.6554 H   0  0  0  0  0  0  0  0  0  0  0  0
   12.4913    5.5238   21.2686 H   0  0  0  0  0  0  0  0  0  0  0  0
   13.3235    4.3577   20.1848 H   0  0  0  0  0  0  0  0  0  0  0  0
   11.5908    4.7003   19.9494 H   0  0  0  0  0  0  0  0  0  0  0  0
   10.2455    1.0419   24.5710 H   0  0  0  0  0  0  0  0  0  0  0  0
    9.0345    1.9965   23.7496 H   0  0  0  0  0  0  0  0  0  0  0  0
   10.7927   -0.1029   22.4279 H   0  0  0  0  0  0  0  0  0  0  0  0
    8.2392   -1.5641   21.0954 H   0  0  0  0  0  0  0  0  0  0  0  0
  1  3  2  0  0  0  0
  1  7  1  0  0  0  0
  2  4  1  0  0  0  0
  2  7  2  0  0  0  0
  3  8  1  0  0  0  0
  4  8  2  0  0  0  0
  5  9  1  0  0  0  0
  5 21  2  0  0  0  0
  6  9  2  0  0  0  0
  6 24  1  0  0  0  0
  7 17  1  0  0  0  0
  8 20  1  0  0  0  0
  9 19  1  0  0  0  0
 10 11  2  0  0  0  0
 10 12  1  0  0  0  0
 10 25  1  0  0  0  0
 11 22  1  0  0  0  0
 11 26  1  0  0  0  0
 12 13  2  0  0  0  0
 13 14  1  0  0  0  0
 14 15  2  0  0  0  0
 15 25  1  0  0  0  0
 16 20  1  0  0  0  0
 16 26  1  0  0  0  0
 16 27  2  0  0  0  0
 18 24  1  0  0  0  0
 19 20  1  6  0  0  0
 21 24  1  0  0  0  0
 22 23  2  0  0  0  0
 23 25  1  0  0  0  0
  1 28  1  0  0  0  0
  2 29  1  0  0  0  0
  3 30  1  0  0  0  0
  4 31  1  0  0  0  0
  5 32  1  0  0  0  0
  6 33  1  0  0  0  0
 12 34  1  0  0  0  0
 13 35  1  0  0  0  0
 14 36  1  0  0  0  0
 15 37  1  0  0  0  0
 17 38  1  0  0  0  0
 17 39  1  0  0  0  0
 17 40  1  0  0  0  0
 18 41  1  0  0  0  0
 18 42  1  0  0  0  0
 18 43  1  0  0  0  0
 19 44  1  0  0  0  0
 19 45  1  0  0  0  0
 20 46  1  0  0  0  0
 26 47  1  0  0  0  0
M  END
> <clash_score>
0

> <docking_score>
-7.974968433380127

> <overlap_score>
0.9096470475196838

$$$$
BENZO_266_1
  -OEChem-08222022183D

 47 50  0     1  0  0  0  0  0999 V2000
   13.6189    0.6768   23.2648 C   0  0  0  0  0  0  0  0  0  0  0  0
   12.2417    0.4681   23.3366 C   0  0  0  0  0  0  0  0  0  0  0  0
    8.9960   -2.3380   25.5320 C   0  0  0  0  0  0  0  0  0  0  0  0
    9.6730   -3.4710   23.5300 C   0  0  0  0  0  0  0  0  0  0  0  0
    9.0720   -1.1280   24.8640 C   0  0  0  0  0  0  0  0  0  0  0  0
    9.7200   -2.2600   22.8630 C   0  0  0  0  0  0  0  0  0  0  0  0
   14.1339    1.9702   23.3527 C   0  0  0  0  0  0  0  0  0  0  0  0
   11.8943    2.8462   23.5844 C   0  0  0  0  0  0  0  0  0  0  0  0
    9.3070   -3.5340   24.8780 C   0  0  0  0  0  0  0  0  0  0  0  0
    9.3350   -1.0880   23.5010 C   0  0  0  0  0  0  0  0  0  0  0  0
   11.3794    1.5528   23.4964 C   0  0  0  0  0  0  0  0  0  0  0  0
   13.2716    3.0548   23.5125 C   0  0  0  0  0  0  0  0  0  0  0  0
    6.1790    0.5730   19.9990 C   0  0  0  0  0  0  0  0  0  0  0  0
    7.3170   -0.1610   19.8550 C   0  0  0  0  0  0  0  0  0  0  0  0
    5.4210    0.9600   21.0930 C   0  0  0  0  0  0  0  0  0  0  0  0
    4.2750    1.7050   20.8490 C   0  0  0  0  0  0  0  0  0  0  0  0
    3.9160    2.0630   19.5520 C   0  0  0  0  0  0  0  0  0  0  0  0
    4.6890    1.6810   18.4640 C   0  0  0  0  0  0  0  0  0  0  0  0
    9.0420    0.3700   21.5280 C   0  0  0  0  0  0  0  0  0  0  0  0
    9.2507   -4.8268   25.5895 C   0  0  0  0  0  0  0  0  0  0  0  0
    9.8870    1.3260   23.5730 C   0  0  0  0  0  0  0  0  0  0  0  0
    9.4560    0.1560   22.8130 C   0  0  1  0  0  0  0  0  0  0  0  0
    7.6390   -0.2680   18.5410 N   0  0  0  0  0  0  0  0  0  0  0  0
    6.7580    0.3810   17.8350 N   0  0  0  0  0  0  0  0  0  0  0  0
    5.8300    0.9190   18.6970 N   0  0  0  0  0  0  0  0  0  0  0  0
    8.1890   -0.7180   20.8700 N   0  0  0  0  0  0  0  0  0  0  0  0
    9.2690    1.4140   20.9380 O   0  0  0  0  0  0  0  0  0  0  0  0
   13.9075    4.6504   23.6198 Cl  0  0  0  0  0  0  0  0  0  0  0  0
   14.2901   -0.1681   23.1402 H   0  0  0  0  0  0  0  0  0  0  0  0
   11.8492   -0.5431   23.2671 H   0  0  0  0  0  0  0  0  0  0  0  0
    8.6904   -2.3557   26.5808 H   0  0  0  0  0  0  0  0  0  0  0  0
    9.9249   -4.3911   22.9935 H   0  0  0  0  0  0  0  0  0  0  0  0
    8.9209   -0.1987   25.4207 H   0  0  0  0  0  0  0  0  0  0  0  0
   10.0640   -2.2315   21.8255 H   0  0  0  0  0  0  0  0  0  0  0  0
   15.2095    2.1179   23.2949 H   0  0  0  0  0  0  0  0  0  0  0  0
   11.2178    3.6885   23.7094 H   0  0  0  0  0  0  0  0  0  0  0  0
    5.6855    0.7074   22.1002 H   0  0  0  0  0  0  0  0  0  0  0  0
    3.6634    2.0034   21.6926 H   0  0  0  0  0  0  0  0  0  0  0  0
    3.0111    2.6563   19.3629 H   0  0  0  0  0  0  0  0  0  0  0  0
    4.4370    1.9522   17.4626 H   0  0  0  0  0  0  0  0  0  0  0  0
    8.2506   -5.2684   25.5009 H   0  0  0  0  0  0  0  0  0  0  0  0
    9.9820   -5.5375   25.1832 H   0  0  0  0  0  0  0  0  0  0  0  0
    9.4843   -4.7055   26.6554 H   0  0  0  0  0  0  0  0  0  0  0  0
    9.5854    1.2495   24.6258 H   0  0  0  0  0  0  0  0  0  0  0  0
    9.3886    2.2282   23.1920 H   0  0  0  0  0  0  0  0  0  0  0  0
    8.0686    0.4964   23.2745 H   0  0  0  0  0  0  0  0  0  0  0  0
    8.2392   -1.5641   21.0954 H   0  0  0  0  0  0  0  0  0  0  0  0
  1  2  2  0  0  0  0
  1  7  1  0  0  0  0
  2 11  1  0  0  0  0
  3  5  2  0  0  0  0
  3  9  1  0  0  0  0
  4  6  1  0  0  0  0
  4  9  2  0  0  0  0
  5 10  1  0  0  0  0
  6 10  2  0  0  0  0
  7 12  2  0  0  0  0
  8 11  2  0  0  0  0
  8 12  1  0  0  0  0
  9 20  1  0  0  0  0
 10 22  1  0  0  0  0
 11 21  1  0  0  0  0
 12 28  1  0  0  0  0
 13 14  2  0  0  0  0
 13 15  1  0  0  0  0
 13 25  1  0  0  0  0
 14 23  1  0  0  0  0
 14 26  1  0  0  0  0
 15 16  2  0  0  0  0
 16 17  1  0  0  0  0
 17 18  2  0  0  0  0
 18 25  1  0  0  0  0
 19 22  1  0  0  0  0
 19 26  1  0  0  0  0
 19 27  2  0  0  0  0
 21 22  1  1  0  0  0
 23 24  2  0  0  0  0
 24 25  1  0  0  0  0
  1 29  1  0  0  0  0
  2 30  1  0  0  0  0
  3 31  1  0  0  0  0
  4 32  1  0  0  0  0
  5 33  1  0  0  0  0
  6 34  1  0  0  0  0
  7 35  1  0  0  0  0
  8 36  1  0  0  0  0
 15 37  1  0  0  0  0
 16 38  1  0  0  0  0
 17 39  1  0  0  0  0
 18 40  1  0  0  0  0
 20 41  1  0  0  0  0
 20 42  1  0  0  0  0
 20 43  1  0  0  0  0
 21 44  1  0  0  0  0
 21 45  1  0  0  0  0
 22 46  1  0  0  0  0
 26 47  1  0  0  0  0
M  END
> <clash_score>
0

> <docking_score>
-9.008256912231445

> <overlap_score>
0.9629614949226379

$$$$
BENZO_266_2
  -OEChem-08222022183D

 47 50  0     1  0  0  0  0  0999 V2000
   13.2976    2.5464   22.4232 C   0  0  0  0  0  0  0  0  0  0  0  0
   12.3059    1.8167   23.0786 C   0  0  0  0  0  0  0  0  0  0  0  0
    8.9960   -2.3380   25.5320 C   0  0  0  0  0  0  0  0  0  0  0  0
    9.6730   -3.4710   23.5300 C   0  0  0  0  0  0  0  0  0  0  0  0
    9.0720   -1.1280   24.8640 C   0  0  0  0  0  0  0  0  0  0  0  0
    9.7200   -2.2600   22.8630 C   0  0  0  0  0  0  0  0  0  0  0  0
   12.9446    3.5776   21.5528 C   0  0  0  0  0  0  0  0  0  0  0  0
   10.6080    3.1492   21.9930 C   0  0  0  0  0  0  0  0  0  0  0  0
    9.3070   -3.5340   24.8780 C   0  0  0  0  0  0  0  0  0  0  0  0
    9.3350   -1.0880   23.5010 C   0  0  0  0  0  0  0  0  0  0  0  0
   10.9611    2.1180   22.8635 C   0  0  0  0  0  0  0  0  0  0  0  0
   11.5998    3.8790   21.3377 C   0  0  0  0  0  0  0  0  0  0  0  0
    6.1790    0.5730   19.9990 C   0  0  0  0  0  0  0  0  0  0  0  0
    7.3170   -0.1610   19.8550 C   0  0  0  0  0  0  0  0  0  0  0  0
    5.4210    0.9600   21.0930 C   0  0  0  0  0  0  0  0  0  0  0  0
    4.2750    1.7050   20.8490 C   0  0  0  0  0  0  0  0  0  0  0  0
    3.9160    2.0630   19.5520 C   0  0  0  0  0  0  0  0  0  0  0  0
    4.6890    1.6810   18.4640 C   0  0  0  0  0  0  0  0  0  0  0  0
    9.0420    0.3700   21.5280 C   0  0  0  0  0  0  0  0  0  0  0  0
    9.2507   -4.8268   25.5895 C   0  0  0  0  0  0  0  0  0  0  0  0
    9.8870    1.3260   23.5730 C   0  0  0  0  0  0  0  0  0  0  0  0
    9.4560    0.1560   22.8130 C   0  0  2  0  0  0  0  0  0  0  0  0
    7.6390   -0.2680   18.5410 N   0  0  0  0  0  0  0  0  0  0  0  0
    6.7580    0.3810   17.8350 N   0  0  0  0  0  0  0  0  0  0  0  0
    5.8300    0.9190   18.6970 N   0  0  0  0  0  0  0  0  0  0  0  0
    8.1890   -0.7180   20.8700 N   0  0  0  0  0  0  0  0  0  0  0  0
    9.2690    1.4140   20.9380 O   0  0  0  0  0  0  0  0  0  0  0  0
   11.1647    5.1506   20.2627 Cl  0  0  0  0  0  0  0  0  0  0  0  0
   14.3448    2.3114   22.5909 H   0  0  0  0  0  0  0  0  0  0  0  0
   12.5902    1.0148   23.7550 H   0  0  0  0  0  0  0  0  0  0  0  0
    8.6904   -2.3557   26.5808 H   0  0  0  0  0  0  0  0  0  0  0  0
    9.9249   -4.3911   22.9935 H   0  0  0  0  0  0  0  0  0  0  0  0
    8.9209   -0.1987   25.4207 H   0  0  0  0  0  0  0  0  0  0  0  0
   10.0640   -2.2315   21.8255 H   0  0  0  0  0  0  0  0  0  0  0  0
   13.7282    4.1379   21.0487 H   0  0  0  0  0  0  0  0  0  0  0  0
    9.5581    3.3806   21.8290 H   0  0  0  0  0  0  0  0  0  0  0  0
    5.6855    0.7074   22.1002 H   0  0  0  0  0  0  0  0  0  0  0  0
    3.6634    2.0034   21.6926 H   0  0  0  0  0  0  0  0  0  0  0  0
    3.0111    2.6563   19.3629 H   0  0  0  0  0  0  0  0  0  0  0  0
    4.4370    1.9522   17.4626 H   0  0  0  0  0  0  0  0  0  0  0  0
    8.2506   -5.2684   25.5009 H   0  0  0  0  0  0  0  0  0  0  0  0
    9.9820   -5.5375   25.1832 H   0  0  0  0  0  0  0  0  0  0  0  0
    9.4843   -4.7055   26.6554 H   0  0  0  0  0  0  0  0  0  0  0  0
   10.2455    1.0419   24.5710 H   0  0  0  0  0  0  0  0  0  0  0  0
    9.0345    1.9965   23.7496 H   0  0  0  0  0  0  0  0  0  0  0  0
   10.7927   -0.1029   22.4279 H   0  0  0  0  0  0  0  0  0  0  0  0
    8.2392   -1.5641   21.0954 H   0  0  0  0  0  0  0  0  0  0  0  0
  1  2  2  0  0  0  0
  1  7  1  0  0  0  0
  2 11  1  0  0  0  0
  3  5  2  0  0  0  0
  3  9  1  0  0  0  0
  4  6  1  0  0  0  0
  4  9  2  0  0  0  0
  5 10  1  0  0  0  0
  6 10  2  0  0  0  0
  7 12  2  0  0  0  0
  8 11  2  0  0  0  0
  8 12  1  0  0  0  0
  9 20  1  0  0  0  0
 10 22  1  0  0  0  0
 11 21  1  0  0  0  0
 12 28  1  0  0  0  0
 13 14  2  0  0  0  0
 13 15  1  0  0  0  0
 13 25  1  0  0  0  0
 14 23  1  0  0  0  0
 14 26  1  0  0  0  0
 15 16  2  0  0  0  0
 16 17  1  0  0  0  0
 17 18  2  0  0  0  0
 18 25  1  0  0  0  0
 19 22  1  0  0  0  0
 19 26  1  0  0  0  0
 19 27  2  0  0  0  0
 21 22  1  6  0  0  0
 23 24  2  0  0  0  0
 24 25  1  0  0  0  0
  1 29  1  0  0  0  0
  2 30  1  0  0  0  0
  3 31  1  0  0  0  0
  4 32  1  0  0  0  0
  5 33  1  0  0  0  0
  6 34  1  0  0  0  0
  7 35  1  0  0  0  0
  8 36  1  0  0  0  0
 15 37  1  0  0  0  0
 16 38  1  0  0  0  0
 17 39  1  0  0  0  0
 18 40  1  0  0  0  0
 20 41  1  0  0  0  0
 20 42  1  0  0  0  0
 20 43  1  0  0  0  0
 21 44  1  0  0  0  0
 21 45  1  0  0  0  0
 22 46  1  0  0  0  0
 26 47  1  0  0  0  0
M  END
> <clash_score>
2.2102968286139095

> <docking_score>
-8.510146141052246

> <overlap_score>
0.91526859998703

$$$$
BENZO_268_1
  -OEChem-08222022183D

 45 48  0     1  0  0  0  0  0999 V2000
    9.0720   -1.1280   24.8640 C   0  0  0  0  0  0  0  0  0  0  0  0
    9.7200   -2.2600   22.8630 C   0  0  0  0  0  0  0  0  0  0  0  0
    8.9960   -2.3380   25.5320 C   0  0  0  0  0  0  0  0  0  0  0  0
    9.6730   -3.4710   23.5300 C   0  0  0  0  0  0  0  0  0  0  0  0
   12.3398    0.5029   23.4216 C   0  0  0  0  0  0  0  0  0  0  0  0
   13.6291    0.9843   23.3622 C   0  0  0  0  0  0  0  0  0  0  0  0
   11.9713    2.7968   23.4917 C   0  0  0  0  0  0  0  0  0  0  0  0
    9.3350   -1.0880   23.5010 C   0  0  0  0  0  0  0  0  0  0  0  0
   11.3794    1.5528   23.4964 C   0  0  0  0  0  0  0  0  0  0  0  0
    9.3070   -3.5340   24.8780 C   0  0  0  0  0  0  0  0  0  0  0  0
    6.1790    0.5730   19.9990 C   0  0  0  0  0  0  0  0  0  0  0  0
    7.3170   -0.1610   19.8550 C   0  0  0  0  0  0  0  0  0  0  0  0
    5.4210    0.9600   21.0930 C   0  0  0  0  0  0  0  0  0  0  0  0
    4.2750    1.7050   20.8490 C   0  0  0  0  0  0  0  0  0  0  0  0
    3.9160    2.0630   19.5520 C   0  0  0  0  0  0  0  0  0  0  0  0
    4.6890    1.6810   18.4640 C   0  0  0  0  0  0  0  0  0  0  0  0
    9.0420    0.3700   21.5280 C   0  0  0  0  0  0  0  0  0  0  0  0
    9.5904   -5.8808   24.7807 C   0  0  0  0  0  0  0  0  0  0  0  0
    9.8870    1.3260   23.5730 C   0  0  0  0  0  0  0  0  0  0  0  0
    9.4560    0.1560   22.8130 C   0  0  1  0  0  0  0  0  0  0  0  0
    7.6390   -0.2680   18.5410 N   0  0  0  0  0  0  0  0  0  0  0  0
    6.7580    0.3810   17.8350 N   0  0  0  0  0  0  0  0  0  0  0  0
    5.8300    0.9190   18.6970 N   0  0  0  0  0  0  0  0  0  0  0  0
    8.1890   -0.7180   20.8700 N   0  0  0  0  0  0  0  0  0  0  0  0
    9.2690    1.4140   20.9380 O   0  0  0  0  0  0  0  0  0  0  0  0
    9.2567   -4.7121   25.5280 O   0  0  0  0  0  0  0  0  0  0  0  0
   13.6781    2.6957   23.3969 S   0  0  0  0  0  0  0  0  0  0  0  0
    8.9224   -0.1986   25.4209 H   0  0  0  0  0  0  0  0  0  0  0  0
   10.0638   -2.2321   21.8253 H   0  0  0  0  0  0  0  0  0  0  0  0
    8.6903   -2.3588   26.5807 H   0  0  0  0  0  0  0  0  0  0  0  0
    9.9258   -4.3917   22.9962 H   0  0  0  0  0  0  0  0  0  0  0  0
   12.1014   -0.5532   23.4119 H   0  0  0  0  0  0  0  0  0  0  0  0
   14.5445    0.4131   23.3009 H   0  0  0  0  0  0  0  0  0  0  0  0
   11.4871    3.7623   23.5403 H   0  0  0  0  0  0  0  0  0  0  0  0
    5.6855    0.7074   22.1002 H   0  0  0  0  0  0  0  0  0  0  0  0
    3.6634    2.0034   21.6926 H   0  0  0  0  0  0  0  0  0  0  0  0
    3.0111    2.6563   19.3629 H   0  0  0  0  0  0  0  0  0  0  0  0
    4.4370    1.9522   17.4626 H   0  0  0  0  0  0  0  0  0  0  0  0
    9.5095   -6.7607   25.4235 H   0  0  0  0  0  0  0  0  0  0  0  0
   10.6094   -5.7898   24.3961 H   0  0  0  0  0  0  0  0  0  0  0  0
    8.8947   -5.9784   23.9439 H   0  0  0  0  0  0  0  0  0  0  0  0
    9.5854    1.2495   24.6258 H   0  0  0  0  0  0  0  0  0  0  0  0
    9.3886    2.2282   23.1920 H   0  0  0  0  0  0  0  0  0  0  0  0
    8.0686    0.4964   23.2745 H   0  0  0  0  0  0  0  0  0  0  0  0
    8.2392   -1.5641   21.0954 H   0  0  0  0  0  0  0  0  0  0  0  0
  1  3  2  0  0  0  0
  1  8  1  0  0  0  0
  2  4  1  0  0  0  0
  2  8  2  0  0  0  0
  3 10  1  0  0  0  0
  4 10  2  0  0  0  0
  5  6  2  0  0  0  0
  5  9  1  0  0  0  0
  6 27  1  0  0  0  0
  7  9  2  0  0  0  0
  7 27  1  0  0  0  0
  8 20  1  0  0  0  0
  9 19  1  0  0  0  0
 10 26  1  0  0  0  0
 11 12  2  0  0  0  0
 11 13  1  0  0  0  0
 11 23  1  0  0  0  0
 12 21  1  0  0  0  0
 12 24  1  0  0  0  0
 13 14  2  0  0  0  0
 14 15  1  0  0  0  0
 15 16  2  0  0  0  0
 16 23  1  0  0  0  0
 17 20  1  0  0  0  0
 17 24  1  0  0  0  0
 17 25  2  0  0  0  0
 18 26  1  0  0  0  0
 19 20  1  1  0  0  0
 21 22  2  0  0  0  0
 22 23  1  0  0  0  0
  1 28  1  0  0  0  0
  2 29  1  0  0  0  0
  3 30  1  0  0  0  0
  4 31  1  0  0  0  0
  5 32  1  0  0  0  0
  6 33  1  0  0  0  0
  7 34  1  0  0  0  0
 13 35  1  0  0  0  0
 14 36  1  0  0  0  0
 15 37  1  0  0  0  0
 16 38  1  0  0  0  0
 18 39  1  0  0  0  0
 18 40  1  0  0  0  0
 18 41  1  0  0  0  0
 19 42  1  0  0  0  0
 19 43  1  0  0  0  0
 20 44  1  0  0  0  0
 24 45  1  0  0  0  0
M  END
> <clash_score>
0

> <docking_score>
-9.469982147216797

> <overlap_score>
0.970275342464447

$$$$
BENZO_269_1
  -OEChem-08222022183D

 48 51  0     1  0  0  0  0  0999 V2000
   14.1341    1.9700   23.3554 C   0  0  0  0  0  0  0  0  0  0  0  0
   13.2717    3.0547   23.5141 C   0  0  0  0  0  0  0  0  0  0  0  0
   13.6192    0.6767   23.2672 C   0  0  0  0  0  0  0  0  0  0  0  0
   11.8943    2.8461   23.5846 C   0  0  0  0  0  0  0  0  0  0  0  0
   12.2418    0.4680   23.3377 C   0  0  0  0  0  0  0  0  0  0  0  0
    9.0720   -1.1280   24.8640 C   0  0  0  0  0  0  0  0  0  0  0  0
    9.7200   -2.2600   22.8630 C   0  0  0  0  0  0  0  0  0  0  0  0
    8.9960   -2.3380   25.5320 C   0  0  0  0  0  0  0  0  0  0  0  0
    9.6730   -3.4710   23.5300 C   0  0  0  0  0  0  0  0  0  0  0  0
   11.3794    1.5528   23.4964 C   0  0  0  0  0  0  0  0  0  0  0  0
    9.3350   -1.0880   23.5010 C   0  0  0  0  0  0  0  0  0  0  0  0
    9.3070   -3.5340   24.8780 C   0  0  0  0  0  0  0  0  0  0  0  0
    6.1790    0.5730   19.9990 C   0  0  0  0  0  0  0  0  0  0  0  0
    7.3170   -0.1610   19.8550 C   0  0  0  0  0  0  0  0  0  0  0  0
    5.4210    0.9600   21.0930 C   0  0  0  0  0  0  0  0  0  0  0  0
    4.2750    1.7050   20.8490 C   0  0  0  0  0  0  0  0  0  0  0  0
    3.9160    2.0630   19.5520 C   0  0  0  0  0  0  0  0  0  0  0  0
    4.6890    1.6810   18.4640 C   0  0  0  0  0  0  0  0  0  0  0  0
    9.0420    0.3700   21.5280 C   0  0  0  0  0  0  0  0  0  0  0  0
    8.8744   -4.6797   26.9022 C   0  0  0  0  0  0  0  0  0  0  0  0
    9.8870    1.3260   23.5730 C   0  0  0  0  0  0  0  0  0  0  0  0
    9.4560    0.1560   22.8130 C   0  0  1  0  0  0  0  0  0  0  0  0
    7.6390   -0.2680   18.5410 N   0  0  0  0  0  0  0  0  0  0  0  0
    6.7580    0.3810   17.8350 N   0  0  0  0  0  0  0  0  0  0  0  0
    5.8300    0.9190   18.6970 N   0  0  0  0  0  0  0  0  0  0  0  0
    8.1890   -0.7180   20.8700 N   0  0  0  0  0  0  0  0  0  0  0  0
    9.2690    1.4140   20.9380 O   0  0  0  0  0  0  0  0  0  0  0  0
    9.2567   -4.7121   25.5280 O   0  0  0  0  0  0  0  0  0  0  0  0
   15.2065    2.1328   23.2992 H   0  0  0  0  0  0  0  0  0  0  0  0
   13.6724    4.0620   23.5817 H   0  0  0  0  0  0  0  0  0  0  0  0
   14.2903   -0.1680   23.1426 H   0  0  0  0  0  0  0  0  0  0  0  0
   11.2299    3.6973   23.7085 H   0  0  0  0  0  0  0  0  0  0  0  0
   11.8496   -0.5431   23.2682 H   0  0  0  0  0  0  0  0  0  0  0  0
    8.9224   -0.1986   25.4209 H   0  0  0  0  0  0  0  0  0  0  0  0
   10.0638   -2.2321   21.8253 H   0  0  0  0  0  0  0  0  0  0  0  0
    8.6903   -2.3588   26.5807 H   0  0  0  0  0  0  0  0  0  0  0  0
    9.9258   -4.3917   22.9962 H   0  0  0  0  0  0  0  0  0  0  0  0
    5.6855    0.7074   22.1002 H   0  0  0  0  0  0  0  0  0  0  0  0
    3.6634    2.0034   21.6926 H   0  0  0  0  0  0  0  0  0  0  0  0
    3.0111    2.6563   19.3629 H   0  0  0  0  0  0  0  0  0  0  0  0
    4.4370    1.9522   17.4626 H   0  0  0  0  0  0  0  0  0  0  0  0
    8.8744   -5.6954   27.3053 H   0  0  0  0  0  0  0  0  0  0  0  0
    7.8781   -4.2399   26.9939 H   0  0  0  0  0  0  0  0  0  0  0  0
    9.5920   -4.0702   27.4565 H   0  0  0  0  0  0  0  0  0  0  0  0
    9.5854    1.2495   24.6258 H   0  0  0  0  0  0  0  0  0  0  0  0
    9.3886    2.2282   23.1920 H   0  0  0  0  0  0  0  0  0  0  0  0
    8.0686    0.4964   23.2745 H   0  0  0  0  0  0  0  0  0  0  0  0
    8.2392   -1.5641   21.0954 H   0  0  0  0  0  0  0  0  0  0  0  0
  1  2  1  0  0  0  0
  1  3  2  0  0  0  0
  2  4  2  0  0  0  0
  3  5  1  0  0  0  0
  4 10  1  0  0  0  0
  5 10  2  0  0  0  0
  6  8  2  0  0  0  0
  6 11  1  0  0  0  0
  7  9  1  0  0  0  0
  7 11  2  0  0  0  0
  8 12  1  0  0  0  0
  9 12  2  0  0  0  0
 10 21  1  0  0  0  0
 11 22  1  0  0  0  0
 12 28  1  0  0  0  0
 13 14  2  0  0  0  0
 13 15  1  0  0  0  0
 13 25  1  0  0  0  0
 14 23  1  0  0  0  0
 14 26  1  0  0  0  0
 15 16  2  0  0  0  0
 16 17  1  0  0  0  0
 17 18  2  0  0  0  0
 18 25  1  0  0  0  0
 19 22  1  0  0  0  0
 19 26  1  0  0  0  0
 19 27  2  0  0  0  0
 20 28  1  0  0  0  0
 21 22  1  1  0  0  0
 23 24  2  0  0  0  0
 24 25  1  0  0  0  0
  1 29  1  0  0  0  0
  2 30  1  0  0  0  0
  3 31  1  0  0  0  0
  4 32  1  0  0  0  0
  5 33  1  0  0  0  0
  6 34  1  0  0  0  0
  7 35  1  0  0  0  0
  8 36  1  0  0  0  0
  9 37  1  0  0  0  0
 15 38  1  0  0  0  0
 16 39  1  0  0  0  0
 17 40  1  0  0  0  0
 18 41  1  0  0  0  0
 20 42  1  0  0  0  0
 20 43  1  0  0  0  0
 20 44  1  0  0  0  0
 21 45  1  0  0  0  0
 21 46  1  0  0  0  0
 22 47  1  0  0  0  0
 26 48  1  0  0  0  0
M  END
> <clash_score>
0

> <docking_score>
-9.033302307128906

> <overlap_score>
0.9831550717353821

$$$$
BENZO_268_2
  -OEChem-08222022183D

 45 48  0     1  0  0  0  0  0999 V2000
    9.0720   -1.1280   24.8640 C   0  0  0  0  0  0  0  0  0  0  0  0
    9.7200   -2.2600   22.8630 C   0  0  0  0  0  0  0  0  0  0  0  0
    8.9960   -2.3380   25.5320 C   0  0  0  0  0  0  0  0  0  0  0  0
    9.6730   -3.4710   23.5300 C   0  0  0  0  0  0  0  0  0  0  0  0
   12.3907    0.6679   23.6950 C   0  0  0  0  0  0  0  0  0  0  0  0
   13.4189    0.5308   24.6014 C   0  0  0  0  0  0  0  0  0  0  0  0
   11.3314    1.2632   25.6763 C   0  0  0  0  0  0  0  0  0  0  0  0
    9.3350   -1.0880   23.5010 C   0  0  0  0  0  0  0  0  0  0  0  0
   11.1814    1.0923   24.3176 C   0  0  0  0  0  0  0  0  0  0  0  0
    9.3070   -3.5340   24.8780 C   0  0  0  0  0  0  0  0  0  0  0  0
    6.1790    0.5730   19.9990 C   0  0  0  0  0  0  0  0  0  0  0  0
    7.3170   -0.1610   19.8550 C   0  0  0  0  0  0  0  0  0  0  0  0
    5.4210    0.9600   21.0930 C   0  0  0  0  0  0  0  0  0  0  0  0
    4.2750    1.7050   20.8490 C   0  0  0  0  0  0  0  0  0  0  0  0
    3.9160    2.0630   19.5520 C   0  0  0  0  0  0  0  0  0  0  0  0
    4.6890    1.6810   18.4640 C   0  0  0  0  0  0  0  0  0  0  0  0
    9.0420    0.3700   21.5280 C   0  0  0  0  0  0  0  0  0  0  0  0
    8.8744   -4.6797   26.9022 C   0  0  0  0  0  0  0  0  0  0  0  0
    9.8870    1.3260   23.5730 C   0  0  0  0  0  0  0  0  0  0  0  0
    9.4560    0.1560   22.8130 C   0  0  2  0  0  0  0  0  0  0  0  0
    7.6390   -0.2680   18.5410 N   0  0  0  0  0  0  0  0  0  0  0  0
    6.7580    0.3810   17.8350 N   0  0  0  0  0  0  0  0  0  0  0  0
    5.8300    0.9190   18.6970 N   0  0  0  0  0  0  0  0  0  0  0  0
    8.1890   -0.7180   20.8700 N   0  0  0  0  0  0  0  0  0  0  0  0
    9.2690    1.4140   20.9380 O   0  0  0  0  0  0  0  0  0  0  0  0
    9.2567   -4.7121   25.5280 O   0  0  0  0  0  0  0  0  0  0  0  0
   12.9250    0.9128   26.1959 S   0  0  0  0  0  0  0  0  0  0  0  0
    8.9224   -0.1986   25.4209 H   0  0  0  0  0  0  0  0  0  0  0  0
   10.0638   -2.2321   21.8253 H   0  0  0  0  0  0  0  0  0  0  0  0
    8.6903   -2.3588   26.5807 H   0  0  0  0  0  0  0  0  0  0  0  0
    9.9258   -4.3917   22.9962 H   0  0  0  0  0  0  0  0  0  0  0  0
   12.5049    0.4716   22.6364 H   0  0  0  0  0  0  0  0  0  0  0  0
   14.4362    0.2239   24.4037 H   0  0  0  0  0  0  0  0  0  0  0  0
   10.5839    1.5757   26.3924 H   0  0  0  0  0  0  0  0  0  0  0  0
    5.6855    0.7074   22.1002 H   0  0  0  0  0  0  0  0  0  0  0  0
    3.6634    2.0034   21.6926 H   0  0  0  0  0  0  0  0  0  0  0  0
    3.0111    2.6563   19.3629 H   0  0  0  0  0  0  0  0  0  0  0  0
    4.4370    1.9522   17.4626 H   0  0  0  0  0  0  0  0  0  0  0  0
    8.8744   -5.6954   27.3053 H   0  0  0  0  0  0  0  0  0  0  0  0
    7.8781   -4.2399   26.9939 H   0  0  0  0  0  0  0  0  0  0  0  0
    9.5920   -4.0702   27.4565 H   0  0  0  0  0  0  0  0  0  0  0  0
    9.1131    1.6463   24.2828 H   0  0  0  0  0  0  0  0  0  0  0  0
   10.0354    2.1807   22.8984 H   0  0  0  0  0  0  0  0  0  0  0  0
   10.7927   -0.1029   22.4279 H   0  0  0  0  0  0  0  0  0  0  0  0
    8.2392   -1.5641   21.0954 H   0  0  0  0  0  0  0  0  0  0  0  0
  1  3  2  0  0  0  0
  1  8  1  0  0  0  0
  2  4  1  0  0  0  0
  2  8  2  0  0  0  0
  3 10  1  0  0  0  0
  4 10  2  0  0  0  0
  5  6  2  0  0  0  0
  5  9  1  0  0  0  0
  6 27  1  0  0  0  0
  7  9  2  0  0  0  0
  7 27  1  0  0  0  0
  8 20  1  0  0  0  0
  9 19  1  0  0  0  0
 10 26  1  0  0  0  0
 11 12  2  0  0  0  0
 11 13  1  0  0  0  0
 11 23  1  0  0  0  0
 12 21  1  0  0  0  0
 12 24  1  0  0  0  0
 13 14  2  0  0  0  0
 14 15  1  0  0  0  0
 15 16  2  0  0  0  0
 16 23  1  0  0  0  0
 17 20  1  0  0  0  0
 17 24  1  0  0  0  0
 17 25  2  0  0  0  0
 18 26  1  0  0  0  0
 19 20  1  6  0  0  0
 21 22  2  0  0  0  0
 22 23  1  0  0  0  0
  1 28  1  0  0  0  0
  2 29  1  0  0  0  0
  3 30  1  0  0  0  0
  4 31  1  0  0  0  0
  5 32  1  0  0  0  0
  6 33  1  0  0  0  0
  7 34  1  0  0  0  0
 13 35  1  0  0  0  0
 14 36  1  0  0  0  0
 15 37  1  0  0  0  0
 16 38  1  0  0  0  0
 18 39  1  0  0  0  0
 18 40  1  0  0  0  0
 18 41  1  0  0  0  0
 19 42  1  0  0  0  0
 19 43  1  0  0  0  0
 20 44  1  0  0  0  0
 24 45  1  0  0  0  0
M  END
> <clash_score>
0.6216867689726071

> <docking_score>
-7.383338928222656

> <overlap_score>
0.8906732797622681

$$$$
BENZO_269_2
  -OEChem-08222022183D

 48 51  0     1  0  0  0  0  0999 V2000
   12.9427    3.5803   21.5528 C   0  0  0  0  0  0  0  0  0  0  0  0
   13.2971    2.5494   22.4231 C   0  0  0  0  0  0  0  0  0  0  0  0
   11.5975    3.8801   21.3380 C   0  0  0  0  0  0  0  0  0  0  0  0
   12.3064    1.8183   23.0784 C   0  0  0  0  0  0  0  0  0  0  0  0
   10.6067    3.1489   21.9933 C   0  0  0  0  0  0  0  0  0  0  0  0
    9.0720   -1.1280   24.8640 C   0  0  0  0  0  0  0  0  0  0  0  0
    9.7200   -2.2600   22.8630 C   0  0  0  0  0  0  0  0  0  0  0  0
    8.9960   -2.3380   25.5320 C   0  0  0  0  0  0  0  0  0  0  0  0
    9.6730   -3.4710   23.5300 C   0  0  0  0  0  0  0  0  0  0  0  0
   10.9611    2.1180   22.8635 C   0  0  0  0  0  0  0  0  0  0  0  0
    9.3350   -1.0880   23.5010 C   0  0  0  0  0  0  0  0  0  0  0  0
    9.3070   -3.5340   24.8780 C   0  0  0  0  0  0  0  0  0  0  0  0
    6.1790    0.5730   19.9990 C   0  0  0  0  0  0  0  0  0  0  0  0
    7.3170   -0.1610   19.8550 C   0  0  0  0  0  0  0  0  0  0  0  0
    5.4210    0.9600   21.0930 C   0  0  0  0  0  0  0  0  0  0  0  0
    4.2750    1.7050   20.8490 C   0  0  0  0  0  0  0  0  0  0  0  0
    3.9160    2.0630   19.5520 C   0  0  0  0  0  0  0  0  0  0  0  0
    4.6890    1.6810   18.4640 C   0  0  0  0  0  0  0  0  0  0  0  0
    9.0420    0.3700   21.5280 C   0  0  0  0  0  0  0  0  0  0  0  0
    8.8744   -4.6797   26.9022 C   0  0  0  0  0  0  0  0  0  0  0  0
    9.8870    1.3260   23.5730 C   0  0  0  0  0  0  0  0  0  0  0  0
    9.4560    0.1560   22.8130 C   0  0  2  0  0  0  0  0  0  0  0  0
    7.6390   -0.2680   18.5410 N   0  0  0  0  0  0  0  0  0  0  0  0
    6.7580    0.3810   17.8350 N   0  0  0  0  0  0  0  0  0  0  0  0
    5.8300    0.9190   18.6970 N   0  0  0  0  0  0  0  0  0  0  0  0
    8.1890   -0.7180   20.8700 N   0  0  0  0  0  0  0  0  0  0  0  0
    9.2690    1.4140   20.9380 O   0  0  0  0  0  0  0  0  0  0  0  0
    9.2567   -4.7121   25.5280 O   0  0  0  0  0  0  0  0  0  0  0  0
   13.7143    4.1504   21.0437 H   0  0  0  0  0  0  0  0  0  0  0  0
   14.3446    2.3166   22.5913 H   0  0  0  0  0  0  0  0  0  0  0  0
   11.3212    4.6833   20.6614 H   0  0  0  0  0  0  0  0  0  0  0  0
   12.5919    1.0167   23.7545 H   0  0  0  0  0  0  0  0  0  0  0  0
    9.5611    3.3895   21.8196 H   0  0  0  0  0  0  0  0  0  0  0  0
    8.9224   -0.1986   25.4209 H   0  0  0  0  0  0  0  0  0  0  0  0
   10.0638   -2.2321   21.8253 H   0  0  0  0  0  0  0  0  0  0  0  0
    8.6903   -2.3588   26.5807 H   0  0  0  0  0  0  0  0  0  0  0  0
    9.9258   -4.3917   22.9962 H   0  0  0  0  0  0  0  0  0  0  0  0
    5.6855    0.7074   22.1002 H   0  0  0  0  0  0  0  0  0  0  0  0
    3.6634    2.0034   21.6926 H   0  0  0  0  0  0  0  0  0  0  0  0
    3.0111    2.6563   19.3629 H   0  0  0  0  0  0  0  0  0  0  0  0
    4.4370    1.9522   17.4626 H   0  0  0  0  0  0  0  0  0  0  0  0
    8.8744   -5.6954   27.3053 H   0  0  0  0  0  0  0  0  0  0  0  0
    7.8781   -4.2399   26.9939 H   0  0  0  0  0  0  0  0  0  0  0  0
    9.5920   -4.0702   27.4565 H   0  0  0  0  0  0  0  0  0  0  0  0
   10.2455    1.0419   24.5710 H   0  0  0  0  0  0  0  0  0  0  0  0
    9.0345    1.9965   23.7496 H   0  0  0  0  0  0  0  0  0  0  0  0
   10.7927   -0.1029   22.4279 H   0  0  0  0  0  0  0  0  0  0  0  0
    8.2392   -1.5641   21.0954 H   0  0  0  0  0  0  0  0  0  0  0  0
  1  2  1  0  0  0  0
  1  3  2  0  0  0  0
  2  4  2  0  0  0  0
  3  5  1  0  0  0  0
  4 10  1  0  0  0  0
  5 10  2  0  0  0  0
  6  8  2  0  0  0  0
  6 11  1  0  0  0  0
  7  9  1  0  0  0  0
  7 11  2  0  0  0  0
  8 12  1  0  0  0  0
  9 12  2  0  0  0  0
 10 21  1  0  0  0  0
 11 22  1  0  0  0  0
 12 28  1  0  0  0  0
 13 14  2  0  0  0  0
 13 15  1  0  0  0  0
 13 25  1  0  0  0  0
 14 23  1  0  0  0  0
 14 26  1  0  0  0  0
 15 16  2  0  0  0  0
 16 17  1  0  0  0  0
 17 18  2  0  0  0  0
 18 25  1  0  0  0  0
 19 22  1  0  0  0  0
 19 26  1  0  0  0  0
 19 27  2  0  0  0  0
 20 28  1  0  0  0  0
 21 22  1  6  0  0  0
 23 24  2  0  0  0  0
 24 25  1  0  0  0  0
  1 29  1  0  0  0  0
  2 30  1  0  0  0  0
  3 31  1  0  0  0  0
  4 32  1  0  0  0  0
  5 33  1  0  0  0  0
  6 34  1  0  0  0  0
  7 35  1  0  0  0  0
  8 36  1  0  0  0  0
  9 37  1  0  0  0  0
 15 38  1  0  0  0  0
 16 39  1  0  0  0  0
 17 40  1  0  0  0  0
 18 41  1  0  0  0  0
 20 42  1  0  0  0  0
 20 43  1  0  0  0  0
 20 44  1  0  0  0  0
 21 45  1  0  0  0  0
 21 46  1  0  0  0  0
 22 47  1  0  0  0  0
 26 48  1  0  0  0  0
M  END
> <clash_score>
0.6163882399364046

> <docking_score>
-8.953508377075195

> <overlap_score>
0.9387645125389099

$$$$
BENZO_271_2
  -OEChem-08222022183D

 48 51  0     1  0  0  0  0  0999 V2000
    9.0720   -1.1280   24.8640 C   0  0  0  0  0  0  0  0  0  0  0  0
    9.7200   -2.2600   22.8630 C   0  0  0  0  0  0  0  0  0  0  0  0
    8.9960   -2.3380   25.5320 C   0  0  0  0  0  0  0  0  0  0  0  0
    9.6730   -3.4710   23.5300 C   0  0  0  0  0  0  0  0  0  0  0  0
   12.3565    1.9564   22.9554 C   0  0  0  0  0  0  0  0  0  0  0  0
   10.7932    3.1569   21.9808 C   0  0  0  0  0  0  0  0  0  0  0  0
    9.3350   -1.0880   23.5010 C   0  0  0  0  0  0  0  0  0  0  0  0
   10.9611    2.1180   22.8635 C   0  0  0  0  0  0  0  0  0  0  0  0
    9.3070   -3.5340   24.8780 C   0  0  0  0  0  0  0  0  0  0  0  0
    6.1790    0.5730   19.9990 C   0  0  0  0  0  0  0  0  0  0  0  0
    7.3170   -0.1610   19.8550 C   0  0  0  0  0  0  0  0  0  0  0  0
    5.4210    0.9600   21.0930 C   0  0  0  0  0  0  0  0  0  0  0  0
    4.2750    1.7050   20.8490 C   0  0  0  0  0  0  0  0  0  0  0  0
    3.9160    2.0630   19.5520 C   0  0  0  0  0  0  0  0  0  0  0  0
    4.6890    1.6810   18.4640 C   0  0  0  0  0  0  0  0  0  0  0  0
    9.0420    0.3700   21.5280 C   0  0  0  0  0  0  0  0  0  0  0  0
   12.3862    4.6002   20.6932 C   0  0  0  0  0  0  0  0  0  0  0  0
    8.8744   -4.6797   26.9022 C   0  0  0  0  0  0  0  0  0  0  0  0
    9.8870    1.3260   23.5730 C   0  0  0  0  0  0  0  0  0  0  0  0
    9.4560    0.1560   22.8130 C   0  0  2  0  0  0  0  0  0  0  0  0
   13.0274    2.8231   22.1920 N   0  0  0  0  0  0  0  0  0  0  0  0
    7.6390   -0.2680   18.5410 N   0  0  0  0  0  0  0  0  0  0  0  0
    6.7580    0.3810   17.8350 N   0  0  0  0  0  0  0  0  0  0  0  0
   12.0493    3.5392   21.6118 N   0  0  0  0  0  0  0  0  0  0  0  0
    5.8300    0.9190   18.6970 N   0  0  0  0  0  0  0  0  0  0  0  0
    8.1890   -0.7180   20.8700 N   0  0  0  0  0  0  0  0  0  0  0  0
    9.2690    1.4140   20.9380 O   0  0  0  0  0  0  0  0  0  0  0  0
    9.2567   -4.7121   25.5280 O   0  0  0  0  0  0  0  0  0  0  0  0
    8.9224   -0.1986   25.4209 H   0  0  0  0  0  0  0  0  0  0  0  0
   10.0638   -2.2321   21.8253 H   0  0  0  0  0  0  0  0  0  0  0  0
    8.6903   -2.3588   26.5807 H   0  0  0  0  0  0  0  0  0  0  0  0
    9.9258   -4.3917   22.9962 H   0  0  0  0  0  0  0  0  0  0  0  0
   12.9148    1.2434   23.5455 H   0  0  0  0  0  0  0  0  0  0  0  0
    9.9088    3.6436   21.5925 H   0  0  0  0  0  0  0  0  0  0  0  0
    5.6855    0.7074   22.1002 H   0  0  0  0  0  0  0  0  0  0  0  0
    3.6634    2.0034   21.6926 H   0  0  0  0  0  0  0  0  0  0  0  0
    3.0111    2.6563   19.3629 H   0  0  0  0  0  0  0  0  0  0  0  0
    4.4370    1.9522   17.4626 H   0  0  0  0  0  0  0  0  0  0  0  0
   12.4913    5.5238   21.2686 H   0  0  0  0  0  0  0  0  0  0  0  0
   13.3235    4.3577   20.1848 H   0  0  0  0  0  0  0  0  0  0  0  0
   11.5908    4.7003   19.9494 H   0  0  0  0  0  0  0  0  0  0  0  0
    8.8744   -5.6954   27.3053 H   0  0  0  0  0  0  0  0  0  0  0  0
    7.8781   -4.2399   26.9939 H   0  0  0  0  0  0  0  0  0  0  0  0
    9.5920   -4.0702   27.4565 H   0  0  0  0  0  0  0  0  0  0  0  0
   10.2455    1.0419   24.5710 H   0  0  0  0  0  0  0  0  0  0  0  0
    9.0345    1.9965   23.7496 H   0  0  0  0  0  0  0  0  0  0  0  0
   10.7927   -0.1029   22.4279 H   0  0  0  0  0  0  0  0  0  0  0  0
    8.2392   -1.5641   21.0954 H   0  0  0  0  0  0  0  0  0  0  0  0
  1  3  2  0  0  0  0
  1  7  1  0  0  0  0
  2  4  1  0  0  0  0
  2  7  2  0  0  0  0
  3  9  1  0  0  0  0
  4  9  2  0  0  0  0
  5  8  1  0  0  0  0
  5 21  2  0  0  0  0
  6  8  2  0  0  0  0
  6 24  1  0  0  0  0
  7 20  1  0  0  0  0
  8 19  1  0  0  0  0
  9 28  1  0  0  0  0
 10 11  2  0  0  0  0
 10 12  1  0  0  0  0
 10 25  1  0  0  0  0
 11 22  1  0  0  0  0
 11 26  1  0  0  0  0
 12 13  2  0  0  0  0
 13 14  1  0  0  0  0
 14 15  2  0  0  0  0
 15 25  1  0  0  0  0
 16 20  1  0  0  0  0
 16 26  1  0  0  0  0
 16 27  2  0  0  0  0
 17 24  1  0  0  0  0
 18 28  1  0  0  0  0
 19 20  1  6  0  0  0
 21 24  1  0  0  0  0
 22 23  2  0  0  0  0
 23 25  1  0  0  0  0
  1 29  1  0  0  0  0
  2 30  1  0  0  0  0
  3 31  1  0  0  0  0
  4 32  1  0  0  0  0
  5 33  1  0  0  0  0
  6 34  1  0  0  0  0
 12 35  1  0  0  0  0
 13 36  1  0  0  0  0
 14 37  1  0  0  0  0
 15 38  1  0  0  0  0
 17 39  1  0  0  0  0
 17 40  1  0  0  0  0
 17 41  1  0  0  0  0
 18 42  1  0  0  0  0
 18 43  1  0  0  0  0
 18 44  1  0  0  0  0
 19 45  1  0  0  0  0
 19 46  1  0  0  0  0
 20 47  1  0  0  0  0
 26 48  1  0  0  0  0
M  END
> <clash_score>
0

> <docking_score>
-7.709351062774658

> <overlap_score>
0.9320230484008789

$$$$
BENZO_271_1
  -OEChem-08222022183D

 48 51  0     1  0  0  0  0  0999 V2000
    9.0720   -1.1280   24.8640 C   0  0  0  0  0  0  0  0  0  0  0  0
    9.7200   -2.2600   22.8630 C   0  0  0  0  0  0  0  0  0  0  0  0
    8.9960   -2.3380   25.5320 C   0  0  0  0  0  0  0  0  0  0  0  0
    9.6730   -3.4710   23.5300 C   0  0  0  0  0  0  0  0  0  0  0  0
   12.0720    2.7762   23.5689 C   0  0  0  0  0  0  0  0  0  0  0  0
   12.3651    0.6087   23.3429 C   0  0  0  0  0  0  0  0  0  0  0  0
    9.3350   -1.0880   23.5010 C   0  0  0  0  0  0  0  0  0  0  0  0
   11.3794    1.5528   23.4964 C   0  0  0  0  0  0  0  0  0  0  0  0
    9.3070   -3.5340   24.8780 C   0  0  0  0  0  0  0  0  0  0  0  0
    6.1790    0.5730   19.9990 C   0  0  0  0  0  0  0  0  0  0  0  0
    7.3170   -0.1610   19.8550 C   0  0  0  0  0  0  0  0  0  0  0  0
    5.4210    0.9600   21.0930 C   0  0  0  0  0  0  0  0  0  0  0  0
    4.2750    1.7050   20.8490 C   0  0  0  0  0  0  0  0  0  0  0  0
    3.9160    2.0630   19.5520 C   0  0  0  0  0  0  0  0  0  0  0  0
    4.6890    1.6810   18.4640 C   0  0  0  0  0  0  0  0  0  0  0  0
    9.0420    0.3700   21.5280 C   0  0  0  0  0  0  0  0  0  0  0  0
   14.8634    0.7326   23.1949 C   0  0  0  0  0  0  0  0  0  0  0  0
    8.8744   -4.6797   26.9022 C   0  0  0  0  0  0  0  0  0  0  0  0
    9.8870    1.3260   23.5730 C   0  0  0  0  0  0  0  0  0  0  0  0
    9.4560    0.1560   22.8130 C   0  0  1  0  0  0  0  0  0  0  0  0
   13.3955    2.6261   23.4698 N   0  0  0  0  0  0  0  0  0  0  0  0
    7.6390   -0.2680   18.5410 N   0  0  0  0  0  0  0  0  0  0  0  0
    6.7580    0.3810   17.8350 N   0  0  0  0  0  0  0  0  0  0  0  0
   13.5424    1.2972   23.3335 N   0  0  0  0  0  0  0  0  0  0  0  0
    5.8300    0.9190   18.6970 N   0  0  0  0  0  0  0  0  0  0  0  0
    8.1890   -0.7180   20.8700 N   0  0  0  0  0  0  0  0  0  0  0  0
    9.2690    1.4140   20.9380 O   0  0  0  0  0  0  0  0  0  0  0  0
    9.2567   -4.7121   25.5280 O   0  0  0  0  0  0  0  0  0  0  0  0
    8.9224   -0.1986   25.4209 H   0  0  0  0  0  0  0  0  0  0  0  0
   10.0638   -2.2321   21.8253 H   0  0  0  0  0  0  0  0  0  0  0  0
    8.6903   -2.3588   26.5807 H   0  0  0  0  0  0  0  0  0  0  0  0
    9.9258   -4.3917   22.9962 H   0  0  0  0  0  0  0  0  0  0  0  0
   11.6698    3.7720   23.6907 H   0  0  0  0  0  0  0  0  0  0  0  0
   12.3300   -0.4677   23.2433 H   0  0  0  0  0  0  0  0  0  0  0  0
    5.6855    0.7074   22.1002 H   0  0  0  0  0  0  0  0  0  0  0  0
    3.6634    2.0034   21.6926 H   0  0  0  0  0  0  0  0  0  0  0  0
    3.0111    2.6563   19.3629 H   0  0  0  0  0  0  0  0  0  0  0  0
    4.4370    1.9522   17.4626 H   0  0  0  0  0  0  0  0  0  0  0  0
   15.1060    0.6995   22.1295 H   0  0  0  0  0  0  0  0  0  0  0  0
   15.5839    1.3558   23.7319 H   0  0  0  0  0  0  0  0  0  0  0  0
   14.8726   -0.2743   23.6217 H   0  0  0  0  0  0  0  0  0  0  0  0
    8.8744   -5.6954   27.3053 H   0  0  0  0  0  0  0  0  0  0  0  0
    7.8781   -4.2399   26.9939 H   0  0  0  0  0  0  0  0  0  0  0  0
    9.5920   -4.0702   27.4565 H   0  0  0  0  0  0  0  0  0  0  0  0
    9.5854    1.2495   24.6258 H   0  0  0  0  0  0  0  0  0  0  0  0
    9.3886    2.2282   23.1920 H   0  0  0  0  0  0  0  0  0  0  0  0
    8.0686    0.4964   23.2745 H   0  0  0  0  0  0  0  0  0  0  0  0
    8.2392   -1.5641   21.0954 H   0  0  0  0  0  0  0  0  0  0  0  0
  1  3  2  0  0  0  0
  1  7  1  0  0  0  0
  2  4  1  0  0  0  0
  2  7  2  0  0  0  0
  3  9  1  0  0  0  0
  4  9  2  0  0  0  0
  5  8  1  0  0  0  0
  5 21  2  0  0  0  0
  6  8  2  0  0  0  0
  6 24  1  0  0  0  0
  7 20  1  0  0  0  0
  8 19  1  0  0  0  0
  9 28  1  0  0  0  0
 10 11  2  0  0  0  0
 10 12  1  0  0  0  0
 10 25  1  0  0  0  0
 11 22  1  0  0  0  0
 11 26  1  0  0  0  0
 12 13  2  0  0  0  0
 13 14  1  0  0  0  0
 14 15  2  0  0  0  0
 15 25  1  0  0  0  0
 16 20  1  0  0  0  0
 16 26  1  0  0  0  0
 16 27  2  0  0  0  0
 17 24  1  0  0  0  0
 18 28  1  0  0  0  0
 19 20  1  1  0  0  0
 21 24  1  0  0  0  0
 22 23  2  0  0  0  0
 23 25  1  0  0  0  0
  1 29  1  0  0  0  0
  2 30  1  0  0  0  0
  3 31  1  0  0  0  0
  4 32  1  0  0  0  0
  5 33  1  0  0  0  0
  6 34  1  0  0  0  0
 12 35  1  0  0  0  0
 13 36  1  0  0  0  0
 14 37  1  0  0  0  0
 15 38  1  0  0  0  0
 17 39  1  0  0  0  0
 17 40  1  0  0  0  0
 17 41  1  0  0  0  0
 18 42  1  0  0  0  0
 18 43  1  0  0  0  0
 18 44  1  0  0  0  0
 19 45  1  0  0  0  0
 19 46  1  0  0  0  0
 20 47  1  0  0  0  0
 26 48  1  0  0  0  0
M  END
> <clash_score>
0

> <docking_score>
-9.073938369750977

> <overlap_score>
0.9840041399002075

$$$$
BENZO_270_1
  -OEChem-08222022183D

 48 51  0     1  0  0  0  0  0999 V2000
   13.6189    0.6768   23.2648 C   0  0  0  0  0  0  0  0  0  0  0  0
   12.2417    0.4681   23.3366 C   0  0  0  0  0  0  0  0  0  0  0  0
    9.0720   -1.1280   24.8640 C   0  0  0  0  0  0  0  0  0  0  0  0
    9.7200   -2.2600   22.8630 C   0  0  0  0  0  0  0  0  0  0  0  0
    8.9960   -2.3380   25.5320 C   0  0  0  0  0  0  0  0  0  0  0  0
    9.6730   -3.4710   23.5300 C   0  0  0  0  0  0  0  0  0  0  0  0
   14.1339    1.9702   23.3527 C   0  0  0  0  0  0  0  0  0  0  0  0
   11.8943    2.8462   23.5844 C   0  0  0  0  0  0  0  0  0  0  0  0
    9.3350   -1.0880   23.5010 C   0  0  0  0  0  0  0  0  0  0  0  0
   11.3794    1.5528   23.4964 C   0  0  0  0  0  0  0  0  0  0  0  0
    9.3070   -3.5340   24.8780 C   0  0  0  0  0  0  0  0  0  0  0  0
   13.2716    3.0548   23.5125 C   0  0  0  0  0  0  0  0  0  0  0  0
    6.1790    0.5730   19.9990 C   0  0  0  0  0  0  0  0  0  0  0  0
    7.3170   -0.1610   19.8550 C   0  0  0  0  0  0  0  0  0  0  0  0
    5.4210    0.9600   21.0930 C   0  0  0  0  0  0  0  0  0  0  0  0
    4.2750    1.7050   20.8490 C   0  0  0  0  0  0  0  0  0  0  0  0
    3.9160    2.0630   19.5520 C   0  0  0  0  0  0  0  0  0  0  0  0
    4.6890    1.6810   18.4640 C   0  0  0  0  0  0  0  0  0  0  0  0
    9.0420    0.3700   21.5280 C   0  0  0  0  0  0  0  0  0  0  0  0
    8.8744   -4.6797   26.9022 C   0  0  0  0  0  0  0  0  0  0  0  0
    9.8870    1.3260   23.5730 C   0  0  0  0  0  0  0  0  0  0  0  0
    9.4560    0.1560   22.8130 C   0  0  1  0  0  0  0  0  0  0  0  0
    7.6390   -0.2680   18.5410 N   0  0  0  0  0  0  0  0  0  0  0  0
    6.7580    0.3810   17.8350 N   0  0  0  0  0  0  0  0  0  0  0  0
    5.8300    0.9190   18.6970 N   0  0  0  0  0  0  0  0  0  0  0  0
    8.1890   -0.7180   20.8700 N   0  0  0  0  0  0  0  0  0  0  0  0
    9.2690    1.4140   20.9380 O   0  0  0  0  0  0  0  0  0  0  0  0
    9.2567   -4.7121   25.5280 O   0  0  0  0  0  0  0  0  0  0  0  0
   13.9075    4.6504   23.6198 Cl  0  0  0  0  0  0  0  0  0  0  0  0
   14.2901   -0.1681   23.1402 H   0  0  0  0  0  0  0  0  0  0  0  0
   11.8492   -0.5431   23.2671 H   0  0  0  0  0  0  0  0  0  0  0  0
    8.9224   -0.1986   25.4209 H   0  0  0  0  0  0  0  0  0  0  0  0
   10.0638   -2.2321   21.8253 H   0  0  0  0  0  0  0  0  0  0  0  0
    8.6903   -2.3588   26.5807 H   0  0  0  0  0  0  0  0  0  0  0  0
    9.9258   -4.3917   22.9962 H   0  0  0  0  0  0  0  0  0  0  0  0
   15.2095    2.1179   23.2949 H   0  0  0  0  0  0  0  0  0  0  0  0
   11.2178    3.6885   23.7094 H   0  0  0  0  0  0  0  0  0  0  0  0
    5.6855    0.7074   22.1002 H   0  0  0  0  0  0  0  0  0  0  0  0
    3.6634    2.0034   21.6926 H   0  0  0  0  0  0  0  0  0  0  0  0
    3.0111    2.6563   19.3629 H   0  0  0  0  0  0  0  0  0  0  0  0
    4.4370    1.9522   17.4626 H   0  0  0  0  0  0  0  0  0  0  0  0
    8.8744   -5.6954   27.3053 H   0  0  0  0  0  0  0  0  0  0  0  0
    7.8781   -4.2399   26.9939 H   0  0  0  0  0  0  0  0  0  0  0  0
    9.5920   -4.0702   27.4565 H   0  0  0  0  0  0  0  0  0  0  0  0
    9.5854    1.2495   24.6258 H   0  0  0  0  0  0  0  0  0  0  0  0
    9.3886    2.2282   23.1920 H   0  0  0  0  0  0  0  0  0  0  0  0
    8.0686    0.4964   23.2745 H   0  0  0  0  0  0  0  0  0  0  0  0
    8.2392   -1.5641   21.0954 H   0  0  0  0  0  0  0  0  0  0  0  0
  1  2  2  0  0  0  0
  1  7  1  0  0  0  0
  2 10  1  0  0  0  0
  3  5  2  0  0  0  0
  3  9  1  0  0  0  0
  4  6  1  0  0  0  0
  4  9  2  0  0  0  0
  5 11  1  0  0  0  0
  6 11  2  0  0  0  0
  7 12  2  0  0  0  0
  8 10  2  0  0  0  0
  8 12  1  0  0  0  0
  9 22  1  0  0  0  0
 10 21  1  0  0  0  0
 11 28  1  0  0  0  0
 12 29  1  0  0  0  0
 13 14  2  0  0  0  0
 13 15  1  0  0  0  0
 13 25  1  0  0  0  0
 14 23  1  0  0  0  0
 14 26  1  0  0  0  0
 15 16  2  0  0  0  0
 16 17  1  0  0  0  0
 17 18  2  0  0  0  0
 18 25  1  0  0  0  0
 19 22  1  0  0  0  0
 19 26  1  0  0  0  0
 19 27  2  0  0  0  0
 20 28  1  0  0  0  0
 21 22  1  1  0  0  0
 23 24  2  0  0  0  0
 24 25  1  0  0  0  0
  1 30  1  0  0  0  0
  2 31  1  0  0  0  0
  3 32  1  0  0  0  0
  4 33  1  0  0  0  0
  5 34  1  0  0  0  0
  6 35  1  0  0  0  0
  7 36  1  0  0  0  0
  8 37  1  0  0  0  0
 15 38  1  0  0  0  0
 16 39  1  0  0  0  0
 17 40  1  0  0  0  0
 18 41  1  0  0  0  0
 20 42  1  0  0  0  0
 20 43  1  0  0  0  0
 20 44  1  0  0  0  0
 21 45  1  0  0  0  0
 21 46  1  0  0  0  0
 22 47  1  0  0  0  0
 26 48  1  0  0  0  0
M  END
> <clash_score>
0

> <docking_score>
-8.742639541625977

> <overlap_score>
0.9852194786071777

$$$$
BENZO_270_2
  -OEChem-08222022183D

 48 51  0     1  0  0  0  0  0999 V2000
   13.2976    2.5464   22.4232 C   0  0  0  0  0  0  0  0  0  0  0  0
   12.3059    1.8167   23.0786 C   0  0  0  0  0  0  0  0  0  0  0  0
    9.0720   -1.1280   24.8640 C   0  0  0  0  0  0  0  0  0  0  0  0
    9.7200   -2.2600   22.8630 C   0  0  0  0  0  0  0  0  0  0  0  0
    8.9960   -2.3380   25.5320 C   0  0  0  0  0  0  0  0  0  0  0  0
    9.6730   -3.4710   23.5300 C   0  0  0  0  0  0  0  0  0  0  0  0
   12.9446    3.5776   21.5528 C   0  0  0  0  0  0  0  0  0  0  0  0
   10.6080    3.1492   21.9930 C   0  0  0  0  0  0  0  0  0  0  0  0
    9.3350   -1.0880   23.5010 C   0  0  0  0  0  0  0  0  0  0  0  0
   10.9611    2.1180   22.8635 C   0  0  0  0  0  0  0  0  0  0  0  0
    9.3070   -3.5340   24.8780 C   0  0  0  0  0  0  0  0  0  0  0  0
   11.5998    3.8790   21.3377 C   0  0  0  0  0  0  0  0  0  0  0  0
    6.1790    0.5730   19.9990 C   0  0  0  0  0  0  0  0  0  0  0  0
    7.3170   -0.1610   19.8550 C   0  0  0  0  0  0  0  0  0  0  0  0
    5.4210    0.9600   21.0930 C   0  0  0  0  0  0  0  0  0  0  0  0
    4.2750    1.7050   20.8490 C   0  0  0  0  0  0  0  0  0  0  0  0
    3.9160    2.0630   19.5520 C   0  0  0  0  0  0  0  0  0  0  0  0
    4.6890    1.6810   18.4640 C   0  0  0  0  0  0  0  0  0  0  0  0
    9.0420    0.3700   21.5280 C   0  0  0  0  0  0  0  0  0  0  0  0
    9.5904   -5.8808   24.7807 C   0  0  0  0  0  0  0  0  0  0  0  0
    9.8870    1.3260   23.5730 C   0  0  0  0  0  0  0  0  0  0  0  0
    9.4560    0.1560   22.8130 C   0  0  2  0  0  0  0  0  0  0  0  0
    7.6390   -0.2680   18.5410 N   0  0  0  0  0  0  0  0  0  0  0  0
    6.7580    0.3810   17.8350 N   0  0  0  0  0  0  0  0  0  0  0  0
    5.8300    0.9190   18.6970 N   0  0  0  0  0  0  0  0  0  0  0  0
    8.1890   -0.7180   20.8700 N   0  0  0  0  0  0  0  0  0  0  0  0
    9.2690    1.4140   20.9380 O   0  0  0  0  0  0  0  0  0  0  0  0
    9.2567   -4.7121   25.5280 O   0  0  0  0  0  0  0  0  0  0  0  0
   11.1647    5.1506   20.2627 Cl  0  0  0  0  0  0  0  0  0  0  0  0
   14.3448    2.3114   22.5909 H   0  0  0  0  0  0  0  0  0  0  0  0
   12.5902    1.0148   23.7550 H   0  0  0  0  0  0  0  0  0  0  0  0
    8.9224   -0.1986   25.4209 H   0  0  0  0  0  0  0  0  0  0  0  0
   10.0638   -2.2321   21.8253 H   0  0  0  0  0  0  0  0  0  0  0  0
    8.6903   -2.3588   26.5807 H   0  0  0  0  0  0  0  0  0  0  0  0
    9.9258   -4.3917   22.9962 H   0  0  0  0  0  0  0  0  0  0  0  0
   13.7282    4.1379   21.0487 H   0  0  0  0  0  0  0  0  0  0  0  0
    9.5581    3.3806   21.8290 H   0  0  0  0  0  0  0  0  0  0  0  0
    5.6855    0.7074   22.1002 H   0  0  0  0  0  0  0  0  0  0  0  0
    3.6634    2.0034   21.6926 H   0  0  0  0  0  0  0  0  0  0  0  0
    3.0111    2.6563   19.3629 H   0  0  0  0  0  0  0  0  0  0  0  0
    4.4370    1.9522   17.4626 H   0  0  0  0  0  0  0  0  0  0  0  0
    9.5095   -6.7607   25.4235 H   0  0  0  0  0  0  0  0  0  0  0  0
   10.6094   -5.7898   24.3961 H   0  0  0  0  0  0  0  0  0  0  0  0
    8.8947   -5.9784   23.9439 H   0  0  0  0  0  0  0  0  0  0  0  0
   10.2455    1.0419   24.5710 H   0  0  0  0  0  0  0  0  0  0  0  0
    9.0345    1.9965   23.7496 H   0  0  0  0  0  0  0  0  0  0  0  0
   10.7927   -0.1029   22.4279 H   0  0  0  0  0  0  0  0  0  0  0  0
    8.2392   -1.5641   21.0954 H   0  0  0  0  0  0  0  0  0  0  0  0
  1  2  2  0  0  0  0
  1  7  1  0  0  0  0
  2 10  1  0  0  0  0
  3  5  2  0  0  0  0
  3  9  1  0  0  0  0
  4  6  1  0  0  0  0
  4  9  2  0  0  0  0
  5 11  1  0  0  0  0
  6 11  2  0  0  0  0
  7 12  2  0  0  0  0
  8 10  2  0  0  0  0
  8 12  1  0  0  0  0
  9 22  1  0  0  0  0
 10 21  1  0  0  0  0
 11 28  1  0  0  0  0
 12 29  1  0  0  0  0
 13 14  2  0  0  0  0
 13 15  1  0  0  0  0
 13 25  1  0  0  0  0
 14 23  1  0  0  0  0
 14 26  1  0  0  0  0
 15 16  2  0  0  0  0
 16 17  1  0  0  0  0
 17 18  2  0  0  0  0
 18 25  1  0  0  0  0
 19 22  1  0  0  0  0
 19 26  1  0  0  0  0
 19 27  2  0  0  0  0
 20 28  1  0  0  0  0
 21 22  1  6  0  0  0
 23 24  2  0  0  0  0
 24 25  1  0  0  0  0
  1 30  1  0  0  0  0
  2 31  1  0  0  0  0
  3 32  1  0  0  0  0
  4 33  1  0  0  0  0
  5 34  1  0  0  0  0
  6 35  1  0  0  0  0
  7 36  1  0  0  0  0
  8 37  1  0  0  0  0
 15 38  1  0  0  0  0
 16 39  1  0  0  0  0
 17 40  1  0  0  0  0
 18 41  1  0  0  0  0
 20 42  1  0  0  0  0
 20 43  1  0  0  0  0
 20 44  1  0  0  0  0
 21 45  1  0  0  0  0
 21 46  1  0  0  0  0
 22 47  1  0  0  0  0
 26 48  1  0  0  0  0
M  END
> <clash_score>
2.2102968286139095

> <docking_score>
-8.217031478881836

> <overlap_score>
0.9400750994682312

$$$$
BENZO_273_1
  -OEChem-08222022193D

 58 62  0     1  0  0  0  0  0999 V2000
   12.9362    3.6201   21.5881 C   0  0  0  0  0  0  0  0  0  0  0  0
   13.2938    2.5836   22.4503 C   0  0  0  0  0  0  0  0  0  0  0  0
   11.5899    3.9127   21.3699 C   0  0  0  0  0  0  0  0  0  0  0  0
   12.3051    1.8395   23.0941 C   0  0  0  0  0  0  0  0  0  0  0  0
   10.6012    3.1686   22.0138 C   0  0  0  0  0  0  0  0  0  0  0  0
    9.0720   -1.1280   24.8640 C   0  0  0  0  0  0  0  0  0  0  0  0
    9.7200   -2.2600   22.8630 C   0  0  0  0  0  0  0  0  0  0  0  0
    8.9960   -2.3380   25.5320 C   0  0  0  0  0  0  0  0  0  0  0  0
    9.6730   -3.4710   23.5300 C   0  0  0  0  0  0  0  0  0  0  0  0
   10.9588    2.1320   22.8759 C   0  0  0  0  0  0  0  0  0  0  0  0
    9.3350   -1.0880   23.5010 C   0  0  0  0  0  0  0  0  0  0  0  0
    9.3070   -3.5340   24.8780 C   0  0  0  0  0  0  0  0  0  0  0  0
    6.1790    0.5730   19.9990 C   0  0  0  0  0  0  0  0  0  0  0  0
    7.3170   -0.1610   19.8550 C   0  0  0  0  0  0  0  0  0  0  0  0
    5.4210    0.9600   21.0930 C   0  0  0  0  0  0  0  0  0  0  0  0
    4.2750    1.7050   20.8490 C   0  0  0  0  0  0  0  0  0  0  0  0
    3.9160    2.0630   19.5520 C   0  0  0  0  0  0  0  0  0  0  0  0
    4.6890    1.6810   18.4640 C   0  0  0  0  0  0  0  0  0  0  0  0
    8.3596   -5.0074   26.6306 C   0  0  0  0  0  0  0  0  0  0  0  0
    9.0420    0.3700   21.5280 C   0  0  0  0  0  0  0  0  0  0  0  0
    8.4719   -6.3982   27.2294 C   0  0  0  0  0  0  0  0  0  0  0  0
    9.9251   -6.7607   27.4801 C   0  0  0  0  0  0  0  0  0  0  0  0
   10.7833   -6.6095   26.2280 C   0  0  0  0  0  0  0  0  0  0  0  0
   10.0539   -5.9100   25.0821 C   0  0  0  0  0  0  0  0  0  0  0  0
    9.8870    1.3260   23.5730 C   0  0  0  0  0  0  0  0  0  0  0  0
    9.4560    0.1560   22.8130 C   0  0  1  0  0  0  0  0  0  0  0  0
    7.6390   -0.2680   18.5410 N   0  0  0  0  0  0  0  0  0  0  0  0
    6.7580    0.3810   17.8350 N   0  0  0  0  0  0  0  0  0  0  0  0
    5.8300    0.9190   18.6970 N   0  0  0  0  0  0  0  0  0  0  0  0
    9.2529   -4.7797   25.5643 N   0  0  0  0  0  0  0  0  0  0  0  0
    8.1890   -0.7180   20.8700 N   0  0  0  0  0  0  0  0  0  0  0  0
    7.4954   -4.2357   27.0448 O   0  0  0  0  0  0  0  0  0  0  0  0
    9.2690    1.4140   20.9380 O   0  0  0  0  0  0  0  0  0  0  0  0
   13.7061    4.2003   21.0880 H   0  0  0  0  0  0  0  0  0  0  0  0
   14.3420    2.3564   22.6212 H   0  0  0  0  0  0  0  0  0  0  0  0
   11.3111    4.7204   20.6996 H   0  0  0  0  0  0  0  0  0  0  0  0
   12.5931    1.0335   23.7640 H   0  0  0  0  0  0  0  0  0  0  0  0
    9.5548    3.4036   21.8376 H   0  0  0  0  0  0  0  0  0  0  0  0
    8.9202   -0.1986   25.4206 H   0  0  0  0  0  0  0  0  0  0  0  0
   10.0631   -2.2319   21.8252 H   0  0  0  0  0  0  0  0  0  0  0  0
    8.6898   -2.3534   26.5810 H   0  0  0  0  0  0  0  0  0  0  0  0
    9.9254   -4.3899   22.9914 H   0  0  0  0  0  0  0  0  0  0  0  0
    5.6855    0.7074   22.1002 H   0  0  0  0  0  0  0  0  0  0  0  0
    3.6634    2.0034   21.6926 H   0  0  0  0  0  0  0  0  0  0  0  0
    3.0111    2.6563   19.3629 H   0  0  0  0  0  0  0  0  0  0  0  0
    4.4370    1.9522   17.4626 H   0  0  0  0  0  0  0  0  0  0  0  0
    7.9324   -6.4149   28.1639 H   0  0  0  0  0  0  0  0  0  0  0  0
    8.0254   -7.0921   26.5330 H   0  0  0  0  0  0  0  0  0  0  0  0
   10.3386   -6.1268   28.2921 H   0  0  0  0  0  0  0  0  0  0  0  0
    9.9903   -7.8025   27.8535 H   0  0  0  0  0  0  0  0  0  0  0  0
   11.7036   -6.0405   26.4770 H   0  0  0  0  0  0  0  0  0  0  0  0
   11.1411   -7.6069   25.8917 H   0  0  0  0  0  0  0  0  0  0  0  0
   10.7783   -5.5162   24.3756 H   0  0  0  0  0  0  0  0  0  0  0  0
    9.4042   -6.6189   24.5805 H   0  0  0  0  0  0  0  0  0  0  0  0
   10.2417    1.0375   24.5711 H   0  0  0  0  0  0  0  0  0  0  0  0
    9.0279    1.9881   23.7492 H   0  0  0  0  0  0  0  0  0  0  0  0
   10.7949   -0.0994   22.4253 H   0  0  0  0  0  0  0  0  0  0  0  0
    8.2585   -1.5522   21.1129 H   0  0  0  0  0  0  0  0  0  0  0  0
  1  2  1  0  0  0  0
  1  3  2  0  0  0  0
  2  4  2  0  0  0  0
  3  5  1  0  0  0  0
  4 10  1  0  0  0  0
  5 10  2  0  0  0  0
  6  8  2  0  0  0  0
  6 11  1  0  0  0  0
  7  9  1  0  0  0  0
  7 11  2  0  0  0  0
  8 12  1  0  0  0  0
  9 12  2  0  0  0  0
 10 25  1  0  0  0  0
 11 26  1  0  0  0  0
 12 30  1  0  0  0  0
 13 14  2  0  0  0  0
 13 15  1  0  0  0  0
 13 29  1  0  0  0  0
 14 27  1  0  0  0  0
 14 31  1  0  0  0  0
 15 16  2  0  0  0  0
 16 17  1  0  0  0  0
 17 18  2  0  0  0  0
 18 29  1  0  0  0  0
 19 21  1  0  0  0  0
 19 30  1  0  0  0  0
 19 32  2  0  0  0  0
 20 26  1  1  0  0  0
 20 31  1  0  0  0  0
 20 33  2  0  0  0  0
 21 22  1  0  0  0  0
 22 23  1  0  0  0  0
 23 24  1  0  0  0  0
 24 30  1  0  0  0  0
 25 26  1  0  0  0  0
 27 28  2  0  0  0  0
 28 29  1  0  0  0  0
  1 34  1  0  0  0  0
  2 35  1  0  0  0  0
  3 36  1  0  0  0  0
  4 37  1  0  0  0  0
  5 38  1  0  0  0  0
  6 39  1  0  0  0  0
  7 40  1  0  0  0  0
  8 41  1  0  0  0  0
  9 42  1  0  0  0  0
 15 43  1  0  0  0  0
 16 44  1  0  0  0  0
 17 45  1  0  0  0  0
 18 46  1  0  0  0  0
 21 47  1  0  0  0  0
 21 48  1  0  0  0  0
 22 49  1  0  0  0  0
 22 50  1  0  0  0  0
 23 51  1  0  0  0  0
 23 52  1  0  0  0  0
 24 53  1  0  0  0  0
 24 54  1  0  0  0  0
 25 55  1  0  0  0  0
 25 56  1  0  0  0  0
 26 57  1  0  0  0  0
 31 58  1  0  0  0  0
M  END
> <clash_score>
1.3959141479736985

> <docking_score>
-8.33901309967041

> <overlap_score>
0.9816223978996277

$$$$
BENZO_272_1
  -OEChem-08222022193D

 55 59  0     1  0  0  0  0  0999 V2000
    9.0720   -1.1280   24.8640 C   0  0  0  0  0  0  0  0  0  0  0  0
    9.7200   -2.2600   22.8630 C   0  0  0  0  0  0  0  0  0  0  0  0
    8.9960   -2.3380   25.5320 C   0  0  0  0  0  0  0  0  0  0  0  0
    9.6730   -3.4710   23.5300 C   0  0  0  0  0  0  0  0  0  0  0  0
   12.3967    0.6931   23.7036 C   0  0  0  0  0  0  0  0  0  0  0  0
   13.4249    0.5732   24.6125 C   0  0  0  0  0  0  0  0  0  0  0  0
   11.3289    1.2940   25.6787 C   0  0  0  0  0  0  0  0  0  0  0  0
    9.3350   -1.0880   23.5010 C   0  0  0  0  0  0  0  0  0  0  0  0
   11.1825    1.1108   24.3212 C   0  0  0  0  0  0  0  0  0  0  0  0
    9.3070   -3.5340   24.8780 C   0  0  0  0  0  0  0  0  0  0  0  0
    6.1790    0.5730   19.9990 C   0  0  0  0  0  0  0  0  0  0  0  0
    7.3170   -0.1610   19.8550 C   0  0  0  0  0  0  0  0  0  0  0  0
    5.4210    0.9600   21.0930 C   0  0  0  0  0  0  0  0  0  0  0  0
    4.2750    1.7050   20.8490 C   0  0  0  0  0  0  0  0  0  0  0  0
    3.9160    2.0630   19.5520 C   0  0  0  0  0  0  0  0  0  0  0  0
    4.6890    1.6810   18.4640 C   0  0  0  0  0  0  0  0  0  0  0  0
    8.3596   -5.0074   26.6306 C   0  0  0  0  0  0  0  0  0  0  0  0
    9.0420    0.3700   21.5280 C   0  0  0  0  0  0  0  0  0  0  0  0
    8.4719   -6.3982   27.2294 C   0  0  0  0  0  0  0  0  0  0  0  0
    9.9251   -6.7607   27.4801 C   0  0  0  0  0  0  0  0  0  0  0  0
   10.7833   -6.6095   26.2280 C   0  0  0  0  0  0  0  0  0  0  0  0
   10.0539   -5.9100   25.0821 C   0  0  0  0  0  0  0  0  0  0  0  0
    9.8870    1.3260   23.5730 C   0  0  0  0  0  0  0  0  0  0  0  0
    9.4560    0.1560   22.8130 C   0  0  1  0  0  0  0  0  0  0  0  0
    7.6390   -0.2680   18.5410 N   0  0  0  0  0  0  0  0  0  0  0  0
    6.7580    0.3810   17.8350 N   0  0  0  0  0  0  0  0  0  0  0  0
    5.8300    0.9190   18.6970 N   0  0  0  0  0  0  0  0  0  0  0  0
    9.2529   -4.7797   25.5643 N   0  0  0  0  0  0  0  0  0  0  0  0
    8.1890   -0.7180   20.8700 N   0  0  0  0  0  0  0  0  0  0  0  0
    7.4954   -4.2357   27.0448 O   0  0  0  0  0  0  0  0  0  0  0  0
    9.2690    1.4140   20.9380 O   0  0  0  0  0  0  0  0  0  0  0  0
   12.9251    0.9632   26.2032 S   0  0  0  0  0  0  0  0  0  0  0  0
    8.9202   -0.1986   25.4206 H   0  0  0  0  0  0  0  0  0  0  0  0
   10.0631   -2.2319   21.8252 H   0  0  0  0  0  0  0  0  0  0  0  0
    8.6898   -2.3534   26.5810 H   0  0  0  0  0  0  0  0  0  0  0  0
    9.9254   -4.3899   22.9914 H   0  0  0  0  0  0  0  0  0  0  0  0
   12.5144    0.4894   22.6467 H   0  0  0  0  0  0  0  0  0  0  0  0
   14.4454    0.2745   24.4187 H   0  0  0  0  0  0  0  0  0  0  0  0
   10.5774    1.6049   26.3912 H   0  0  0  0  0  0  0  0  0  0  0  0
    5.6855    0.7074   22.1002 H   0  0  0  0  0  0  0  0  0  0  0  0
    3.6634    2.0034   21.6926 H   0  0  0  0  0  0  0  0  0  0  0  0
    3.0111    2.6563   19.3629 H   0  0  0  0  0  0  0  0  0  0  0  0
    4.4370    1.9522   17.4626 H   0  0  0  0  0  0  0  0  0  0  0  0
    7.9324   -6.4149   28.1639 H   0  0  0  0  0  0  0  0  0  0  0  0
    8.0254   -7.0921   26.5330 H   0  0  0  0  0  0  0  0  0  0  0  0
   10.3386   -6.1268   28.2921 H   0  0  0  0  0  0  0  0  0  0  0  0
    9.9903   -7.8025   27.8535 H   0  0  0  0  0  0  0  0  0  0  0  0
   11.7036   -6.0405   26.4770 H   0  0  0  0  0  0  0  0  0  0  0  0
   11.1411   -7.6069   25.8917 H   0  0  0  0  0  0  0  0  0  0  0  0
   10.7783   -5.5162   24.3756 H   0  0  0  0  0  0  0  0  0  0  0  0
    9.4042   -6.6189   24.5805 H   0  0  0  0  0  0  0  0  0  0  0  0
    9.1090    1.6445   24.2791 H   0  0  0  0  0  0  0  0  0  0  0  0
   10.0281    2.1767   22.8918 H   0  0  0  0  0  0  0  0  0  0  0  0
   10.7949   -0.0994   22.4253 H   0  0  0  0  0  0  0  0  0  0  0  0
    8.2585   -1.5522   21.1129 H   0  0  0  0  0  0  0  0  0  0  0  0
  1  3  2  0  0  0  0
  1  8  1  0  0  0  0
  2  4  1  0  0  0  0
  2  8  2  0  0  0  0
  3 10  1  0  0  0  0
  4 10  2  0  0  0  0
  5  6  2  0  0  0  0
  5  9  1  0  0  0  0
  6 32  1  0  0  0  0
  7  9  2  0  0  0  0
  7 32  1  0  0  0  0
  8 24  1  0  0  0  0
  9 23  1  0  0  0  0
 10 28  1  0  0  0  0
 11 12  2  0  0  0  0
 11 13  1  0  0  0  0
 11 27  1  0  0  0  0
 12 25  1  0  0  0  0
 12 29  1  0  0  0  0
 13 14  2  0  0  0  0
 14 15  1  0  0  0  0
 15 16  2  0  0  0  0
 16 27  1  0  0  0  0
 17 19  1  0  0  0  0
 17 28  1  0  0  0  0
 17 30  2  0  0  0  0
 18 24  1  1  0  0  0
 18 29  1  0  0  0  0
 18 31  2  0  0  0  0
 19 20  1  0  0  0  0
 20 21  1  0  0  0  0
 21 22  1  0  0  0  0
 22 28  1  0  0  0  0
 23 24  1  0  0  0  0
 25 26  2  0  0  0  0
 26 27  1  0  0  0  0
  1 33  1  0  0  0  0
  2 34  1  0  0  0  0
  3 35  1  0  0  0  0
  4 36  1  0  0  0  0
  5 37  1  0  0  0  0
  6 38  1  0  0  0  0
  7 39  1  0  0  0  0
 13 40  1  0  0  0  0
 14 41  1  0  0  0  0
 15 42  1  0  0  0  0
 16 43  1  0  0  0  0
 19 44  1  0  0  0  0
 19 45  1  0  0  0  0
 20 46  1  0  0  0  0
 20 47  1  0  0  0  0
 21 48  1  0  0  0  0
 21 49  1  0  0  0  0
 22 50  1  0  0  0  0
 22 51  1  0  0  0  0
 23 52  1  0  0  0  0
 23 53  1  0  0  0  0
 24 54  1  0  0  0  0
 29 55  1  0  0  0  0
M  END
> <clash_score>
1.4148822703907502

> <docking_score>
-6.765652656555176

> <overlap_score>
0.9339728951454163

$$$$
BENZO_273_2
  -OEChem-08222022193D

 58 62  0     1  0  0  0  0  0999 V2000
   14.1299    2.0083   23.3926 C   0  0  0  0  0  0  0  0  0  0  0  0
   13.5950    1.2059   24.4004 C   0  0  0  0  0  0  0  0  0  0  0  0
   13.2889    2.5894   22.4436 C   0  0  0  0  0  0  0  0  0  0  0  0
   12.2191    0.9845   24.4591 C   0  0  0  0  0  0  0  0  0  0  0  0
   11.9129    2.3681   22.5023 C   0  0  0  0  0  0  0  0  0  0  0  0
    9.0720   -1.1280   24.8640 C   0  0  0  0  0  0  0  0  0  0  0  0
    9.7200   -2.2600   22.8630 C   0  0  0  0  0  0  0  0  0  0  0  0
    8.9960   -2.3380   25.5320 C   0  0  0  0  0  0  0  0  0  0  0  0
    9.6730   -3.4710   23.5300 C   0  0  0  0  0  0  0  0  0  0  0  0
   11.3780    1.5656   23.5101 C   0  0  0  0  0  0  0  0  0  0  0  0
    9.3350   -1.0880   23.5010 C   0  0  0  0  0  0  0  0  0  0  0  0
    9.3070   -3.5340   24.8780 C   0  0  0  0  0  0  0  0  0  0  0  0
    6.1790    0.5730   19.9990 C   0  0  0  0  0  0  0  0  0  0  0  0
    7.3170   -0.1610   19.8550 C   0  0  0  0  0  0  0  0  0  0  0  0
    5.4210    0.9600   21.0930 C   0  0  0  0  0  0  0  0  0  0  0  0
    4.2750    1.7050   20.8490 C   0  0  0  0  0  0  0  0  0  0  0  0
    3.9160    2.0630   19.5520 C   0  0  0  0  0  0  0  0  0  0  0  0
    4.6890    1.6810   18.4640 C   0  0  0  0  0  0  0  0  0  0  0  0
    8.3596   -5.0074   26.6306 C   0  0  0  0  0  0  0  0  0  0  0  0
    9.0420    0.3700   21.5280 C   0  0  0  0  0  0  0  0  0  0  0  0
    8.4719   -6.3982   27.2294 C   0  0  0  0  0  0  0  0  0  0  0  0
    9.9251   -6.7607   27.4801 C   0  0  0  0  0  0  0  0  0  0  0  0
   10.7833   -6.6095   26.2280 C   0  0  0  0  0  0  0  0  0  0  0  0
   10.0539   -5.9100   25.0821 C   0  0  0  0  0  0  0  0  0  0  0  0
    9.8870    1.3260   23.5730 C   0  0  0  0  0  0  0  0  0  0  0  0
    9.4560    0.1560   22.8130 C   0  0  2  0  0  0  0  0  0  0  0  0
    7.6390   -0.2680   18.5410 N   0  0  0  0  0  0  0  0  0  0  0  0
    6.7580    0.3810   17.8350 N   0  0  0  0  0  0  0  0  0  0  0  0
    5.8300    0.9190   18.6970 N   0  0  0  0  0  0  0  0  0  0  0  0
    9.2529   -4.7797   25.5643 N   0  0  0  0  0  0  0  0  0  0  0  0
    8.1890   -0.7180   20.8700 N   0  0  0  0  0  0  0  0  0  0  0  0
    7.4954   -4.2357   27.0448 O   0  0  0  0  0  0  0  0  0  0  0  0
    9.2690    1.4140   20.9380 O   0  0  0  0  0  0  0  0  0  0  0  0
   15.2011    2.1816   23.3478 H   0  0  0  0  0  0  0  0  0  0  0  0
   14.2496    0.7542   25.1401 H   0  0  0  0  0  0  0  0  0  0  0  0
   13.7049    3.2151   21.6595 H   0  0  0  0  0  0  0  0  0  0  0  0
   11.8112    0.3577   25.2478 H   0  0  0  0  0  0  0  0  0  0  0  0
   11.2654    2.8248   21.7586 H   0  0  0  0  0  0  0  0  0  0  0  0
    8.9202   -0.1986   25.4206 H   0  0  0  0  0  0  0  0  0  0  0  0
   10.0631   -2.2319   21.8252 H   0  0  0  0  0  0  0  0  0  0  0  0
    8.6898   -2.3534   26.5810 H   0  0  0  0  0  0  0  0  0  0  0  0
    9.9254   -4.3899   22.9914 H   0  0  0  0  0  0  0  0  0  0  0  0
    5.6855    0.7074   22.1002 H   0  0  0  0  0  0  0  0  0  0  0  0
    3.6634    2.0034   21.6926 H   0  0  0  0  0  0  0  0  0  0  0  0
    3.0111    2.6563   19.3629 H   0  0  0  0  0  0  0  0  0  0  0  0
    4.4370    1.9522   17.4626 H   0  0  0  0  0  0  0  0  0  0  0  0
    7.9324   -6.4149   28.1639 H   0  0  0  0  0  0  0  0  0  0  0  0
    8.0254   -7.0921   26.5330 H   0  0  0  0  0  0  0  0  0  0  0  0
   10.3386   -6.1268   28.2921 H   0  0  0  0  0  0  0  0  0  0  0  0
    9.9903   -7.8025   27.8535 H   0  0  0  0  0  0  0  0  0  0  0  0
   11.7036   -6.0405   26.4770 H   0  0  0  0  0  0  0  0  0  0  0  0
   11.1411   -7.6069   25.8917 H   0  0  0  0  0  0  0  0  0  0  0  0
   10.7783   -5.5162   24.3756 H   0  0  0  0  0  0  0  0  0  0  0  0
    9.4042   -6.6189   24.5805 H   0  0  0  0  0  0  0  0  0  0  0  0
    9.5761    1.2490   24.6231 H   0  0  0  0  0  0  0  0  0  0  0  0
    9.3845    2.2231   23.1854 H   0  0  0  0  0  0  0  0  0  0  0  0
    8.0674    0.5009   23.2732 H   0  0  0  0  0  0  0  0  0  0  0  0
    8.2585   -1.5522   21.1129 H   0  0  0  0  0  0  0  0  0  0  0  0
  1  2  1  0  0  0  0
  1  3  2  0  0  0  0
  2  4  2  0  0  0  0
  3  5  1  0  0  0  0
  4 10  1  0  0  0  0
  5 10  2  0  0  0  0
  6  8  2  0  0  0  0
  6 11  1  0  0  0  0
  7  9  1  0  0  0  0
  7 11  2  0  0  0  0
  8 12  1  0  0  0  0
  9 12  2  0  0  0  0
 10 25  1  0  0  0  0
 11 26  1  0  0  0  0
 12 30  1  0  0  0  0
 13 14  2  0  0  0  0
 13 15  1  0  0  0  0
 13 29  1  0  0  0  0
 14 27  1  0  0  0  0
 14 31  1  0  0  0  0
 15 16  2  0  0  0  0
 16 17  1  0  0  0  0
 17 18  2  0  0  0  0
 18 29  1  0  0  0  0
 19 21  1  0  0  0  0
 19 30  1  0  0  0  0
 19 32  2  0  0  0  0
 20 26  1  6  0  0  0
 20 31  1  0  0  0  0
 20 33  2  0  0  0  0
 21 22  1  0  0  0  0
 22 23  1  0  0  0  0
 23 24  1  0  0  0  0
 24 30  1  0  0  0  0
 25 26  1  0  0  0  0
 27 28  2  0  0  0  0
 28 29  1  0  0  0  0
  1 34  1  0  0  0  0
  2 35  1  0  0  0  0
  3 36  1  0  0  0  0
  4 37  1  0  0  0  0
  5 38  1  0  0  0  0
  6 39  1  0  0  0  0
  7 40  1  0  0  0  0
  8 41  1  0  0  0  0
  9 42  1  0  0  0  0
 15 43  1  0  0  0  0
 16 44  1  0  0  0  0
 17 45  1  0  0  0  0
 18 46  1  0  0  0  0
 21 47  1  0  0  0  0
 21 48  1  0  0  0  0
 22 49  1  0  0  0  0
 22 50  1  0  0  0  0
 23 51  1  0  0  0  0
 23 52  1  0  0  0  0
 24 53  1  0  0  0  0
 24 54  1  0  0  0  0
 25 55  1  0  0  0  0
 25 56  1  0  0  0  0
 26 57  1  0  0  0  0
 31 58  1  0  0  0  0
M  END
> <clash_score>
0.7790931276820443

> <docking_score>
-8.434060096740723

> <overlap_score>
1.018000602722168

$$$$
BENZO_272_2
  -OEChem-08222022193D

 55 59  0     1  0  0  0  0  0999 V2000
    9.0720   -1.1280   24.8640 C   0  0  0  0  0  0  0  0  0  0  0  0
    9.7200   -2.2600   22.8630 C   0  0  0  0  0  0  0  0  0  0  0  0
    8.9960   -2.3380   25.5320 C   0  0  0  0  0  0  0  0  0  0  0  0
    9.6730   -3.4710   23.5300 C   0  0  0  0  0  0  0  0  0  0  0  0
   12.3482    0.5240   23.4466 C   0  0  0  0  0  0  0  0  0  0  0  0
   13.6337    1.0165   23.3985 C   0  0  0  0  0  0  0  0  0  0  0  0
   11.9591    2.8147   23.5083 C   0  0  0  0  0  0  0  0  0  0  0  0
    9.3350   -1.0880   23.5010 C   0  0  0  0  0  0  0  0  0  0  0  0
   11.3780    1.5656   23.5101 C   0  0  0  0  0  0  0  0  0  0  0  0
    9.3070   -3.5340   24.8780 C   0  0  0  0  0  0  0  0  0  0  0  0
    6.1790    0.5730   19.9990 C   0  0  0  0  0  0  0  0  0  0  0  0
    7.3170   -0.1610   19.8550 C   0  0  0  0  0  0  0  0  0  0  0  0
    5.4210    0.9600   21.0930 C   0  0  0  0  0  0  0  0  0  0  0  0
    4.2750    1.7050   20.8490 C   0  0  0  0  0  0  0  0  0  0  0  0
    3.9160    2.0630   19.5520 C   0  0  0  0  0  0  0  0  0  0  0  0
    4.6890    1.6810   18.4640 C   0  0  0  0  0  0  0  0  0  0  0  0
    8.3596   -5.0074   26.6306 C   0  0  0  0  0  0  0  0  0  0  0  0
    9.0420    0.3700   21.5280 C   0  0  0  0  0  0  0  0  0  0  0  0
    8.4719   -6.3982   27.2294 C   0  0  0  0  0  0  0  0  0  0  0  0
    9.9251   -6.7607   27.4801 C   0  0  0  0  0  0  0  0  0  0  0  0
   10.7833   -6.6095   26.2280 C   0  0  0  0  0  0  0  0  0  0  0  0
   10.0539   -5.9100   25.0821 C   0  0  0  0  0  0  0  0  0  0  0  0
    9.8870    1.3260   23.5730 C   0  0  0  0  0  0  0  0  0  0  0  0
    9.4560    0.1560   22.8130 C   0  0  2  0  0  0  0  0  0  0  0  0
    7.6390   -0.2680   18.5410 N   0  0  0  0  0  0  0  0  0  0  0  0
    6.7580    0.3810   17.8350 N   0  0  0  0  0  0  0  0  0  0  0  0
    5.8300    0.9190   18.6970 N   0  0  0  0  0  0  0  0  0  0  0  0
    9.2529   -4.7797   25.5643 N   0  0  0  0  0  0  0  0  0  0  0  0
    8.1890   -0.7180   20.8700 N   0  0  0  0  0  0  0  0  0  0  0  0
    7.4954   -4.2357   27.0448 O   0  0  0  0  0  0  0  0  0  0  0  0
    9.2690    1.4140   20.9380 O   0  0  0  0  0  0  0  0  0  0  0  0
   13.6675    2.7283   23.4300 S   0  0  0  0  0  0  0  0  0  0  0  0
    8.9202   -0.1986   25.4206 H   0  0  0  0  0  0  0  0  0  0  0  0
   10.0631   -2.2319   21.8252 H   0  0  0  0  0  0  0  0  0  0  0  0
    8.6898   -2.3534   26.5810 H   0  0  0  0  0  0  0  0  0  0  0  0
    9.9254   -4.3899   22.9914 H   0  0  0  0  0  0  0  0  0  0  0  0
   12.1191   -0.5341   23.4370 H   0  0  0  0  0  0  0  0  0  0  0  0
   14.5547    0.4532   23.3470 H   0  0  0  0  0  0  0  0  0  0  0  0
   11.4661    3.7761   23.5503 H   0  0  0  0  0  0  0  0  0  0  0  0
    5.6855    0.7074   22.1002 H   0  0  0  0  0  0  0  0  0  0  0  0
    3.6634    2.0034   21.6926 H   0  0  0  0  0  0  0  0  0  0  0  0
    3.0111    2.6563   19.3629 H   0  0  0  0  0  0  0  0  0  0  0  0
    4.4370    1.9522   17.4626 H   0  0  0  0  0  0  0  0  0  0  0  0
    7.9324   -6.4149   28.1639 H   0  0  0  0  0  0  0  0  0  0  0  0
    8.0254   -7.0921   26.5330 H   0  0  0  0  0  0  0  0  0  0  0  0
   10.3386   -6.1268   28.2921 H   0  0  0  0  0  0  0  0  0  0  0  0
    9.9903   -7.8025   27.8535 H   0  0  0  0  0  0  0  0  0  0  0  0
   11.7036   -6.0405   26.4770 H   0  0  0  0  0  0  0  0  0  0  0  0
   11.1411   -7.6069   25.8917 H   0  0  0  0  0  0  0  0  0  0  0  0
   10.7783   -5.5162   24.3756 H   0  0  0  0  0  0  0  0  0  0  0  0
    9.4042   -6.6189   24.5805 H   0  0  0  0  0  0  0  0  0  0  0  0
    9.5761    1.2490   24.6231 H   0  0  0  0  0  0  0  0  0  0  0  0
    9.3845    2.2231   23.1854 H   0  0  0  0  0  0  0  0  0  0  0  0
    8.0674    0.5009   23.2732 H   0  0  0  0  0  0  0  0  0  0  0  0
    8.2585   -1.5522   21.1129 H   0  0  0  0  0  0  0  0  0  0  0  0
  1  3  2  0  0  0  0
  1  8  1  0  0  0  0
  2  4  1  0  0  0  0
  2  8  2  0  0  0  0
  3 10  1  0  0  0  0
  4 10  2  0  0  0  0
  5  6  2  0  0  0  0
  5  9  1  0  0  0  0
  6 32  1  0  0  0  0
  7  9  2  0  0  0  0
  7 32  1  0  0  0  0
  8 24  1  0  0  0  0
  9 23  1  0  0  0  0
 10 28  1  0  0  0  0
 11 12  2  0  0  0  0
 11 13  1  0  0  0  0
 11 27  1  0  0  0  0
 12 25  1  0  0  0  0
 12 29  1  0  0  0  0
 13 14  2  0  0  0  0
 14 15  1  0  0  0  0
 15 16  2  0  0  0  0
 16 27  1  0  0  0  0
 17 19  1  0  0  0  0
 17 28  1  0  0  0  0
 17 30  2  0  0  0  0
 18 24  1  6  0  0  0
 18 29  1  0  0  0  0
 18 31  2  0  0  0  0
 19 20  1  0  0  0  0
 20 21  1  0  0  0  0
 21 22  1  0  0  0  0
 22 28  1  0  0  0  0
 23 24  1  0  0  0  0
 25 26  2  0  0  0  0
 26 27  1  0  0  0  0
  1 33  1  0  0  0  0
  2 34  1  0  0  0  0
  3 35  1  0  0  0  0
  4 36  1  0  0  0  0
  5 37  1  0  0  0  0
  6 38  1  0  0  0  0
  7 39  1  0  0  0  0
 13 40  1  0  0  0  0
 14 41  1  0  0  0  0
 15 42  1  0  0  0  0
 16 43  1  0  0  0  0
 19 44  1  0  0  0  0
 19 45  1  0  0  0  0
 20 46  1  0  0  0  0
 20 47  1  0  0  0  0
 21 48  1  0  0  0  0
 21 49  1  0  0  0  0
 22 50  1  0  0  0  0
 22 51  1  0  0  0  0
 23 52  1  0  0  0  0
 23 53  1  0  0  0  0
 24 54  1  0  0  0  0
 29 55  1  0  0  0  0
M  END
> <clash_score>
0.7790931276820443

> <docking_score>
-8.8097505569458

> <overlap_score>
1.0096060037612915

$$$$
BENZO_274_1
  -OEChem-08222022193D

 58 62  0     1  0  0  0  0  0999 V2000
    6.3943    2.2386   24.7613 C   0  0  0  0  0  0  0  0  0  0  0  0
    7.4442    1.5740   24.1277 C   0  0  0  0  0  0  0  0  0  0  0  0
    9.0720   -1.1280   24.8640 C   0  0  0  0  0  0  0  0  0  0  0  0
    9.7200   -2.2600   22.8630 C   0  0  0  0  0  0  0  0  0  0  0  0
    8.9960   -2.3380   25.5320 C   0  0  0  0  0  0  0  0  0  0  0  0
    9.6730   -3.4710   23.5300 C   0  0  0  0  0  0  0  0  0  0  0  0
    6.6498    3.3769   25.5260 C   0  0  0  0  0  0  0  0  0  0  0  0
    9.0052    3.1857   25.0236 C   0  0  0  0  0  0  0  0  0  0  0  0
    9.3350   -1.0880   23.5010 C   0  0  0  0  0  0  0  0  0  0  0  0
    8.7497    2.0475   24.2588 C   0  0  0  0  0  0  0  0  0  0  0  0
    9.3070   -3.5340   24.8780 C   0  0  0  0  0  0  0  0  0  0  0  0
    7.9552    3.8504   25.6571 C   0  0  0  0  0  0  0  0  0  0  0  0
    6.1790    0.5730   19.9990 C   0  0  0  0  0  0  0  0  0  0  0  0
    7.3170   -0.1610   19.8550 C   0  0  0  0  0  0  0  0  0  0  0  0
    5.4210    0.9600   21.0930 C   0  0  0  0  0  0  0  0  0  0  0  0
    4.2750    1.7050   20.8490 C   0  0  0  0  0  0  0  0  0  0  0  0
    3.9160    2.0630   19.5520 C   0  0  0  0  0  0  0  0  0  0  0  0
    4.6890    1.6810   18.4640 C   0  0  0  0  0  0  0  0  0  0  0  0
    8.3596   -5.0075   26.6307 C   0  0  0  0  0  0  0  0  0  0  0  0
    9.0420    0.3700   21.5280 C   0  0  0  0  0  0  0  0  0  0  0  0
    8.4579   -6.4048   27.2167 C   0  0  0  0  0  0  0  0  0  0  0  0
    8.4717   -7.4504   26.1157 C   0  0  0  0  0  0  0  0  0  0  0  0
    9.5645   -7.1893   25.0840 C   0  0  0  0  0  0  0  0  0  0  0  0
   10.2327   -5.8252   25.2500 C   0  0  0  0  0  0  0  0  0  0  0  0
    9.8870    1.3260   23.5730 C   0  0  0  0  0  0  0  0  0  0  0  0
    9.4560    0.1560   22.8130 C   0  0  1  0  0  0  0  0  0  0  0  0
    7.6390   -0.2680   18.5410 N   0  0  0  0  0  0  0  0  0  0  0  0
    6.7580    0.3810   17.8350 N   0  0  0  0  0  0  0  0  0  0  0  0
    5.8300    0.9190   18.6970 N   0  0  0  0  0  0  0  0  0  0  0  0
    9.2529   -4.7799   25.5644 N   0  0  0  0  0  0  0  0  0  0  0  0
    8.1890   -0.7180   20.8700 N   0  0  0  0  0  0  0  0  0  0  0  0
    7.5989   -4.1866   27.1423 O   0  0  0  0  0  0  0  0  0  0  0  0
    9.2690    1.4140   20.9380 O   0  0  0  0  0  0  0  0  0  0  0  0
    8.2700    5.2542   26.6017 Cl  0  0  0  0  0  0  0  0  0  0  0  0
    5.3779    1.8695   24.6590 H   0  0  0  0  0  0  0  0  0  0  0  0
    7.2359    0.6877   23.5339 H   0  0  0  0  0  0  0  0  0  0  0  0
    8.9202   -0.1986   25.4206 H   0  0  0  0  0  0  0  0  0  0  0  0
   10.0631   -2.2319   21.8252 H   0  0  0  0  0  0  0  0  0  0  0  0
    8.6898   -2.3534   26.5810 H   0  0  0  0  0  0  0  0  0  0  0  0
    9.9254   -4.3899   22.9914 H   0  0  0  0  0  0  0  0  0  0  0  0
    5.8217    3.8847   26.0144 H   0  0  0  0  0  0  0  0  0  0  0  0
   10.0247    3.5513   25.1223 H   0  0  0  0  0  0  0  0  0  0  0  0
    5.6855    0.7074   22.1002 H   0  0  0  0  0  0  0  0  0  0  0  0
    3.6634    2.0034   21.6926 H   0  0  0  0  0  0  0  0  0  0  0  0
    3.0111    2.6563   19.3629 H   0  0  0  0  0  0  0  0  0  0  0  0
    4.4370    1.9522   17.4626 H   0  0  0  0  0  0  0  0  0  0  0  0
    9.3705   -6.4746   27.7883 H   0  0  0  0  0  0  0  0  0  0  0  0
    7.6054   -6.5499   27.8634 H   0  0  0  0  0  0  0  0  0  0  0  0
    8.6096   -8.4605   26.5547 H   0  0  0  0  0  0  0  0  0  0  0  0
    7.4835   -7.4764   25.6139 H   0  0  0  0  0  0  0  0  0  0  0  0
   10.3359   -7.9850   25.1529 H   0  0  0  0  0  0  0  0  0  0  0  0
    9.1459   -7.2795   24.0580 H   0  0  0  0  0  0  0  0  0  0  0  0
   10.9408   -5.8640   26.0724 H   0  0  0  0  0  0  0  0  0  0  0  0
   10.7522   -5.5631   24.3346 H   0  0  0  0  0  0  0  0  0  0  0  0
   10.4307    2.0325   22.9323 H   0  0  0  0  0  0  0  0  0  0  0  0
   10.6065    1.0196   24.3450 H   0  0  0  0  0  0  0  0  0  0  0  0
   10.7949   -0.0994   22.4253 H   0  0  0  0  0  0  0  0  0  0  0  0
    8.2585   -1.5522   21.1129 H   0  0  0  0  0  0  0  0  0  0  0  0
  1  2  2  0  0  0  0
  1  7  1  0  0  0  0
  2 10  1  0  0  0  0
  3  5  2  0  0  0  0
  3  9  1  0  0  0  0
  4  6  1  0  0  0  0
  4  9  2  0  0  0  0
  5 11  1  0  0  0  0
  6 11  2  0  0  0  0
  7 12  2  0  0  0  0
  8 10  2  0  0  0  0
  8 12  1  0  0  0  0
  9 26  1  0  0  0  0
 10 25  1  0  0  0  0
 11 30  1  0  0  0  0
 12 34  1  0  0  0  0
 13 14  2  0  0  0  0
 13 15  1  0  0  0  0
 13 29  1  0  0  0  0
 14 27  1  0  0  0  0
 14 31  1  0  0  0  0
 15 16  2  0  0  0  0
 16 17  1  0  0  0  0
 17 18  2  0  0  0  0
 18 29  1  0  0  0  0
 19 21  1  0  0  0  0
 19 30  1  0  0  0  0
 19 32  2  0  0  0  0
 20 26  1  1  0  0  0
 20 31  1  0  0  0  0
 20 33  2  0  0  0  0
 21 22  1  0  0  0  0
 22 23  1  0  0  0  0
 23 24  1  0  0  0  0
 24 30  1  0  0  0  0
 25 26  1  0  0  0  0
 27 28  2  0  0  0  0
 28 29  1  0  0  0  0
  1 35  1  0  0  0  0
  2 36  1  0  0  0  0
  3 37  1  0  0  0  0
  4 38  1  0  0  0  0
  5 39  1  0  0  0  0
  6 40  1  0  0  0  0
  7 41  1  0  0  0  0
  8 42  1  0  0  0  0
 15 43  1  0  0  0  0
 16 44  1  0  0  0  0
 17 45  1  0  0  0  0
 18 46  1  0  0  0  0
 21 47  1  0  0  0  0
 21 48  1  0  0  0  0
 22 49  1  0  0  0  0
 22 50  1  0  0  0  0
 23 51  1  0  0  0  0
 23 52  1  0  0  0  0
 24 53  1  0  0  0  0
 24 54  1  0  0  0  0
 25 55  1  0  0  0  0
 25 56  1  0  0  0  0
 26 57  1  0  0  0  0
 31 58  1  0  0  0  0
M  END
> <clash_score>
0.6354372295654396

> <docking_score>
-7.629448413848877

> <overlap_score>
0.8705697059631348

$$$$
BENZO_275_2
  -OEChem-08222022193D

 58 62  0     1  0  0  0  0  0999 V2000
    9.0720   -1.1280   24.8640 C   0  0  0  0  0  0  0  0  0  0  0  0
    9.7200   -2.2600   22.8630 C   0  0  0  0  0  0  0  0  0  0  0  0
    8.9960   -2.3380   25.5320 C   0  0  0  0  0  0  0  0  0  0  0  0
    9.6730   -3.4710   23.5300 C   0  0  0  0  0  0  0  0  0  0  0  0
   12.3549    1.9791   22.9727 C   0  0  0  0  0  0  0  0  0  0  0  0
   10.7877    3.1780   22.0022 C   0  0  0  0  0  0  0  0  0  0  0  0
    9.3350   -1.0880   23.5010 C   0  0  0  0  0  0  0  0  0  0  0  0
   10.9588    2.1320   22.8759 C   0  0  0  0  0  0  0  0  0  0  0  0
    9.3070   -3.5340   24.8780 C   0  0  0  0  0  0  0  0  0  0  0  0
    6.1790    0.5730   19.9990 C   0  0  0  0  0  0  0  0  0  0  0  0
    7.3170   -0.1610   19.8550 C   0  0  0  0  0  0  0  0  0  0  0  0
    5.4210    0.9600   21.0930 C   0  0  0  0  0  0  0  0  0  0  0  0
    4.2750    1.7050   20.8490 C   0  0  0  0  0  0  0  0  0  0  0  0
    3.9160    2.0630   19.5520 C   0  0  0  0  0  0  0  0  0  0  0  0
    4.6890    1.6810   18.4640 C   0  0  0  0  0  0  0  0  0  0  0  0
    8.3596   -5.0074   26.6306 C   0  0  0  0  0  0  0  0  0  0  0  0
    9.0420    0.3700   21.5280 C   0  0  0  0  0  0  0  0  0  0  0  0
    8.4719   -6.3982   27.2294 C   0  0  0  0  0  0  0  0  0  0  0  0
    9.9251   -6.7607   27.4801 C   0  0  0  0  0  0  0  0  0  0  0  0
   10.7833   -6.6095   26.2280 C   0  0  0  0  0  0  0  0  0  0  0  0
   10.0539   -5.9100   25.0821 C   0  0  0  0  0  0  0  0  0  0  0  0
   12.3765    4.6443   20.7356 C   0  0  0  0  0  0  0  0  0  0  0  0
    9.8870    1.3260   23.5730 C   0  0  0  0  0  0  0  0  0  0  0  0
    9.4560    0.1560   22.8130 C   0  0  2  0  0  0  0  0  0  0  0  0
   13.0232    2.8575   22.2206 N   0  0  0  0  0  0  0  0  0  0  0  0
    7.6390   -0.2680   18.5410 N   0  0  0  0  0  0  0  0  0  0  0  0
    6.7580    0.3810   17.8350 N   0  0  0  0  0  0  0  0  0  0  0  0
   12.0428    3.5724   21.6427 N   0  0  0  0  0  0  0  0  0  0  0  0
    5.8300    0.9190   18.6970 N   0  0  0  0  0  0  0  0  0  0  0  0
    9.2529   -4.7797   25.5643 N   0  0  0  0  0  0  0  0  0  0  0  0
    8.1890   -0.7180   20.8700 N   0  0  0  0  0  0  0  0  0  0  0  0
    7.4954   -4.2357   27.0448 O   0  0  0  0  0  0  0  0  0  0  0  0
    9.2690    1.4140   20.9380 O   0  0  0  0  0  0  0  0  0  0  0  0
    8.9202   -0.1986   25.4206 H   0  0  0  0  0  0  0  0  0  0  0  0
   10.0631   -2.2319   21.8252 H   0  0  0  0  0  0  0  0  0  0  0  0
    8.6898   -2.3534   26.5810 H   0  0  0  0  0  0  0  0  0  0  0  0
    9.9254   -4.3899   22.9914 H   0  0  0  0  0  0  0  0  0  0  0  0
   12.9154    1.2645   23.5586 H   0  0  0  0  0  0  0  0  0  0  0  0
    9.9018    3.6623   21.6144 H   0  0  0  0  0  0  0  0  0  0  0  0
    5.6855    0.7074   22.1002 H   0  0  0  0  0  0  0  0  0  0  0  0
    3.6634    2.0034   21.6926 H   0  0  0  0  0  0  0  0  0  0  0  0
    3.0111    2.6563   19.3629 H   0  0  0  0  0  0  0  0  0  0  0  0
    4.4370    1.9522   17.4626 H   0  0  0  0  0  0  0  0  0  0  0  0
    7.9324   -6.4149   28.1639 H   0  0  0  0  0  0  0  0  0  0  0  0
    8.0254   -7.0921   26.5330 H   0  0  0  0  0  0  0  0  0  0  0  0
   10.3386   -6.1268   28.2921 H   0  0  0  0  0  0  0  0  0  0  0  0
    9.9903   -7.8025   27.8535 H   0  0  0  0  0  0  0  0  0  0  0  0
   11.7036   -6.0405   26.4770 H   0  0  0  0  0  0  0  0  0  0  0  0
   11.1411   -7.6069   25.8917 H   0  0  0  0  0  0  0  0  0  0  0  0
   10.7783   -5.5162   24.3756 H   0  0  0  0  0  0  0  0  0  0  0  0
    9.4042   -6.6189   24.5805 H   0  0  0  0  0  0  0  0  0  0  0  0
   12.4727    5.5631   21.3201 H   0  0  0  0  0  0  0  0  0  0  0  0
   13.3178    4.4130   20.2292 H   0  0  0  0  0  0  0  0  0  0  0  0
   11.5839    4.7459   19.9891 H   0  0  0  0  0  0  0  0  0  0  0  0
   10.2417    1.0375   24.5711 H   0  0  0  0  0  0  0  0  0  0  0  0
    9.0279    1.9881   23.7492 H   0  0  0  0  0  0  0  0  0  0  0  0
   10.7949   -0.0994   22.4253 H   0  0  0  0  0  0  0  0  0  0  0  0
    8.2585   -1.5522   21.1129 H   0  0  0  0  0  0  0  0  0  0  0  0
  1  3  2  0  0  0  0
  1  7  1  0  0  0  0
  2  4  1  0  0  0  0
  2  7  2  0  0  0  0
  3  9  1  0  0  0  0
  4  9  2  0  0  0  0
  5  8  1  0  0  0  0
  5 25  2  0  0  0  0
  6  8  2  0  0  0  0
  6 28  1  0  0  0  0
  7 24  1  0  0  0  0
  8 23  1  0  0  0  0
  9 30  1  0  0  0  0
 10 11  2  0  0  0  0
 10 12  1  0  0  0  0
 10 29  1  0  0  0  0
 11 26  1  0  0  0  0
 11 31  1  0  0  0  0
 12 13  2  0  0  0  0
 13 14  1  0  0  0  0
 14 15  2  0  0  0  0
 15 29  1  0  0  0  0
 16 18  1  0  0  0  0
 16 30  1  0  0  0  0
 16 32  2  0  0  0  0
 17 24  1  0  0  0  0
 17 31  1  0  0  0  0
 17 33  2  0  0  0  0
 18 19  1  0  0  0  0
 19 20  1  0  0  0  0
 20 21  1  0  0  0  0
 21 30  1  0  0  0  0
 22 28  1  0  0  0  0
 23 24  1  6  0  0  0
 25 28  1  0  0  0  0
 26 27  2  0  0  0  0
 27 29  1  0  0  0  0
  1 34  1  0  0  0  0
  2 35  1  0  0  0  0
  3 36  1  0  0  0  0
  4 37  1  0  0  0  0
  5 38  1  0  0  0  0
  6 39  1  0  0  0  0
 12 40  1  0  0  0  0
 13 41  1  0  0  0  0
 14 42  1  0  0  0  0
 15 43  1  0  0  0  0
 18 44  1  0  0  0  0
 18 45  1  0  0  0  0
 19 46  1  0  0  0  0
 19 47  1  0  0  0  0
 20 48  1  0  0  0  0
 20 49  1  0  0  0  0
 21 50  1  0  0  0  0
 21 51  1  0  0  0  0
 22 52  1  0  0  0  0
 22 53  1  0  0  0  0
 22 54  1  0  0  0  0
 23 55  1  0  0  0  0
 23 56  1  0  0  0  0
 24 57  1  0  0  0  0
 31 58  1  0  0  0  0
M  END
> <clash_score>
0.7790931276820443

> <docking_score>
-7.102807998657227

> <overlap_score>
0.974953293800354

$$$$
BENZO_277_1
  -OEChem-08222022193D

 57 61  0     1  0  0  0  0  0999 V2000
   12.9362    3.6202   21.5882 C   0  0  0  0  0  0  0  0  0  0  0  0
   13.2938    2.5837   22.4503 C   0  0  0  0  0  0  0  0  0  0  0  0
   11.5898    3.9128   21.3700 C   0  0  0  0  0  0  0  0  0  0  0  0
   12.3051    1.8396   23.0941 C   0  0  0  0  0  0  0  0  0  0  0  0
   10.6012    3.1687   22.0138 C   0  0  0  0  0  0  0  0  0  0  0  0
    9.0720   -1.1280   24.8640 C   0  0  0  0  0  0  0  0  0  0  0  0
    9.7200   -2.2600   22.8630 C   0  0  0  0  0  0  0  0  0  0  0  0
    8.9960   -2.3380   25.5320 C   0  0  0  0  0  0  0  0  0  0  0  0
    9.6730   -3.4710   23.5300 C   0  0  0  0  0  0  0  0  0  0  0  0
   10.9588    2.1320   22.8759 C   0  0  0  0  0  0  0  0  0  0  0  0
    9.3350   -1.0880   23.5010 C   0  0  0  0  0  0  0  0  0  0  0  0
    9.3070   -3.5340   24.8780 C   0  0  0  0  0  0  0  0  0  0  0  0
    6.1790    0.5730   19.9990 C   0  0  0  0  0  0  0  0  0  0  0  0
    7.3170   -0.1610   19.8550 C   0  0  0  0  0  0  0  0  0  0  0  0
    5.4210    0.9600   21.0930 C   0  0  0  0  0  0  0  0  0  0  0  0
    4.2750    1.7050   20.8490 C   0  0  0  0  0  0  0  0  0  0  0  0
    3.9160    2.0630   19.5520 C   0  0  0  0  0  0  0  0  0  0  0  0
    4.6890    1.6810   18.4640 C   0  0  0  0  0  0  0  0  0  0  0  0
    9.0420    0.3700   21.5280 C   0  0  0  0  0  0  0  0  0  0  0  0
    9.5176   -4.8600   26.9769 C   0  0  0  0  0  0  0  0  0  0  0  0
    8.5166   -5.8725   24.9805 C   0  0  0  0  0  0  0  0  0  0  0  0
    8.1870   -5.0443   27.6986 C   0  0  0  0  0  0  0  0  0  0  0  0
    7.2201   -6.0348   25.7753 C   0  0  0  0  0  0  0  0  0  0  0  0
    9.8870    1.3260   23.5730 C   0  0  0  0  0  0  0  0  0  0  0  0
    9.4560    0.1560   22.8130 C   0  0  1  0  0  0  0  0  0  0  0  0
    7.6390   -0.2680   18.5410 N   0  0  0  0  0  0  0  0  0  0  0  0
    6.7580    0.3810   17.8350 N   0  0  0  0  0  0  0  0  0  0  0  0
    5.8300    0.9190   18.6970 N   0  0  0  0  0  0  0  0  0  0  0  0
    9.2564   -4.7368   25.5411 N   0  0  0  0  0  0  0  0  0  0  0  0
    8.1890   -0.7180   20.8700 N   0  0  0  0  0  0  0  0  0  0  0  0
    9.2690    1.4140   20.9380 O   0  0  0  0  0  0  0  0  0  0  0  0
    7.4995   -6.1856   27.1717 O   0  0  0  0  0  0  0  0  0  0  0  0
   13.7061    4.2004   21.0880 H   0  0  0  0  0  0  0  0  0  0  0  0
   14.3420    2.3564   22.6212 H   0  0  0  0  0  0  0  0  0  0  0  0
   11.3111    4.7205   20.6997 H   0  0  0  0  0  0  0  0  0  0  0  0
   12.5931    1.0336   23.7640 H   0  0  0  0  0  0  0  0  0  0  0  0
    9.5548    3.4036   21.8376 H   0  0  0  0  0  0  0  0  0  0  0  0
    8.9214   -0.1986   25.4206 H   0  0  0  0  0  0  0  0  0  0  0  0
   10.0622   -2.2326   21.8251 H   0  0  0  0  0  0  0  0  0  0  0  0
    8.6882   -2.3542   26.5803 H   0  0  0  0  0  0  0  0  0  0  0  0
    9.9258   -4.3896   22.9914 H   0  0  0  0  0  0  0  0  0  0  0  0
    5.6855    0.7074   22.1002 H   0  0  0  0  0  0  0  0  0  0  0  0
    3.6634    2.0034   21.6926 H   0  0  0  0  0  0  0  0  0  0  0  0
    3.0111    2.6563   19.3629 H   0  0  0  0  0  0  0  0  0  0  0  0
    4.4370    1.9522   17.4626 H   0  0  0  0  0  0  0  0  0  0  0  0
   10.0207   -3.9702   27.3608 H   0  0  0  0  0  0  0  0  0  0  0  0
   10.1536   -5.7313   27.1546 H   0  0  0  0  0  0  0  0  0  0  0  0
    9.1181   -6.7774   25.0751 H   0  0  0  0  0  0  0  0  0  0  0  0
    8.2812   -5.7063   23.9302 H   0  0  0  0  0  0  0  0  0  0  0  0
    8.3631   -5.2257   28.7609 H   0  0  0  0  0  0  0  0  0  0  0  0
    7.5532   -4.1574   27.6103 H   0  0  0  0  0  0  0  0  0  0  0  0
    6.5460   -5.1840   25.6220 H   0  0  0  0  0  0  0  0  0  0  0  0
    6.6948   -6.9355   25.4433 H   0  0  0  0  0  0  0  0  0  0  0  0
   10.2417    1.0375   24.5711 H   0  0  0  0  0  0  0  0  0  0  0  0
    9.0279    1.9881   23.7492 H   0  0  0  0  0  0  0  0  0  0  0  0
   10.7949   -0.0994   22.4253 H   0  0  0  0  0  0  0  0  0  0  0  0
    8.2585   -1.5522   21.1129 H   0  0  0  0  0  0  0  0  0  0  0  0
  1  2  1  0  0  0  0
  1  3  2  0  0  0  0
  2  4  2  0  0  0  0
  3  5  1  0  0  0  0
  4 10  1  0  0  0  0
  5 10  2  0  0  0  0
  6  8  2  0  0  0  0
  6 11  1  0  0  0  0
  7  9  1  0  0  0  0
  7 11  2  0  0  0  0
  8 12  1  0  0  0  0
  9 12  2  0  0  0  0
 10 24  1  0  0  0  0
 11 25  1  0  0  0  0
 12 29  1  0  0  0  0
 13 14  2  0  0  0  0
 13 15  1  0  0  0  0
 13 28  1  0  0  0  0
 14 26  1  0  0  0  0
 14 30  1  0  0  0  0
 15 16  2  0  0  0  0
 16 17  1  0  0  0  0
 17 18  2  0  0  0  0
 18 28  1  0  0  0  0
 19 25  1  1  0  0  0
 19 30  1  0  0  0  0
 19 31  2  0  0  0  0
 20 22  1  0  0  0  0
 20 29  1  0  0  0  0
 21 23  1  0  0  0  0
 21 29  1  0  0  0  0
 22 32  1  0  0  0  0
 23 32  1  0  0  0  0
 24 25  1  0  0  0  0
 26 27  2  0  0  0  0
 27 28  1  0  0  0  0
  1 33  1  0  0  0  0
  2 34  1  0  0  0  0
  3 35  1  0  0  0  0
  4 36  1  0  0  0  0
  5 37  1  0  0  0  0
  6 38  1  0  0  0  0
  7 39  1  0  0  0  0
  8 40  1  0  0  0  0
  9 41  1  0  0  0  0
 15 42  1  0  0  0  0
 16 43  1  0  0  0  0
 17 44  1  0  0  0  0
 18 45  1  0  0  0  0
 20 46  1  0  0  0  0
 20 47  1  0  0  0  0
 21 48  1  0  0  0  0
 21 49  1  0  0  0  0
 22 50  1  0  0  0  0
 22 51  1  0  0  0  0
 23 52  1  0  0  0  0
 23 53  1  0  0  0  0
 24 54  1  0  0  0  0
 24 55  1  0  0  0  0
 25 56  1  0  0  0  0
 30 57  1  0  0  0  0
M  END
> <clash_score>
0.6168218093390128

> <docking_score>
-9.282829284667969

> <overlap_score>
0.9715526103973389

$$$$
BENZO_275_1
  -OEChem-08222022193D

 58 62  0     1  0  0  0  0  0999 V2000
    9.0720   -1.1280   24.8640 C   0  0  0  0  0  0  0  0  0  0  0  0
    9.7200   -2.2600   22.8630 C   0  0  0  0  0  0  0  0  0  0  0  0
    8.9960   -2.3380   25.5320 C   0  0  0  0  0  0  0  0  0  0  0  0
    9.6730   -3.4710   23.5300 C   0  0  0  0  0  0  0  0  0  0  0  0
   12.0594    2.7949   23.5898 C   0  0  0  0  0  0  0  0  0  0  0  0
   12.3731    0.6302   23.3648 C   0  0  0  0  0  0  0  0  0  0  0  0
    9.3350   -1.0880   23.5010 C   0  0  0  0  0  0  0  0  0  0  0  0
   11.3780    1.5656   23.5101 C   0  0  0  0  0  0  0  0  0  0  0  0
    9.3070   -3.5340   24.8780 C   0  0  0  0  0  0  0  0  0  0  0  0
    6.1790    0.5730   19.9990 C   0  0  0  0  0  0  0  0  0  0  0  0
    7.3170   -0.1610   19.8550 C   0  0  0  0  0  0  0  0  0  0  0  0
    5.4210    0.9600   21.0930 C   0  0  0  0  0  0  0  0  0  0  0  0
    4.2750    1.7050   20.8490 C   0  0  0  0  0  0  0  0  0  0  0  0
    3.9160    2.0630   19.5520 C   0  0  0  0  0  0  0  0  0  0  0  0
    4.6890    1.6810   18.4640 C   0  0  0  0  0  0  0  0  0  0  0  0
    8.3596   -5.0074   26.6306 C   0  0  0  0  0  0  0  0  0  0  0  0
    9.0420    0.3700   21.5280 C   0  0  0  0  0  0  0  0  0  0  0  0
    8.4719   -6.3982   27.2294 C   0  0  0  0  0  0  0  0  0  0  0  0
    9.9251   -6.7607   27.4801 C   0  0  0  0  0  0  0  0  0  0  0  0
   10.7833   -6.6095   26.2280 C   0  0  0  0  0  0  0  0  0  0  0  0
   10.0539   -5.9100   25.0821 C   0  0  0  0  0  0  0  0  0  0  0  0
   14.8715    0.7755   23.2395 C   0  0  0  0  0  0  0  0  0  0  0  0
    9.8870    1.3260   23.5730 C   0  0  0  0  0  0  0  0  0  0  0  0
    9.4560    0.1560   22.8130 C   0  0  1  0  0  0  0  0  0  0  0  0
   13.3850    2.6562   23.5025 N   0  0  0  0  0  0  0  0  0  0  0  0
    7.6390   -0.2680   18.5410 N   0  0  0  0  0  0  0  0  0  0  0  0
    6.7580    0.3810   17.8350 N   0  0  0  0  0  0  0  0  0  0  0  0
   13.5445    1.3287   23.3665 N   0  0  0  0  0  0  0  0  0  0  0  0
    5.8300    0.9190   18.6970 N   0  0  0  0  0  0  0  0  0  0  0  0
    9.2529   -4.7797   25.5643 N   0  0  0  0  0  0  0  0  0  0  0  0
    8.1890   -0.7180   20.8700 N   0  0  0  0  0  0  0  0  0  0  0  0
    7.4954   -4.2357   27.0448 O   0  0  0  0  0  0  0  0  0  0  0  0
    9.2690    1.4140   20.9380 O   0  0  0  0  0  0  0  0  0  0  0  0
    8.9202   -0.1986   25.4206 H   0  0  0  0  0  0  0  0  0  0  0  0
   10.0631   -2.2319   21.8252 H   0  0  0  0  0  0  0  0  0  0  0  0
    8.6898   -2.3534   26.5810 H   0  0  0  0  0  0  0  0  0  0  0  0
    9.9254   -4.3899   22.9914 H   0  0  0  0  0  0  0  0  0  0  0  0
   11.6476    3.7871   23.7087 H   0  0  0  0  0  0  0  0  0  0  0  0
   12.3482   -0.4465   23.2641 H   0  0  0  0  0  0  0  0  0  0  0  0
    5.6855    0.7074   22.1002 H   0  0  0  0  0  0  0  0  0  0  0  0
    3.6634    2.0034   21.6926 H   0  0  0  0  0  0  0  0  0  0  0  0
    3.0111    2.6563   19.3629 H   0  0  0  0  0  0  0  0  0  0  0  0
    4.4370    1.9522   17.4626 H   0  0  0  0  0  0  0  0  0  0  0  0
    7.9324   -6.4149   28.1639 H   0  0  0  0  0  0  0  0  0  0  0  0
    8.0254   -7.0921   26.5330 H   0  0  0  0  0  0  0  0  0  0  0  0
   10.3386   -6.1268   28.2921 H   0  0  0  0  0  0  0  0  0  0  0  0
    9.9903   -7.8025   27.8535 H   0  0  0  0  0  0  0  0  0  0  0  0
   11.7036   -6.0405   26.4770 H   0  0  0  0  0  0  0  0  0  0  0  0
   11.1411   -7.6069   25.8917 H   0  0  0  0  0  0  0  0  0  0  0  0
   10.7783   -5.5162   24.3756 H   0  0  0  0  0  0  0  0  0  0  0  0
    9.4042   -6.6189   24.5805 H   0  0  0  0  0  0  0  0  0  0  0  0
   15.1240    0.7455   22.1763 H   0  0  0  0  0  0  0  0  0  0  0  0
   15.5818    1.4044   23.7835 H   0  0  0  0  0  0  0  0  0  0  0  0
   14.8855   -0.2315   23.6655 H   0  0  0  0  0  0  0  0  0  0  0  0
    9.5761    1.2490   24.6231 H   0  0  0  0  0  0  0  0  0  0  0  0
    9.3845    2.2231   23.1854 H   0  0  0  0  0  0  0  0  0  0  0  0
    8.0674    0.5009   23.2732 H   0  0  0  0  0  0  0  0  0  0  0  0
    8.2585   -1.5522   21.1129 H   0  0  0  0  0  0  0  0  0  0  0  0
  1  3  2  0  0  0  0
  1  7  1  0  0  0  0
  2  4  1  0  0  0  0
  2  7  2  0  0  0  0
  3  9  1  0  0  0  0
  4  9  2  0  0  0  0
  5  8  1  0  0  0  0
  5 25  2  0  0  0  0
  6  8  2  0  0  0  0
  6 28  1  0  0  0  0
  7 24  1  0  0  0  0
  8 23  1  0  0  0  0
  9 30  1  0  0  0  0
 10 11  2  0  0  0  0
 10 12  1  0  0  0  0
 10 29  1  0  0  0  0
 11 26  1  0  0  0  0
 11 31  1  0  0  0  0
 12 13  2  0  0  0  0
 13 14  1  0  0  0  0
 14 15  2  0  0  0  0
 15 29  1  0  0  0  0
 16 18  1  0  0  0  0
 16 30  1  0  0  0  0
 16 32  2  0  0  0  0
 17 24  1  0  0  0  0
 17 31  1  0  0  0  0
 17 33  2  0  0  0  0
 18 19  1  0  0  0  0
 19 20  1  0  0  0  0
 20 21  1  0  0  0  0
 21 30  1  0  0  0  0
 22 28  1  0  0  0  0
 23 24  1  1  0  0  0
 25 28  1  0  0  0  0
 26 27  2  0  0  0  0
 27 29  1  0  0  0  0
  1 34  1  0  0  0  0
  2 35  1  0  0  0  0
  3 36  1  0  0  0  0
  4 37  1  0  0  0  0
  5 38  1  0  0  0  0
  6 39  1  0  0  0  0
 12 40  1  0  0  0  0
 13 41  1  0  0  0  0
 14 42  1  0  0  0  0
 15 43  1  0  0  0  0
 18 44  1  0  0  0  0
 18 45  1  0  0  0  0
 19 46  1  0  0  0  0
 19 47  1  0  0  0  0
 20 48  1  0  0  0  0
 20 49  1  0  0  0  0
 21 50  1  0  0  0  0
 21 51  1  0  0  0  0
 22 52  1  0  0  0  0
 22 53  1  0  0  0  0
 22 54  1  0  0  0  0
 23 55  1  0  0  0  0
 23 56  1  0  0  0  0
 24 57  1  0  0  0  0
 31 58  1  0  0  0  0
M  END
> <clash_score>
0.7790931276820443

> <docking_score>
-8.358628273010254

> <overlap_score>
1.0254992246627808

$$$$
BENZO_274_2
  -OEChem-08222022193D

 58 62  0     1  0  0  0  0  0999 V2000
   13.6270    0.7091   23.2980 C   0  0  0  0  0  0  0  0  0  0  0  0
   12.2510    0.4885   23.3573 C   0  0  0  0  0  0  0  0  0  0  0  0
    9.0720   -1.1280   24.8640 C   0  0  0  0  0  0  0  0  0  0  0  0
    9.7200   -2.2600   22.8630 C   0  0  0  0  0  0  0  0  0  0  0  0
    8.9960   -2.3380   25.5320 C   0  0  0  0  0  0  0  0  0  0  0  0
    9.6730   -3.4710   23.5300 C   0  0  0  0  0  0  0  0  0  0  0  0
   14.1301    2.0067   23.3917 C   0  0  0  0  0  0  0  0  0  0  0  0
   11.8810    2.8633   23.6037 C   0  0  0  0  0  0  0  0  0  0  0  0
    9.3350   -1.0880   23.5010 C   0  0  0  0  0  0  0  0  0  0  0  0
   11.3780    1.5656   23.5101 C   0  0  0  0  0  0  0  0  0  0  0  0
    9.3070   -3.5340   24.8780 C   0  0  0  0  0  0  0  0  0  0  0  0
   13.2571    3.0838   23.5445 C   0  0  0  0  0  0  0  0  0  0  0  0
    6.1790    0.5730   19.9990 C   0  0  0  0  0  0  0  0  0  0  0  0
    7.3170   -0.1610   19.8550 C   0  0  0  0  0  0  0  0  0  0  0  0
    5.4210    0.9600   21.0930 C   0  0  0  0  0  0  0  0  0  0  0  0
    4.2750    1.7050   20.8490 C   0  0  0  0  0  0  0  0  0  0  0  0
    3.9160    2.0630   19.5520 C   0  0  0  0  0  0  0  0  0  0  0  0
    4.6890    1.6810   18.4640 C   0  0  0  0  0  0  0  0  0  0  0  0
    8.3596   -5.0074   26.6306 C   0  0  0  0  0  0  0  0  0  0  0  0
    9.0420    0.3700   21.5280 C   0  0  0  0  0  0  0  0  0  0  0  0
    8.4719   -6.3982   27.2294 C   0  0  0  0  0  0  0  0  0  0  0  0
    9.9251   -6.7607   27.4801 C   0  0  0  0  0  0  0  0  0  0  0  0
   10.7833   -6.6095   26.2280 C   0  0  0  0  0  0  0  0  0  0  0  0
   10.0539   -5.9100   25.0821 C   0  0  0  0  0  0  0  0  0  0  0  0
    9.8870    1.3260   23.5730 C   0  0  0  0  0  0  0  0  0  0  0  0
    9.4560    0.1560   22.8130 C   0  0  2  0  0  0  0  0  0  0  0  0
    7.6390   -0.2680   18.5410 N   0  0  0  0  0  0  0  0  0  0  0  0
    6.7580    0.3810   17.8350 N   0  0  0  0  0  0  0  0  0  0  0  0
    5.8300    0.9190   18.6970 N   0  0  0  0  0  0  0  0  0  0  0  0
    9.2529   -4.7797   25.5643 N   0  0  0  0  0  0  0  0  0  0  0  0
    8.1890   -0.7180   20.8700 N   0  0  0  0  0  0  0  0  0  0  0  0
    7.4954   -4.2357   27.0448 O   0  0  0  0  0  0  0  0  0  0  0  0
    9.2690    1.4140   20.9380 O   0  0  0  0  0  0  0  0  0  0  0  0
   13.8782    4.6847   23.6587 Cl  0  0  0  0  0  0  0  0  0  0  0  0
   14.3065   -0.1300   23.1789 H   0  0  0  0  0  0  0  0  0  0  0  0
   11.8679   -0.5259   23.2834 H   0  0  0  0  0  0  0  0  0  0  0  0
    8.9202   -0.1986   25.4206 H   0  0  0  0  0  0  0  0  0  0  0  0
   10.0631   -2.2319   21.8252 H   0  0  0  0  0  0  0  0  0  0  0  0
    8.6898   -2.3534   26.5810 H   0  0  0  0  0  0  0  0  0  0  0  0
    9.9254   -4.3899   22.9914 H   0  0  0  0  0  0  0  0  0  0  0  0
   15.2048    2.1637   23.3436 H   0  0  0  0  0  0  0  0  0  0  0  0
   11.1962    3.6997   23.7233 H   0  0  0  0  0  0  0  0  0  0  0  0
    5.6855    0.7074   22.1002 H   0  0  0  0  0  0  0  0  0  0  0  0
    3.6634    2.0034   21.6926 H   0  0  0  0  0  0  0  0  0  0  0  0
    3.0111    2.6563   19.3629 H   0  0  0  0  0  0  0  0  0  0  0  0
    4.4370    1.9522   17.4626 H   0  0  0  0  0  0  0  0  0  0  0  0
    7.9324   -6.4149   28.1639 H   0  0  0  0  0  0  0  0  0  0  0  0
    8.0254   -7.0921   26.5330 H   0  0  0  0  0  0  0  0  0  0  0  0
   10.3386   -6.1268   28.2921 H   0  0  0  0  0  0  0  0  0  0  0  0
    9.9903   -7.8025   27.8535 H   0  0  0  0  0  0  0  0  0  0  0  0
   11.7036   -6.0405   26.4770 H   0  0  0  0  0  0  0  0  0  0  0  0
   11.1411   -7.6069   25.8917 H   0  0  0  0  0  0  0  0  0  0  0  0
   10.7783   -5.5162   24.3756 H   0  0  0  0  0  0  0  0  0  0  0  0
    9.4042   -6.6189   24.5805 H   0  0  0  0  0  0  0  0  0  0  0  0
    9.5761    1.2490   24.6231 H   0  0  0  0  0  0  0  0  0  0  0  0
    9.3844    2.2231   23.1854 H   0  0  0  0  0  0  0  0  0  0  0  0
    8.0674    0.5009   23.2732 H   0  0  0  0  0  0  0  0  0  0  0  0
    8.2585   -1.5522   21.1129 H   0  0  0  0  0  0  0  0  0  0  0  0
  1  2  2  0  0  0  0
  1  7  1  0  0  0  0
  2 10  1  0  0  0  0
  3  5  2  0  0  0  0
  3  9  1  0  0  0  0
  4  6  1  0  0  0  0
  4  9  2  0  0  0  0
  5 11  1  0  0  0  0
  6 11  2  0  0  0  0
  7 12  2  0  0  0  0
  8 10  2  0  0  0  0
  8 12  1  0  0  0  0
  9 26  1  0  0  0  0
 10 25  1  0  0  0  0
 11 30  1  0  0  0  0
 12 34  1  0  0  0  0
 13 14  2  0  0  0  0
 13 15  1  0  0  0  0
 13 29  1  0  0  0  0
 14 27  1  0  0  0  0
 14 31  1  0  0  0  0
 15 16  2  0  0  0  0
 16 17  1  0  0  0  0
 17 18  2  0  0  0  0
 18 29  1  0  0  0  0
 19 21  1  0  0  0  0
 19 30  1  0  0  0  0
 19 32  2  0  0  0  0
 20 26  1  6  0  0  0
 20 31  1  0  0  0  0
 20 33  2  0  0  0  0
 21 22  1  0  0  0  0
 22 23  1  0  0  0  0
 23 24  1  0  0  0  0
 24 30  1  0  0  0  0
 25 26  1  0  0  0  0
 27 28  2  0  0  0  0
 28 29  1  0  0  0  0
  1 35  1  0  0  0  0
  2 36  1  0  0  0  0
  3 37  1  0  0  0  0
  4 38  1  0  0  0  0
  5 39  1  0  0  0  0
  6 40  1  0  0  0  0
  7 41  1  0  0  0  0
  8 42  1  0  0  0  0
 15 43  1  0  0  0  0
 16 44  1  0  0  0  0
 17 45  1  0  0  0  0
 18 46  1  0  0  0  0
 21 47  1  0  0  0  0
 21 48  1  0  0  0  0
 22 49  1  0  0  0  0
 22 50  1  0  0  0  0
 23 51  1  0  0  0  0
 23 52  1  0  0  0  0
 24 53  1  0  0  0  0
 24 54  1  0  0  0  0
 25 55  1  0  0  0  0
 25 56  1  0  0  0  0
 26 57  1  0  0  0  0
 31 58  1  0  0  0  0
M  END
> <clash_score>
0.7790931276820443

> <docking_score>
-8.048887252807617

> <overlap_score>
1.0263028144836426

$$$$
BENZO_277_2
  -OEChem-08222022193D

 57 61  0     1  0  0  0  0  0999 V2000
   14.1302    2.0067   23.3945 C   0  0  0  0  0  0  0  0  0  0  0  0
   13.2571    3.0838   23.5461 C   0  0  0  0  0  0  0  0  0  0  0  0
   13.6272    0.7090   23.3006 C   0  0  0  0  0  0  0  0  0  0  0  0
   11.8810    2.8633   23.6040 C   0  0  0  0  0  0  0  0  0  0  0  0
   12.2511    0.4885   23.3584 C   0  0  0  0  0  0  0  0  0  0  0  0
    9.0720   -1.1280   24.8640 C   0  0  0  0  0  0  0  0  0  0  0  0
    9.7200   -2.2600   22.8630 C   0  0  0  0  0  0  0  0  0  0  0  0
    8.9960   -2.3380   25.5320 C   0  0  0  0  0  0  0  0  0  0  0  0
    9.6730   -3.4710   23.5300 C   0  0  0  0  0  0  0  0  0  0  0  0
   11.3780    1.5657   23.5101 C   0  0  0  0  0  0  0  0  0  0  0  0
    9.3350   -1.0880   23.5010 C   0  0  0  0  0  0  0  0  0  0  0  0
    9.3070   -3.5340   24.8780 C   0  0  0  0  0  0  0  0  0  0  0  0
    6.1790    0.5730   19.9990 C   0  0  0  0  0  0  0  0  0  0  0  0
    7.3170   -0.1610   19.8550 C   0  0  0  0  0  0  0  0  0  0  0  0
    5.4210    0.9600   21.0930 C   0  0  0  0  0  0  0  0  0  0  0  0
    4.2750    1.7050   20.8490 C   0  0  0  0  0  0  0  0  0  0  0  0
    3.9160    2.0630   19.5520 C   0  0  0  0  0  0  0  0  0  0  0  0
    4.6890    1.6810   18.4640 C   0  0  0  0  0  0  0  0  0  0  0  0
    9.0420    0.3700   21.5280 C   0  0  0  0  0  0  0  0  0  0  0  0
   10.0772   -5.0257   26.7191 C   0  0  0  0  0  0  0  0  0  0  0  0
    8.0927   -5.6196   25.4069 C   0  0  0  0  0  0  0  0  0  0  0  0
    9.1935   -4.9431   27.9590 C   0  0  0  0  0  0  0  0  0  0  0  0
    7.2758   -5.5292   26.6966 C   0  0  0  0  0  0  0  0  0  0  0  0
    9.8870    1.3260   23.5730 C   0  0  0  0  0  0  0  0  0  0  0  0
    9.4560    0.1560   22.8130 C   0  0  2  0  0  0  0  0  0  0  0  0
    7.6390   -0.2680   18.5410 N   0  0  0  0  0  0  0  0  0  0  0  0
    6.7580    0.3810   17.8350 N   0  0  0  0  0  0  0  0  0  0  0  0
    5.8300    0.9190   18.6970 N   0  0  0  0  0  0  0  0  0  0  0  0
    9.2564   -4.7368   25.5411 N   0  0  0  0  0  0  0  0  0  0  0  0
    8.1890   -0.7180   20.8700 N   0  0  0  0  0  0  0  0  0  0  0  0
    9.2690    1.4140   20.9380 O   0  0  0  0  0  0  0  0  0  0  0  0
    8.0884   -5.8462   27.8322 O   0  0  0  0  0  0  0  0  0  0  0  0
   15.2016    2.1786   23.3481 H   0  0  0  0  0  0  0  0  0  0  0  0
   13.6485    4.0944   23.6181 H   0  0  0  0  0  0  0  0  0  0  0  0
   14.3067   -0.1298   23.1814 H   0  0  0  0  0  0  0  0  0  0  0  0
   11.2082    3.7086   23.7225 H   0  0  0  0  0  0  0  0  0  0  0  0
   11.8683   -0.5260   23.2846 H   0  0  0  0  0  0  0  0  0  0  0  0
    8.9214   -0.1986   25.4206 H   0  0  0  0  0  0  0  0  0  0  0  0
   10.0622   -2.2326   21.8251 H   0  0  0  0  0  0  0  0  0  0  0  0
    8.6882   -2.3542   26.5803 H   0  0  0  0  0  0  0  0  0  0  0  0
    9.9258   -4.3896   22.9914 H   0  0  0  0  0  0  0  0  0  0  0  0
    5.6855    0.7074   22.1002 H   0  0  0  0  0  0  0  0  0  0  0  0
    3.6634    2.0034   21.6926 H   0  0  0  0  0  0  0  0  0  0  0  0
    3.0111    2.6563   19.3629 H   0  0  0  0  0  0  0  0  0  0  0  0
    4.4370    1.9522   17.4626 H   0  0  0  0  0  0  0  0  0  0  0  0
   10.8986   -4.3117   26.8083 H   0  0  0  0  0  0  0  0  0  0  0  0
   10.4916   -6.0336   26.6319 H   0  0  0  0  0  0  0  0  0  0  0  0
    8.4328   -6.6457   25.2617 H   0  0  0  0  0  0  0  0  0  0  0  0
    7.4726   -5.3240   24.5618 H   0  0  0  0  0  0  0  0  0  0  0  0
    9.7638   -5.2402   28.8416 H   0  0  0  0  0  0  0  0  0  0  0  0
    8.8238   -3.9272   28.1248 H   0  0  0  0  0  0  0  0  0  0  0  0
    6.8340   -4.5339   26.8232 H   0  0  0  0  0  0  0  0  0  0  0  0
    6.4551   -6.2523   26.6641 H   0  0  0  0  0  0  0  0  0  0  0  0
    9.5760    1.2490   24.6231 H   0  0  0  0  0  0  0  0  0  0  0  0
    9.3844    2.2230   23.1853 H   0  0  0  0  0  0  0  0  0  0  0  0
    8.0674    0.5009   23.2732 H   0  0  0  0  0  0  0  0  0  0  0  0
    8.2585   -1.5522   21.1129 H   0  0  0  0  0  0  0  0  0  0  0  0
  1  2  1  0  0  0  0
  1  3  2  0  0  0  0
  2  4  2  0  0  0  0
  3  5  1  0  0  0  0
  4 10  1  0  0  0  0
  5 10  2  0  0  0  0
  6  8  2  0  0  0  0
  6 11  1  0  0  0  0
  7  9  1  0  0  0  0
  7 11  2  0  0  0  0
  8 12  1  0  0  0  0
  9 12  2  0  0  0  0
 10 24  1  0  0  0  0
 11 25  1  0  0  0  0
 12 29  1  0  0  0  0
 13 14  2  0  0  0  0
 13 15  1  0  0  0  0
 13 28  1  0  0  0  0
 14 26  1  0  0  0  0
 14 30  1  0  0  0  0
 15 16  2  0  0  0  0
 16 17  1  0  0  0  0
 17 18  2  0  0  0  0
 18 28  1  0  0  0  0
 19 25  1  6  0  0  0
 19 30  1  0  0  0  0
 19 31  2  0  0  0  0
 20 22  1  0  0  0  0
 20 29  1  0  0  0  0
 21 23  1  0  0  0  0
 21 29  1  0  0  0  0
 22 32  1  0  0  0  0
 23 32  1  0  0  0  0
 24 25  1  0  0  0  0
 26 27  2  0  0  0  0
 27 28  1  0  0  0  0
  1 33  1  0  0  0  0
  2 34  1  0  0  0  0
  3 35  1  0  0  0  0
  4 36  1  0  0  0  0
  5 37  1  0  0  0  0
  6 38  1  0  0  0  0
  7 39  1  0  0  0  0
  8 40  1  0  0  0  0
  9 41  1  0  0  0  0
 15 42  1  0  0  0  0
 16 43  1  0  0  0  0
 17 44  1  0  0  0  0
 18 45  1  0  0  0  0
 20 46  1  0  0  0  0
 20 47  1  0  0  0  0
 21 48  1  0  0  0  0
 21 49  1  0  0  0  0
 22 50  1  0  0  0  0
 22 51  1  0  0  0  0
 23 52  1  0  0  0  0
 23 53  1  0  0  0  0
 24 54  1  0  0  0  0
 24 55  1  0  0  0  0
 25 56  1  0  0  0  0
 30 57  1  0  0  0  0
M  END
> <clash_score>
0

> <docking_score>
-9.320631980895996

> <overlap_score>
1.0107591152191162

$$$$
BENZO_276_1
  -OEChem-08222022193D

 54 58  0     1  0  0  0  0  0999 V2000
    9.0720   -1.1280   24.8640 C   0  0  0  0  0  0  0  0  0  0  0  0
    9.7200   -2.2600   22.8630 C   0  0  0  0  0  0  0  0  0  0  0  0
    8.9960   -2.3380   25.5320 C   0  0  0  0  0  0  0  0  0  0  0  0
    9.6730   -3.4710   23.5300 C   0  0  0  0  0  0  0  0  0  0  0  0
   12.3967    0.6932   23.7036 C   0  0  0  0  0  0  0  0  0  0  0  0
   13.4249    0.5733   24.6125 C   0  0  0  0  0  0  0  0  0  0  0  0
   11.3289    1.2940   25.6787 C   0  0  0  0  0  0  0  0  0  0  0  0
    9.3350   -1.0880   23.5010 C   0  0  0  0  0  0  0  0  0  0  0  0
   11.1825    1.1108   24.3212 C   0  0  0  0  0  0  0  0  0  0  0  0
    9.3070   -3.5340   24.8780 C   0  0  0  0  0  0  0  0  0  0  0  0
    6.1790    0.5730   19.9990 C   0  0  0  0  0  0  0  0  0  0  0  0
    7.3170   -0.1610   19.8550 C   0  0  0  0  0  0  0  0  0  0  0  0
    5.4210    0.9600   21.0930 C   0  0  0  0  0  0  0  0  0  0  0  0
    4.2750    1.7050   20.8490 C   0  0  0  0  0  0  0  0  0  0  0  0
    3.9160    2.0630   19.5520 C   0  0  0  0  0  0  0  0  0  0  0  0
    4.6890    1.6810   18.4640 C   0  0  0  0  0  0  0  0  0  0  0  0
    9.0420    0.3700   21.5280 C   0  0  0  0  0  0  0  0  0  0  0  0
   10.0772   -5.0257   26.7191 C   0  0  0  0  0  0  0  0  0  0  0  0
    8.0927   -5.6196   25.4069 C   0  0  0  0  0  0  0  0  0  0  0  0
    9.1935   -4.9431   27.9590 C   0  0  0  0  0  0  0  0  0  0  0  0
    7.2758   -5.5292   26.6966 C   0  0  0  0  0  0  0  0  0  0  0  0
    9.8870    1.3260   23.5730 C   0  0  0  0  0  0  0  0  0  0  0  0
    9.4560    0.1560   22.8130 C   0  0  1  0  0  0  0  0  0  0  0  0
    7.6390   -0.2680   18.5410 N   0  0  0  0  0  0  0  0  0  0  0  0
    6.7580    0.3810   17.8350 N   0  0  0  0  0  0  0  0  0  0  0  0
    5.8300    0.9190   18.6970 N   0  0  0  0  0  0  0  0  0  0  0  0
    9.2564   -4.7368   25.5411 N   0  0  0  0  0  0  0  0  0  0  0  0
    8.1890   -0.7180   20.8700 N   0  0  0  0  0  0  0  0  0  0  0  0
    9.2690    1.4140   20.9380 O   0  0  0  0  0  0  0  0  0  0  0  0
    8.0884   -5.8462   27.8322 O   0  0  0  0  0  0  0  0  0  0  0  0
   12.9251    0.9633   26.2032 S   0  0  0  0  0  0  0  0  0  0  0  0
    8.9214   -0.1986   25.4206 H   0  0  0  0  0  0  0  0  0  0  0  0
   10.0622   -2.2326   21.8251 H   0  0  0  0  0  0  0  0  0  0  0  0
    8.6882   -2.3542   26.5803 H   0  0  0  0  0  0  0  0  0  0  0  0
    9.9258   -4.3896   22.9914 H   0  0  0  0  0  0  0  0  0  0  0  0
   12.5144    0.4895   22.6468 H   0  0  0  0  0  0  0  0  0  0  0  0
   14.4455    0.2746   24.4187 H   0  0  0  0  0  0  0  0  0  0  0  0
   10.5774    1.6050   26.3912 H   0  0  0  0  0  0  0  0  0  0  0  0
    5.6855    0.7074   22.1002 H   0  0  0  0  0  0  0  0  0  0  0  0
    3.6634    2.0034   21.6926 H   0  0  0  0  0  0  0  0  0  0  0  0
    3.0111    2.6563   19.3629 H   0  0  0  0  0  0  0  0  0  0  0  0
    4.4370    1.9522   17.4626 H   0  0  0  0  0  0  0  0  0  0  0  0
   10.8986   -4.3117   26.8083 H   0  0  0  0  0  0  0  0  0  0  0  0
   10.4916   -6.0336   26.6319 H   0  0  0  0  0  0  0  0  0  0  0  0
    8.4328   -6.6457   25.2617 H   0  0  0  0  0  0  0  0  0  0  0  0
    7.4726   -5.3240   24.5618 H   0  0  0  0  0  0  0  0  0  0  0  0
    9.7638   -5.2402   28.8416 H   0  0  0  0  0  0  0  0  0  0  0  0
    8.8238   -3.9272   28.1248 H   0  0  0  0  0  0  0  0  0  0  0  0
    6.8340   -4.5339   26.8232 H   0  0  0  0  0  0  0  0  0  0  0  0
    6.4551   -6.2523   26.6641 H   0  0  0  0  0  0  0  0  0  0  0  0
    9.1090    1.6445   24.2791 H   0  0  0  0  0  0  0  0  0  0  0  0
   10.0281    2.1766   22.8918 H   0  0  0  0  0  0  0  0  0  0  0  0
   10.7949   -0.0994   22.4253 H   0  0  0  0  0  0  0  0  0  0  0  0
    8.2585   -1.5522   21.1129 H   0  0  0  0  0  0  0  0  0  0  0  0
  1  3  2  0  0  0  0
  1  8  1  0  0  0  0
  2  4  1  0  0  0  0
  2  8  2  0  0  0  0
  3 10  1  0  0  0  0
  4 10  2  0  0  0  0
  5  6  2  0  0  0  0
  5  9  1  0  0  0  0
  6 31  1  0  0  0  0
  7  9  2  0  0  0  0
  7 31  1  0  0  0  0
  8 23  1  0  0  0  0
  9 22  1  0  0  0  0
 10 27  1  0  0  0  0
 11 12  2  0  0  0  0
 11 13  1  0  0  0  0
 11 26  1  0  0  0  0
 12 24  1  0  0  0  0
 12 28  1  0  0  0  0
 13 14  2  0  0  0  0
 14 15  1  0  0  0  0
 15 16  2  0  0  0  0
 16 26  1  0  0  0  0
 17 23  1  1  0  0  0
 17 28  1  0  0  0  0
 17 29  2  0  0  0  0
 18 20  1  0  0  0  0
 18 27  1  0  0  0  0
 19 21  1  0  0  0  0
 19 27  1  0  0  0  0
 20 30  1  0  0  0  0
 21 30  1  0  0  0  0
 22 23  1  0  0  0  0
 24 25  2  0  0  0  0
 25 26  1  0  0  0  0
  1 32  1  0  0  0  0
  2 33  1  0  0  0  0
  3 34  1  0  0  0  0
  4 35  1  0  0  0  0
  5 36  1  0  0  0  0
  6 37  1  0  0  0  0
  7 38  1  0  0  0  0
 13 39  1  0  0  0  0
 14 40  1  0  0  0  0
 15 41  1  0  0  0  0
 16 42  1  0  0  0  0
 18 43  1  0  0  0  0
 18 44  1  0  0  0  0
 19 45  1  0  0  0  0
 19 46  1  0  0  0  0
 20 47  1  0  0  0  0
 20 48  1  0  0  0  0
 21 49  1  0  0  0  0
 21 50  1  0  0  0  0
 22 51  1  0  0  0  0
 22 52  1  0  0  0  0
 23 53  1  0  0  0  0
 28 54  1  0  0  0  0
M  END
> <clash_score>
0.6358202961902428

> <docking_score>
-7.747197151184082

> <overlap_score>
0.9200488924980164

$$$$
BENZO_276_2
  -OEChem-08222022193D

 54 58  0     1  0  0  0  0  0999 V2000
    9.0720   -1.1280   24.8640 C   0  0  0  0  0  0  0  0  0  0  0  0
    9.7200   -2.2600   22.8630 C   0  0  0  0  0  0  0  0  0  0  0  0
    8.9960   -2.3380   25.5320 C   0  0  0  0  0  0  0  0  0  0  0  0
    9.6730   -3.4710   23.5300 C   0  0  0  0  0  0  0  0  0  0  0  0
   12.3482    0.5241   23.4467 C   0  0  0  0  0  0  0  0  0  0  0  0
   13.6337    1.0166   23.3986 C   0  0  0  0  0  0  0  0  0  0  0  0
   11.9591    2.8148   23.5083 C   0  0  0  0  0  0  0  0  0  0  0  0
    9.3350   -1.0880   23.5010 C   0  0  0  0  0  0  0  0  0  0  0  0
   11.3780    1.5657   23.5101 C   0  0  0  0  0  0  0  0  0  0  0  0
    9.3070   -3.5340   24.8780 C   0  0  0  0  0  0  0  0  0  0  0  0
    6.1790    0.5730   19.9990 C   0  0  0  0  0  0  0  0  0  0  0  0
    7.3170   -0.1610   19.8550 C   0  0  0  0  0  0  0  0  0  0  0  0
    5.4210    0.9600   21.0930 C   0  0  0  0  0  0  0  0  0  0  0  0
    4.2750    1.7050   20.8490 C   0  0  0  0  0  0  0  0  0  0  0  0
    3.9160    2.0630   19.5520 C   0  0  0  0  0  0  0  0  0  0  0  0
    4.6890    1.6810   18.4640 C   0  0  0  0  0  0  0  0  0  0  0  0
    9.0420    0.3700   21.5280 C   0  0  0  0  0  0  0  0  0  0  0  0
   10.0772   -5.0257   26.7191 C   0  0  0  0  0  0  0  0  0  0  0  0
    8.0927   -5.6196   25.4069 C   0  0  0  0  0  0  0  0  0  0  0  0
    9.1935   -4.9431   27.9590 C   0  0  0  0  0  0  0  0  0  0  0  0
    7.2758   -5.5292   26.6966 C   0  0  0  0  0  0  0  0  0  0  0  0
    9.8870    1.3260   23.5730 C   0  0  0  0  0  0  0  0  0  0  0  0
    9.4560    0.1560   22.8130 C   0  0  2  0  0  0  0  0  0  0  0  0
    7.6390   -0.2680   18.5410 N   0  0  0  0  0  0  0  0  0  0  0  0
    6.7580    0.3810   17.8350 N   0  0  0  0  0  0  0  0  0  0  0  0
    5.8300    0.9190   18.6970 N   0  0  0  0  0  0  0  0  0  0  0  0
    9.2564   -4.7368   25.5411 N   0  0  0  0  0  0  0  0  0  0  0  0
    8.1890   -0.7180   20.8700 N   0  0  0  0  0  0  0  0  0  0  0  0
    9.2690    1.4140   20.9380 O   0  0  0  0  0  0  0  0  0  0  0  0
    8.0884   -5.8462   27.8322 O   0  0  0  0  0  0  0  0  0  0  0  0
   13.6675    2.7284   23.4300 S   0  0  0  0  0  0  0  0  0  0  0  0
    8.9214   -0.1986   25.4206 H   0  0  0  0  0  0  0  0  0  0  0  0
   10.0622   -2.2326   21.8251 H   0  0  0  0  0  0  0  0  0  0  0  0
    8.6882   -2.3542   26.5803 H   0  0  0  0  0  0  0  0  0  0  0  0
    9.9258   -4.3896   22.9914 H   0  0  0  0  0  0  0  0  0  0  0  0
   12.1191   -0.5341   23.4370 H   0  0  0  0  0  0  0  0  0  0  0  0
   14.5547    0.4533   23.3471 H   0  0  0  0  0  0  0  0  0  0  0  0
   11.4660    3.7761   23.5503 H   0  0  0  0  0  0  0  0  0  0  0  0
    5.6855    0.7074   22.1002 H   0  0  0  0  0  0  0  0  0  0  0  0
    3.6634    2.0034   21.6926 H   0  0  0  0  0  0  0  0  0  0  0  0
    3.0111    2.6563   19.3629 H   0  0  0  0  0  0  0  0  0  0  0  0
    4.4370    1.9522   17.4626 H   0  0  0  0  0  0  0  0  0  0  0  0
   10.8986   -4.3117   26.8083 H   0  0  0  0  0  0  0  0  0  0  0  0
   10.4916   -6.0336   26.6319 H   0  0  0  0  0  0  0  0  0  0  0  0
    8.4328   -6.6457   25.2617 H   0  0  0  0  0  0  0  0  0  0  0  0
    7.4726   -5.3240   24.5618 H   0  0  0  0  0  0  0  0  0  0  0  0
    9.7638   -5.2402   28.8416 H   0  0  0  0  0  0  0  0  0  0  0  0
    8.8238   -3.9272   28.1248 H   0  0  0  0  0  0  0  0  0  0  0  0
    6.8340   -4.5339   26.8232 H   0  0  0  0  0  0  0  0  0  0  0  0
    6.4551   -6.2523   26.6641 H   0  0  0  0  0  0  0  0  0  0  0  0
    9.5760    1.2490   24.6231 H   0  0  0  0  0  0  0  0  0  0  0  0
    9.3844    2.2230   23.1853 H   0  0  0  0  0  0  0  0  0  0  0  0
    8.0674    0.5009   23.2732 H   0  0  0  0  0  0  0  0  0  0  0  0
    8.2585   -1.5522   21.1129 H   0  0  0  0  0  0  0  0  0  0  0  0
  1  3  2  0  0  0  0
  1  8  1  0  0  0  0
  2  4  1  0  0  0  0
  2  8  2  0  0  0  0
  3 10  1  0  0  0  0
  4 10  2  0  0  0  0
  5  6  2  0  0  0  0
  5  9  1  0  0  0  0
  6 31  1  0  0  0  0
  7  9  2  0  0  0  0
  7 31  1  0  0  0  0
  8 23  1  0  0  0  0
  9 22  1  0  0  0  0
 10 27  1  0  0  0  0
 11 12  2  0  0  0  0
 11 13  1  0  0  0  0
 11 26  1  0  0  0  0
 12 24  1  0  0  0  0
 12 28  1  0  0  0  0
 13 14  2  0  0  0  0
 14 15  1  0  0  0  0
 15 16  2  0  0  0  0
 16 26  1  0  0  0  0
 17 23  1  6  0  0  0
 17 28  1  0  0  0  0
 17 29  2  0  0  0  0
 18 20  1  0  0  0  0
 18 27  1  0  0  0  0
 19 21  1  0  0  0  0
 19 27  1  0  0  0  0
 20 30  1  0  0  0  0
 21 30  1  0  0  0  0
 22 23  1  0  0  0  0
 24 25  2  0  0  0  0
 25 26  1  0  0  0  0
  1 32  1  0  0  0  0
  2 33  1  0  0  0  0
  3 34  1  0  0  0  0
  4 35  1  0  0  0  0
  5 36  1  0  0  0  0
  6 37  1  0  0  0  0
  7 38  1  0  0  0  0
 13 39  1  0  0  0  0
 14 40  1  0  0  0  0
 15 41  1  0  0  0  0
 16 42  1  0  0  0  0
 18 43  1  0  0  0  0
 18 44  1  0  0  0  0
 19 45  1  0  0  0  0
 19 46  1  0  0  0  0
 20 47  1  0  0  0  0
 20 48  1  0  0  0  0
 21 49  1  0  0  0  0
 21 50  1  0  0  0  0
 22 51  1  0  0  0  0
 22 52  1  0  0  0  0
 23 53  1  0  0  0  0
 28 54  1  0  0  0  0
M  END
> <clash_score>
0

> <docking_score>
-9.791153907775879

> <overlap_score>
0.9958126544952393

$$$$
BENZO_278_1
  -OEChem-08222022193D

 57 61  0     1  0  0  0  0  0999 V2000
   13.2943    2.5807   22.4505 C   0  0  0  0  0  0  0  0  0  0  0  0
   12.3047    1.8379   23.0944 C   0  0  0  0  0  0  0  0  0  0  0  0
    9.0720   -1.1280   24.8640 C   0  0  0  0  0  0  0  0  0  0  0  0
    9.7200   -2.2600   22.8630 C   0  0  0  0  0  0  0  0  0  0  0  0
    8.9960   -2.3380   25.5320 C   0  0  0  0  0  0  0  0  0  0  0  0
    9.6730   -3.4710   23.5300 C   0  0  0  0  0  0  0  0  0  0  0  0
   12.9381    3.6176   21.5882 C   0  0  0  0  0  0  0  0  0  0  0  0
   10.6025    3.1689   22.0135 C   0  0  0  0  0  0  0  0  0  0  0  0
    9.3350   -1.0880   23.5010 C   0  0  0  0  0  0  0  0  0  0  0  0
   10.9588    2.1320   22.8759 C   0  0  0  0  0  0  0  0  0  0  0  0
    9.3070   -3.5340   24.8780 C   0  0  0  0  0  0  0  0  0  0  0  0
   11.5922    3.9117   21.3697 C   0  0  0  0  0  0  0  0  0  0  0  0
    6.1790    0.5730   19.9990 C   0  0  0  0  0  0  0  0  0  0  0  0
    7.3170   -0.1610   19.8550 C   0  0  0  0  0  0  0  0  0  0  0  0
    5.4210    0.9600   21.0930 C   0  0  0  0  0  0  0  0  0  0  0  0
    4.2750    1.7050   20.8490 C   0  0  0  0  0  0  0  0  0  0  0  0
    3.9160    2.0630   19.5520 C   0  0  0  0  0  0  0  0  0  0  0  0
    4.6890    1.6810   18.4640 C   0  0  0  0  0  0  0  0  0  0  0  0
    9.0420    0.3700   21.5280 C   0  0  0  0  0  0  0  0  0  0  0  0
    9.5176   -4.8600   26.9769 C   0  0  0  0  0  0  0  0  0  0  0  0
    8.5166   -5.8725   24.9805 C   0  0  0  0  0  0  0  0  0  0  0  0
    8.1870   -5.0443   27.6986 C   0  0  0  0  0  0  0  0  0  0  0  0
    7.2201   -6.0348   25.7753 C   0  0  0  0  0  0  0  0  0  0  0  0
    9.8870    1.3260   23.5730 C   0  0  0  0  0  0  0  0  0  0  0  0
    9.4560    0.1560   22.8130 C   0  0  1  0  0  0  0  0  0  0  0  0
    7.6390   -0.2680   18.5410 N   0  0  0  0  0  0  0  0  0  0  0  0
    6.7580    0.3810   17.8350 N   0  0  0  0  0  0  0  0  0  0  0  0
    5.8300    0.9190   18.6970 N   0  0  0  0  0  0  0  0  0  0  0  0
    9.2564   -4.7368   25.5411 N   0  0  0  0  0  0  0  0  0  0  0  0
    8.1890   -0.7180   20.8700 N   0  0  0  0  0  0  0  0  0  0  0  0
    9.2690    1.4140   20.9380 O   0  0  0  0  0  0  0  0  0  0  0  0
    7.4995   -6.1856   27.1717 O   0  0  0  0  0  0  0  0  0  0  0  0
   11.1532    5.1904   20.3048 Cl  0  0  0  0  0  0  0  0  0  0  0  0
   14.3422    2.3512   22.6208 H   0  0  0  0  0  0  0  0  0  0  0  0
   12.5914    1.0317   23.7645 H   0  0  0  0  0  0  0  0  0  0  0  0
    8.9214   -0.1986   25.4206 H   0  0  0  0  0  0  0  0  0  0  0  0
   10.0622   -2.2326   21.8251 H   0  0  0  0  0  0  0  0  0  0  0  0
    8.6882   -2.3542   26.5803 H   0  0  0  0  0  0  0  0  0  0  0  0
    9.9258   -4.3896   22.9914 H   0  0  0  0  0  0  0  0  0  0  0  0
   13.7201    4.1879   21.0929 H   0  0  0  0  0  0  0  0  0  0  0  0
    9.5518    3.3947   21.8469 H   0  0  0  0  0  0  0  0  0  0  0  0
    5.6855    0.7074   22.1002 H   0  0  0  0  0  0  0  0  0  0  0  0
    3.6634    2.0034   21.6926 H   0  0  0  0  0  0  0  0  0  0  0  0
    3.0111    2.6563   19.3629 H   0  0  0  0  0  0  0  0  0  0  0  0
    4.4370    1.9522   17.4626 H   0  0  0  0  0  0  0  0  0  0  0  0
   10.0207   -3.9702   27.3608 H   0  0  0  0  0  0  0  0  0  0  0  0
   10.1536   -5.7313   27.1546 H   0  0  0  0  0  0  0  0  0  0  0  0
    9.1181   -6.7774   25.0751 H   0  0  0  0  0  0  0  0  0  0  0  0
    8.2812   -5.7063   23.9302 H   0  0  0  0  0  0  0  0  0  0  0  0
    8.3631   -5.2257   28.7609 H   0  0  0  0  0  0  0  0  0  0  0  0
    7.5532   -4.1574   27.6103 H   0  0  0  0  0  0  0  0  0  0  0  0
    6.5460   -5.1840   25.6220 H   0  0  0  0  0  0  0  0  0  0  0  0
    6.6948   -6.9355   25.4433 H   0  0  0  0  0  0  0  0  0  0  0  0
   10.2417    1.0375   24.5711 H   0  0  0  0  0  0  0  0  0  0  0  0
    9.0279    1.9881   23.7492 H   0  0  0  0  0  0  0  0  0  0  0  0
   10.7949   -0.0994   22.4253 H   0  0  0  0  0  0  0  0  0  0  0  0
    8.2585   -1.5522   21.1129 H   0  0  0  0  0  0  0  0  0  0  0  0
  1  2  2  0  0  0  0
  1  7  1  0  0  0  0
  2 10  1  0  0  0  0
  3  5  2  0  0  0  0
  3  9  1  0  0  0  0
  4  6  1  0  0  0  0
  4  9  2  0  0  0  0
  5 11  1  0  0  0  0
  6 11  2  0  0  0  0
  7 12  2  0  0  0  0
  8 10  2  0  0  0  0
  8 12  1  0  0  0  0
  9 25  1  0  0  0  0
 10 24  1  0  0  0  0
 11 29  1  0  0  0  0
 12 33  1  0  0  0  0
 13 14  2  0  0  0  0
 13 15  1  0  0  0  0
 13 28  1  0  0  0  0
 14 26  1  0  0  0  0
 14 30  1  0  0  0  0
 15 16  2  0  0  0  0
 16 17  1  0  0  0  0
 17 18  2  0  0  0  0
 18 28  1  0  0  0  0
 19 25  1  1  0  0  0
 19 30  1  0  0  0  0
 19 31  2  0  0  0  0
 20 22  1  0  0  0  0
 20 29  1  0  0  0  0
 21 23  1  0  0  0  0
 21 29  1  0  0  0  0
 22 32  1  0  0  0  0
 23 32  1  0  0  0  0
 24 25  1  0  0  0  0
 26 27  2  0  0  0  0
 27 28  1  0  0  0  0
  1 34  1  0  0  0  0
  2 35  1  0  0  0  0
  3 36  1  0  0  0  0
  4 37  1  0  0  0  0
  5 38  1  0  0  0  0
  6 39  1  0  0  0  0
  7 40  1  0  0  0  0
  8 41  1  0  0  0  0
 15 42  1  0  0  0  0
 16 43  1  0  0  0  0
 17 44  1  0  0  0  0
 18 45  1  0  0  0  0
 20 46  1  0  0  0  0
 20 47  1  0  0  0  0
 21 48  1  0  0  0  0
 21 49  1  0  0  0  0
 22 50  1  0  0  0  0
 22 51  1  0  0  0  0
 23 52  1  0  0  0  0
 23 53  1  0  0  0  0
 24 54  1  0  0  0  0
 24 55  1  0  0  0  0
 25 56  1  0  0  0  0
 30 57  1  0  0  0  0
M  END
> <clash_score>
2.199912744504704

> <docking_score>
-8.573234558105469

> <overlap_score>
0.970363199710846

$$$$
BENZO_280_1
  -OEChem-08222022193D

 51 54  0     1  0  0  0  0  0999 V2000
    4.2750    1.7050   20.8490 C   0  0  0  0  0  0  0  0  0  0  0  0
    3.9160    2.0630   19.5520 C   0  0  0  0  0  0  0  0  0  0  0  0
    5.4210    0.9600   21.0930 C   0  0  0  0  0  0  0  0  0  0  0  0
    9.0720   -1.1280   24.8640 C   0  0  0  0  0  0  0  0  0  0  0  0
    9.7200   -2.2600   22.8630 C   0  0  0  0  0  0  0  0  0  0  0  0
    4.6890    1.6810   18.4640 C   0  0  0  0  0  0  0  0  0  0  0  0
    8.9960   -2.3380   25.5320 C   0  0  0  0  0  0  0  0  0  0  0  0
    9.6730   -3.4710   23.5300 C   0  0  0  0  0  0  0  0  0  0  0  0
   12.3398    0.5029   23.4216 C   0  0  0  0  0  0  0  0  0  0  0  0
    7.6390   -0.2680   18.5410 C   0  0  0  0  0  0  0  0  0  0  0  0
   13.6291    0.9844   23.3622 C   0  0  0  0  0  0  0  0  0  0  0  0
   11.9713    2.7968   23.4917 C   0  0  0  0  0  0  0  0  0  0  0  0
    6.1790    0.5730   19.9990 C   0  0  0  0  0  0  0  0  0  0  0  0
    9.3350   -1.0880   23.5010 C   0  0  0  0  0  0  0  0  0  0  0  0
   11.3794    1.5528   23.4964 C   0  0  0  0  0  0  0  0  0  0  0  0
    5.8300    0.9190   18.6970 C   0  0  0  0  0  0  0  0  0  0  0  0
    9.3070   -3.5340   24.8780 C   0  0  0  0  0  0  0  0  0  0  0  0
    7.3170   -0.1610   19.8550 C   0  0  0  0  0  0  0  0  0  0  0  0
    9.0420    0.3700   21.5280 C   0  0  0  0  0  0  0  0  0  0  0  0
    8.0148   -5.2164   26.1419 C   0  0  0  0  0  0  0  0  0  0  0  0
   10.4390   -5.5857   25.6570 C   0  0  0  0  0  0  0  0  0  0  0  0
    9.8870    1.3260   23.5730 C   0  0  0  0  0  0  0  0  0  0  0  0
    9.4560    0.1560   22.8130 C   0  0  1  0  0  0  0  0  0  0  0  0
    6.7580    0.3810   17.8350 N   0  0  0  0  0  0  0  0  0  0  0  0
    8.1890   -0.7180   20.8700 N   0  0  0  0  0  0  0  0  0  0  0  0
    9.2556   -4.7554   25.5514 N   0  0  0  0  0  0  0  0  0  0  0  0
    9.2690    1.4140   20.9380 O   0  0  0  0  0  0  0  0  0  0  0  0
   13.6781    2.6957   23.3969 S   0  0  0  0  0  0  0  0  0  0  0  0
    3.6453    2.0152   21.6831 H   0  0  0  0  0  0  0  0  0  0  0  0
    3.0147    2.6520   19.3913 H   0  0  0  0  0  0  0  0  0  0  0  0
    5.6991    0.6995   22.1042 H   0  0  0  0  0  0  0  0  0  0  0  0
    8.9214   -0.1986   25.4206 H   0  0  0  0  0  0  0  0  0  0  0  0
   10.0622   -2.2326   21.8251 H   0  0  0  0  0  0  0  0  0  0  0  0
    4.4051    1.9733   17.4488 H   0  0  0  0  0  0  0  0  0  0  0  0
    8.6882   -2.3542   26.5803 H   0  0  0  0  0  0  0  0  0  0  0  0
    9.9258   -4.3896   22.9914 H   0  0  0  0  0  0  0  0  0  0  0  0
   12.1014   -0.5532   23.4119 H   0  0  0  0  0  0  0  0  0  0  0  0
    8.4825   -0.7940   18.0623 H   0  0  0  0  0  0  0  0  0  0  0  0
   14.5445    0.4131   23.3009 H   0  0  0  0  0  0  0  0  0  0  0  0
   11.4871    3.7623   23.5403 H   0  0  0  0  0  0  0  0  0  0  0  0
    8.1775   -6.1919   26.6235 H   0  0  0  0  0  0  0  0  0  0  0  0
    7.6740   -4.4889   26.8933 H   0  0  0  0  0  0  0  0  0  0  0  0
    7.2508   -5.3181   25.3570 H   0  0  0  0  0  0  0  0  0  0  0  0
   10.1974   -6.4996   26.2196 H   0  0  0  0  0  0  0  0  0  0  0  0
   10.7877   -5.8568   24.6496 H   0  0  0  0  0  0  0  0  0  0  0  0
   11.2305   -5.0307   26.1819 H   0  0  0  0  0  0  0  0  0  0  0  0
    9.5854    1.2495   24.6258 H   0  0  0  0  0  0  0  0  0  0  0  0
    9.3886    2.2282   23.1920 H   0  0  0  0  0  0  0  0  0  0  0  0
    8.0686    0.4964   23.2745 H   0  0  0  0  0  0  0  0  0  0  0  0
    6.7266    0.4930   16.8305 H   0  0  0  0  0  0  0  0  0  0  0  0
    8.2408   -1.5631   21.0968 H   0  0  0  0  0  0  0  0  0  0  0  0
  1  2  1  0  0  0  0
  1  3  2  0  0  0  0
  2  6  2  0  0  0  0
  3 13  1  0  0  0  0
  4  7  2  0  0  0  0
  4 14  1  0  0  0  0
  5  8  1  0  0  0  0
  5 14  2  0  0  0  0
  6 16  1  0  0  0  0
  7 17  1  0  0  0  0
  8 17  2  0  0  0  0
  9 11  2  0  0  0  0
  9 15  1  0  0  0  0
 10 18  2  0  0  0  0
 10 24  1  0  0  0  0
 11 28  1  0  0  0  0
 12 15  2  0  0  0  0
 12 28  1  0  0  0  0
 13 16  2  0  0  0  0
 13 18  1  0  0  0  0
 14 23  1  0  0  0  0
 15 22  1  0  0  0  0
 16 24  1  0  0  0  0
 17 26  1  0  0  0  0
 18 25  1  0  0  0  0
 19 23  1  0  0  0  0
 19 25  1  0  0  0  0
 19 27  2  0  0  0  0
 20 26  1  0  0  0  0
 21 26  1  0  0  0  0
 22 23  1  1  0  0  0
  1 29  1  0  0  0  0
  2 30  1  0  0  0  0
  3 31  1  0  0  0  0
  4 32  1  0  0  0  0
  5 33  1  0  0  0  0
  6 34  1  0  0  0  0
  7 35  1  0  0  0  0
  8 36  1  0  0  0  0
  9 37  1  0  0  0  0
 10 38  1  0  0  0  0
 11 39  1  0  0  0  0
 12 40  1  0  0  0  0
 20 41  1  0  0  0  0
 20 42  1  0  0  0  0
 20 43  1  0  0  0  0
 21 44  1  0  0  0  0
 21 45  1  0  0  0  0
 21 46  1  0  0  0  0
 22 47  1  0  0  0  0
 22 48  1  0  0  0  0
 23 49  1  0  0  0  0
 24 50  1  0  0  0  0
 25 51  1  0  0  0  0
M  END
> <clash_score>
0

> <docking_score>
-9.869280815124512

> <overlap_score>
0.9840580821037292

$$$$
BENZO_281_1
  -OEChem-08222022193D

 54 57  0     1  0  0  0  0  0999 V2000
   14.1341    1.9700   23.3555 C   0  0  0  0  0  0  0  0  0  0  0  0
    4.2750    1.7050   20.8490 C   0  0  0  0  0  0  0  0  0  0  0  0
   13.2717    3.0548   23.5141 C   0  0  0  0  0  0  0  0  0  0  0  0
   13.6192    0.6767   23.2672 C   0  0  0  0  0  0  0  0  0  0  0  0
    3.9160    2.0630   19.5520 C   0  0  0  0  0  0  0  0  0  0  0  0
    5.4210    0.9600   21.0930 C   0  0  0  0  0  0  0  0  0  0  0  0
   11.8943    2.8462   23.5846 C   0  0  0  0  0  0  0  0  0  0  0  0
   12.2418    0.4681   23.3377 C   0  0  0  0  0  0  0  0  0  0  0  0
    9.0720   -1.1280   24.8640 C   0  0  0  0  0  0  0  0  0  0  0  0
    9.7200   -2.2600   22.8630 C   0  0  0  0  0  0  0  0  0  0  0  0
    4.6890    1.6810   18.4640 C   0  0  0  0  0  0  0  0  0  0  0  0
    8.9960   -2.3380   25.5320 C   0  0  0  0  0  0  0  0  0  0  0  0
    9.6730   -3.4710   23.5300 C   0  0  0  0  0  0  0  0  0  0  0  0
    7.6390   -0.2680   18.5410 C   0  0  0  0  0  0  0  0  0  0  0  0
    6.1790    0.5730   19.9990 C   0  0  0  0  0  0  0  0  0  0  0  0
   11.3794    1.5528   23.4964 C   0  0  0  0  0  0  0  0  0  0  0  0
    9.3350   -1.0880   23.5010 C   0  0  0  0  0  0  0  0  0  0  0  0
    5.8300    0.9190   18.6970 C   0  0  0  0  0  0  0  0  0  0  0  0
    9.3070   -3.5340   24.8780 C   0  0  0  0  0  0  0  0  0  0  0  0
    7.3170   -0.1610   19.8550 C   0  0  0  0  0  0  0  0  0  0  0  0
    9.0420    0.3700   21.5280 C   0  0  0  0  0  0  0  0  0  0  0  0
    8.0148   -5.2164   26.1419 C   0  0  0  0  0  0  0  0  0  0  0  0
   10.4390   -5.5857   25.6570 C   0  0  0  0  0  0  0  0  0  0  0  0
    9.8870    1.3260   23.5730 C   0  0  0  0  0  0  0  0  0  0  0  0
    9.4560    0.1560   22.8130 C   0  0  1  0  0  0  0  0  0  0  0  0
    6.7580    0.3810   17.8350 N   0  0  0  0  0  0  0  0  0  0  0  0
    8.1890   -0.7180   20.8700 N   0  0  0  0  0  0  0  0  0  0  0  0
    9.2556   -4.7554   25.5514 N   0  0  0  0  0  0  0  0  0  0  0  0
    9.2690    1.4140   20.9380 O   0  0  0  0  0  0  0  0  0  0  0  0
   15.2065    2.1328   23.2992 H   0  0  0  0  0  0  0  0  0  0  0  0
    3.6453    2.0152   21.6831 H   0  0  0  0  0  0  0  0  0  0  0  0
   13.6724    4.0620   23.5817 H   0  0  0  0  0  0  0  0  0  0  0  0
   14.2903   -0.1680   23.1426 H   0  0  0  0  0  0  0  0  0  0  0  0
    3.0147    2.6520   19.3913 H   0  0  0  0  0  0  0  0  0  0  0  0
    5.6991    0.6995   22.1042 H   0  0  0  0  0  0  0  0  0  0  0  0
   11.2299    3.6973   23.7085 H   0  0  0  0  0  0  0  0  0  0  0  0
   11.8496   -0.5431   23.2682 H   0  0  0  0  0  0  0  0  0  0  0  0
    8.9214   -0.1986   25.4206 H   0  0  0  0  0  0  0  0  0  0  0  0
   10.0622   -2.2326   21.8251 H   0  0  0  0  0  0  0  0  0  0  0  0
    4.4051    1.9733   17.4488 H   0  0  0  0  0  0  0  0  0  0  0  0
    8.6882   -2.3542   26.5803 H   0  0  0  0  0  0  0  0  0  0  0  0
    9.9258   -4.3896   22.9914 H   0  0  0  0  0  0  0  0  0  0  0  0
    8.4825   -0.7940   18.0623 H   0  0  0  0  0  0  0  0  0  0  0  0
    8.1775   -6.1919   26.6235 H   0  0  0  0  0  0  0  0  0  0  0  0
    7.6740   -4.4889   26.8933 H   0  0  0  0  0  0  0  0  0  0  0  0
    7.2508   -5.3181   25.3570 H   0  0  0  0  0  0  0  0  0  0  0  0
   10.1974   -6.4996   26.2196 H   0  0  0  0  0  0  0  0  0  0  0  0
   10.7877   -5.8568   24.6496 H   0  0  0  0  0  0  0  0  0  0  0  0
   11.2305   -5.0307   26.1819 H   0  0  0  0  0  0  0  0  0  0  0  0
    9.5854    1.2495   24.6258 H   0  0  0  0  0  0  0  0  0  0  0  0
    9.3886    2.2282   23.1920 H   0  0  0  0  0  0  0  0  0  0  0  0
    8.0686    0.4964   23.2745 H   0  0  0  0  0  0  0  0  0  0  0  0
    6.7266    0.4930   16.8305 H   0  0  0  0  0  0  0  0  0  0  0  0
    8.2408   -1.5631   21.0968 H   0  0  0  0  0  0  0  0  0  0  0  0
  1  3  1  0  0  0  0
  1  4  2  0  0  0  0
  2  5  1  0  0  0  0
  2  6  2  0  0  0  0
  3  7  2  0  0  0  0
  4  8  1  0  0  0  0
  5 11  2  0  0  0  0
  6 15  1  0  0  0  0
  7 16  1  0  0  0  0
  8 16  2  0  0  0  0
  9 12  2  0  0  0  0
  9 17  1  0  0  0  0
 10 13  1  0  0  0  0
 10 17  2  0  0  0  0
 11 18  1  0  0  0  0
 12 19  1  0  0  0  0
 13 19  2  0  0  0  0
 14 20  2  0  0  0  0
 14 26  1  0  0  0  0
 15 18  2  0  0  0  0
 15 20  1  0  0  0  0
 16 24  1  0  0  0  0
 17 25  1  0  0  0  0
 18 26  1  0  0  0  0
 19 28  1  0  0  0  0
 20 27  1  0  0  0  0
 21 25  1  0  0  0  0
 21 27  1  0  0  0  0
 21 29  2  0  0  0  0
 22 28  1  0  0  0  0
 23 28  1  0  0  0  0
 24 25  1  1  0  0  0
  1 30  1  0  0  0  0
  2 31  1  0  0  0  0
  3 32  1  0  0  0  0
  4 33  1  0  0  0  0
  5 34  1  0  0  0  0
  6 35  1  0  0  0  0
  7 36  1  0  0  0  0
  8 37  1  0  0  0  0
  9 38  1  0  0  0  0
 10 39  1  0  0  0  0
 11 40  1  0  0  0  0
 12 41  1  0  0  0  0
 13 42  1  0  0  0  0
 14 43  1  0  0  0  0
 22 44  1  0  0  0  0
 22 45  1  0  0  0  0
 22 46  1  0  0  0  0
 23 47  1  0  0  0  0
 23 48  1  0  0  0  0
 23 49  1  0  0  0  0
 24 50  1  0  0  0  0
 24 51  1  0  0  0  0
 25 52  1  0  0  0  0
 26 53  1  0  0  0  0
 27 54  1  0  0  0  0
M  END
> <clash_score>
0

> <docking_score>
-9.405101776123047

> <overlap_score>
0.9993512034416199

$$$$
BENZO_281_2
  -OEChem-08222022193D

 54 57  0     1  0  0  0  0  0999 V2000
   12.9427    3.5803   21.5528 C   0  0  0  0  0  0  0  0  0  0  0  0
    4.2750    1.7050   20.8490 C   0  0  0  0  0  0  0  0  0  0  0  0
   13.2971    2.5494   22.4231 C   0  0  0  0  0  0  0  0  0  0  0  0
   11.5975    3.8801   21.3380 C   0  0  0  0  0  0  0  0  0  0  0  0
    3.9160    2.0630   19.5520 C   0  0  0  0  0  0  0  0  0  0  0  0
    5.4210    0.9600   21.0930 C   0  0  0  0  0  0  0  0  0  0  0  0
   12.3064    1.8183   23.0784 C   0  0  0  0  0  0  0  0  0  0  0  0
   10.6067    3.1489   21.9933 C   0  0  0  0  0  0  0  0  0  0  0  0
    9.0720   -1.1280   24.8640 C   0  0  0  0  0  0  0  0  0  0  0  0
    9.7200   -2.2600   22.8630 C   0  0  0  0  0  0  0  0  0  0  0  0
    4.6890    1.6810   18.4640 C   0  0  0  0  0  0  0  0  0  0  0  0
    8.9960   -2.3380   25.5320 C   0  0  0  0  0  0  0  0  0  0  0  0
    9.6730   -3.4710   23.5300 C   0  0  0  0  0  0  0  0  0  0  0  0
    7.6390   -0.2680   18.5410 C   0  0  0  0  0  0  0  0  0  0  0  0
    6.1790    0.5730   19.9990 C   0  0  0  0  0  0  0  0  0  0  0  0
   10.9611    2.1180   22.8635 C   0  0  0  0  0  0  0  0  0  0  0  0
    9.3350   -1.0880   23.5010 C   0  0  0  0  0  0  0  0  0  0  0  0
    5.8300    0.9190   18.6970 C   0  0  0  0  0  0  0  0  0  0  0  0
    9.3070   -3.5340   24.8780 C   0  0  0  0  0  0  0  0  0  0  0  0
    7.3170   -0.1610   19.8550 C   0  0  0  0  0  0  0  0  0  0  0  0
    9.0420    0.3700   21.5280 C   0  0  0  0  0  0  0  0  0  0  0  0
    8.8766   -4.8075   26.9494 C   0  0  0  0  0  0  0  0  0  0  0  0
    9.5670   -5.9896   24.8578 C   0  0  0  0  0  0  0  0  0  0  0  0
    9.8870    1.3260   23.5730 C   0  0  0  0  0  0  0  0  0  0  0  0
    9.4560    0.1560   22.8130 C   0  0  2  0  0  0  0  0  0  0  0  0
    6.7580    0.3810   17.8350 N   0  0  0  0  0  0  0  0  0  0  0  0
    8.1890   -0.7180   20.8700 N   0  0  0  0  0  0  0  0  0  0  0  0
    9.2556   -4.7554   25.5514 N   0  0  0  0  0  0  0  0  0  0  0  0
    9.2690    1.4140   20.9380 O   0  0  0  0  0  0  0  0  0  0  0  0
   13.7143    4.1504   21.0437 H   0  0  0  0  0  0  0  0  0  0  0  0
    3.6453    2.0152   21.6831 H   0  0  0  0  0  0  0  0  0  0  0  0
   14.3446    2.3166   22.5913 H   0  0  0  0  0  0  0  0  0  0  0  0
   11.3212    4.6833   20.6614 H   0  0  0  0  0  0  0  0  0  0  0  0
    3.0147    2.6520   19.3913 H   0  0  0  0  0  0  0  0  0  0  0  0
    5.6991    0.6995   22.1042 H   0  0  0  0  0  0  0  0  0  0  0  0
   12.5919    1.0166   23.7545 H   0  0  0  0  0  0  0  0  0  0  0  0
    9.5612    3.3895   21.8196 H   0  0  0  0  0  0  0  0  0  0  0  0
    8.9214   -0.1986   25.4206 H   0  0  0  0  0  0  0  0  0  0  0  0
   10.0622   -2.2326   21.8251 H   0  0  0  0  0  0  0  0  0  0  0  0
    4.4051    1.9733   17.4488 H   0  0  0  0  0  0  0  0  0  0  0  0
    8.6882   -2.3542   26.5803 H   0  0  0  0  0  0  0  0  0  0  0  0
    9.9258   -4.3896   22.9914 H   0  0  0  0  0  0  0  0  0  0  0  0
    8.4825   -0.7940   18.0623 H   0  0  0  0  0  0  0  0  0  0  0  0
    8.8956   -5.8512   27.2963 H   0  0  0  0  0  0  0  0  0  0  0  0
    9.5845   -4.2109   27.5435 H   0  0  0  0  0  0  0  0  0  0  0  0
    7.8621   -4.3997   27.0696 H   0  0  0  0  0  0  0  0  0  0  0  0
    9.4708   -6.8361   25.5536 H   0  0  0  0  0  0  0  0  0  0  0  0
    8.8693   -6.1242   24.0181 H   0  0  0  0  0  0  0  0  0  0  0  0
   10.5973   -5.9450   24.4750 H   0  0  0  0  0  0  0  0  0  0  0  0
   10.2455    1.0419   24.5710 H   0  0  0  0  0  0  0  0  0  0  0  0
    9.0345    1.9965   23.7496 H   0  0  0  0  0  0  0  0  0  0  0  0
   10.7927   -0.1029   22.4279 H   0  0  0  0  0  0  0  0  0  0  0  0
    6.7266    0.4930   16.8305 H   0  0  0  0  0  0  0  0  0  0  0  0
    8.2408   -1.5631   21.0968 H   0  0  0  0  0  0  0  0  0  0  0  0
  1  3  1  0  0  0  0
  1  4  2  0  0  0  0
  2  5  1  0  0  0  0
  2  6  2  0  0  0  0
  3  7  2  0  0  0  0
  4  8  1  0  0  0  0
  5 11  2  0  0  0  0
  6 15  1  0  0  0  0
  7 16  1  0  0  0  0
  8 16  2  0  0  0  0
  9 12  2  0  0  0  0
  9 17  1  0  0  0  0
 10 13  1  0  0  0  0
 10 17  2  0  0  0  0
 11 18  1  0  0  0  0
 12 19  1  0  0  0  0
 13 19  2  0  0  0  0
 14 20  2  0  0  0  0
 14 26  1  0  0  0  0
 15 18  2  0  0  0  0
 15 20  1  0  0  0  0
 16 24  1  0  0  0  0
 17 25  1  0  0  0  0
 18 26  1  0  0  0  0
 19 28  1  0  0  0  0
 20 27  1  0  0  0  0
 21 25  1  0  0  0  0
 21 27  1  0  0  0  0
 21 29  2  0  0  0  0
 22 28  1  0  0  0  0
 23 28  1  0  0  0  0
 24 25  1  6  0  0  0
  1 30  1  0  0  0  0
  2 31  1  0  0  0  0
  3 32  1  0  0  0  0
  4 33  1  0  0  0  0
  5 34  1  0  0  0  0
  6 35  1  0  0  0  0
  7 36  1  0  0  0  0
  8 37  1  0  0  0  0
  9 38  1  0  0  0  0
 10 39  1  0  0  0  0
 11 40  1  0  0  0  0
 12 41  1  0  0  0  0
 13 42  1  0  0  0  0
 14 43  1  0  0  0  0
 22 44  1  0  0  0  0
 22 45  1  0  0  0  0
 22 46  1  0  0  0  0
 23 47  1  0  0  0  0
 23 48  1  0  0  0  0
 23 49  1  0  0  0  0
 24 50  1  0  0  0  0
 24 51  1  0  0  0  0
 25 52  1  0  0  0  0
 26 53  1  0  0  0  0
 27 54  1  0  0  0  0
M  END
> <clash_score>
0.6163868389900387

> <docking_score>
-9.00411605834961

> <overlap_score>
0.961371898651123

$$$$
BENZO_280_2
  -OEChem-08222022193D

 51 54  0     1  0  0  0  0  0999 V2000
    4.2750    1.7050   20.8490 C   0  0  0  0  0  0  0  0  0  0  0  0
    3.9160    2.0630   19.5520 C   0  0  0  0  0  0  0  0  0  0  0  0
    5.4210    0.9600   21.0930 C   0  0  0  0  0  0  0  0  0  0  0  0
    9.0720   -1.1280   24.8640 C   0  0  0  0  0  0  0  0  0  0  0  0
    9.7200   -2.2600   22.8630 C   0  0  0  0  0  0  0  0  0  0  0  0
    4.6890    1.6810   18.4640 C   0  0  0  0  0  0  0  0  0  0  0  0
    8.9960   -2.3380   25.5320 C   0  0  0  0  0  0  0  0  0  0  0  0
    9.6730   -3.4710   23.5300 C   0  0  0  0  0  0  0  0  0  0  0  0
   12.3907    0.6679   23.6950 C   0  0  0  0  0  0  0  0  0  0  0  0
    7.6390   -0.2680   18.5410 C   0  0  0  0  0  0  0  0  0  0  0  0
   13.4189    0.5308   24.6014 C   0  0  0  0  0  0  0  0  0  0  0  0
   11.3314    1.2632   25.6764 C   0  0  0  0  0  0  0  0  0  0  0  0
    6.1790    0.5730   19.9990 C   0  0  0  0  0  0  0  0  0  0  0  0
    9.3350   -1.0880   23.5010 C   0  0  0  0  0  0  0  0  0  0  0  0
   11.1814    1.0923   24.3176 C   0  0  0  0  0  0  0  0  0  0  0  0
    5.8300    0.9190   18.6970 C   0  0  0  0  0  0  0  0  0  0  0  0
    9.3070   -3.5340   24.8780 C   0  0  0  0  0  0  0  0  0  0  0  0
    7.3170   -0.1610   19.8550 C   0  0  0  0  0  0  0  0  0  0  0  0
    9.0420    0.3700   21.5280 C   0  0  0  0  0  0  0  0  0  0  0  0
    8.0148   -5.2164   26.1419 C   0  0  0  0  0  0  0  0  0  0  0  0
   10.4390   -5.5857   25.6570 C   0  0  0  0  0  0  0  0  0  0  0  0
    9.8870    1.3260   23.5730 C   0  0  0  0  0  0  0  0  0  0  0  0
    9.4560    0.1560   22.8130 C   0  0  2  0  0  0  0  0  0  0  0  0
    6.7580    0.3810   17.8350 N   0  0  0  0  0  0  0  0  0  0  0  0
    8.1890   -0.7180   20.8700 N   0  0  0  0  0  0  0  0  0  0  0  0
    9.2556   -4.7554   25.5514 N   0  0  0  0  0  0  0  0  0  0  0  0
    9.2690    1.4140   20.9380 O   0  0  0  0  0  0  0  0  0  0  0  0
   12.9250    0.9128   26.1959 S   0  0  0  0  0  0  0  0  0  0  0  0
    3.6453    2.0152   21.6831 H   0  0  0  0  0  0  0  0  0  0  0  0
    3.0147    2.6520   19.3913 H   0  0  0  0  0  0  0  0  0  0  0  0
    5.6991    0.6995   22.1042 H   0  0  0  0  0  0  0  0  0  0  0  0
    8.9214   -0.1986   25.4206 H   0  0  0  0  0  0  0  0  0  0  0  0
   10.0622   -2.2326   21.8251 H   0  0  0  0  0  0  0  0  0  0  0  0
    4.4051    1.9733   17.4488 H   0  0  0  0  0  0  0  0  0  0  0  0
    8.6882   -2.3542   26.5803 H   0  0  0  0  0  0  0  0  0  0  0  0
    9.9258   -4.3896   22.9914 H   0  0  0  0  0  0  0  0  0  0  0  0
   12.5049    0.4716   22.6364 H   0  0  0  0  0  0  0  0  0  0  0  0
    8.4825   -0.7940   18.0623 H   0  0  0  0  0  0  0  0  0  0  0  0
   14.4362    0.2239   24.4037 H   0  0  0  0  0  0  0  0  0  0  0  0
   10.5839    1.5756   26.3924 H   0  0  0  0  0  0  0  0  0  0  0  0
    8.1775   -6.1919   26.6235 H   0  0  0  0  0  0  0  0  0  0  0  0
    7.6740   -4.4889   26.8933 H   0  0  0  0  0  0  0  0  0  0  0  0
    7.2508   -5.3181   25.3570 H   0  0  0  0  0  0  0  0  0  0  0  0
   10.1974   -6.4996   26.2196 H   0  0  0  0  0  0  0  0  0  0  0  0
   10.7877   -5.8568   24.6496 H   0  0  0  0  0  0  0  0  0  0  0  0
   11.2305   -5.0307   26.1819 H   0  0  0  0  0  0  0  0  0  0  0  0
    9.1131    1.6463   24.2828 H   0  0  0  0  0  0  0  0  0  0  0  0
   10.0354    2.1807   22.8984 H   0  0  0  0  0  0  0  0  0  0  0  0
   10.7927   -0.1029   22.4279 H   0  0  0  0  0  0  0  0  0  0  0  0
    6.7266    0.4930   16.8305 H   0  0  0  0  0  0  0  0  0  0  0  0
    8.2408   -1.5631   21.0968 H   0  0  0  0  0  0  0  0  0  0  0  0
  1  2  1  0  0  0  0
  1  3  2  0  0  0  0
  2  6  2  0  0  0  0
  3 13  1  0  0  0  0
  4  7  2  0  0  0  0
  4 14  1  0  0  0  0
  5  8  1  0  0  0  0
  5 14  2  0  0  0  0
  6 16  1  0  0  0  0
  7 17  1  0  0  0  0
  8 17  2  0  0  0  0
  9 11  2  0  0  0  0
  9 15  1  0  0  0  0
 10 18  2  0  0  0  0
 10 24  1  0  0  0  0
 11 28  1  0  0  0  0
 12 15  2  0  0  0  0
 12 28  1  0  0  0  0
 13 16  2  0  0  0  0
 13 18  1  0  0  0  0
 14 23  1  0  0  0  0
 15 22  1  0  0  0  0
 16 24  1  0  0  0  0
 17 26  1  0  0  0  0
 18 25  1  0  0  0  0
 19 23  1  0  0  0  0
 19 25  1  0  0  0  0
 19 27  2  0  0  0  0
 20 26  1  0  0  0  0
 21 26  1  0  0  0  0
 22 23  1  6  0  0  0
  1 29  1  0  0  0  0
  2 30  1  0  0  0  0
  3 31  1  0  0  0  0
  4 32  1  0  0  0  0
  5 33  1  0  0  0  0
  6 34  1  0  0  0  0
  7 35  1  0  0  0  0
  8 36  1  0  0  0  0
  9 37  1  0  0  0  0
 10 38  1  0  0  0  0
 11 39  1  0  0  0  0
 12 40  1  0  0  0  0
 20 41  1  0  0  0  0
 20 42  1  0  0  0  0
 20 43  1  0  0  0  0
 21 44  1  0  0  0  0
 21 45  1  0  0  0  0
 21 46  1  0  0  0  0
 22 47  1  0  0  0  0
 22 48  1  0  0  0  0
 23 49  1  0  0  0  0
 24 50  1  0  0  0  0
 25 51  1  0  0  0  0
M  END
> <clash_score>
0.6216861097175569

> <docking_score>
-7.755133628845215

> <overlap_score>
0.9070501327514648

$$$$
BENZO_279_2
  -OEChem-08222022193D

 57 61  0     1  0  0  0  0  0999 V2000
    9.0720   -1.1280   24.8640 C   0  0  0  0  0  0  0  0  0  0  0  0
    9.7200   -2.2600   22.8630 C   0  0  0  0  0  0  0  0  0  0  0  0
    8.9960   -2.3380   25.5320 C   0  0  0  0  0  0  0  0  0  0  0  0
    9.6730   -3.4710   23.5300 C   0  0  0  0  0  0  0  0  0  0  0  0
   12.3549    1.9792   22.9728 C   0  0  0  0  0  0  0  0  0  0  0  0
   10.7877    3.1780   22.0023 C   0  0  0  0  0  0  0  0  0  0  0  0
    9.3350   -1.0880   23.5010 C   0  0  0  0  0  0  0  0  0  0  0  0
   10.9588    2.1320   22.8759 C   0  0  0  0  0  0  0  0  0  0  0  0
    9.3070   -3.5340   24.8780 C   0  0  0  0  0  0  0  0  0  0  0  0
    6.1790    0.5730   19.9990 C   0  0  0  0  0  0  0  0  0  0  0  0
    7.3170   -0.1610   19.8550 C   0  0  0  0  0  0  0  0  0  0  0  0
    5.4210    0.9600   21.0930 C   0  0  0  0  0  0  0  0  0  0  0  0
    4.2750    1.7050   20.8490 C   0  0  0  0  0  0  0  0  0  0  0  0
    3.9160    2.0630   19.5520 C   0  0  0  0  0  0  0  0  0  0  0  0
    4.6890    1.6810   18.4640 C   0  0  0  0  0  0  0  0  0  0  0  0
    9.0420    0.3700   21.5280 C   0  0  0  0  0  0  0  0  0  0  0  0
    9.5176   -4.8600   26.9769 C   0  0  0  0  0  0  0  0  0  0  0  0
    8.5166   -5.8725   24.9805 C   0  0  0  0  0  0  0  0  0  0  0  0
    8.1870   -5.0443   27.6986 C   0  0  0  0  0  0  0  0  0  0  0  0
    7.2201   -6.0348   25.7753 C   0  0  0  0  0  0  0  0  0  0  0  0
   12.3765    4.6444   20.7357 C   0  0  0  0  0  0  0  0  0  0  0  0
    9.8870    1.3260   23.5730 C   0  0  0  0  0  0  0  0  0  0  0  0
    9.4560    0.1560   22.8130 C   0  0  2  0  0  0  0  0  0  0  0  0
   13.0232    2.8576   22.2206 N   0  0  0  0  0  0  0  0  0  0  0  0
    7.6390   -0.2680   18.5410 N   0  0  0  0  0  0  0  0  0  0  0  0
    6.7580    0.3810   17.8350 N   0  0  0  0  0  0  0  0  0  0  0  0
   12.0428    3.5725   21.6427 N   0  0  0  0  0  0  0  0  0  0  0  0
    5.8300    0.9190   18.6970 N   0  0  0  0  0  0  0  0  0  0  0  0
    9.2564   -4.7368   25.5411 N   0  0  0  0  0  0  0  0  0  0  0  0
    8.1890   -0.7180   20.8700 N   0  0  0  0  0  0  0  0  0  0  0  0
    9.2690    1.4140   20.9380 O   0  0  0  0  0  0  0  0  0  0  0  0
    7.4995   -6.1856   27.1717 O   0  0  0  0  0  0  0  0  0  0  0  0
    8.9214   -0.1986   25.4206 H   0  0  0  0  0  0  0  0  0  0  0  0
   10.0622   -2.2326   21.8251 H   0  0  0  0  0  0  0  0  0  0  0  0
    8.6882   -2.3542   26.5803 H   0  0  0  0  0  0  0  0  0  0  0  0
    9.9258   -4.3896   22.9914 H   0  0  0  0  0  0  0  0  0  0  0  0
   12.9154    1.2645   23.5587 H   0  0  0  0  0  0  0  0  0  0  0  0
    9.9018    3.6623   21.6145 H   0  0  0  0  0  0  0  0  0  0  0  0
    5.6855    0.7074   22.1002 H   0  0  0  0  0  0  0  0  0  0  0  0
    3.6634    2.0034   21.6926 H   0  0  0  0  0  0  0  0  0  0  0  0
    3.0111    2.6563   19.3629 H   0  0  0  0  0  0  0  0  0  0  0  0
    4.4370    1.9522   17.4626 H   0  0  0  0  0  0  0  0  0  0  0  0
   10.0207   -3.9702   27.3608 H   0  0  0  0  0  0  0  0  0  0  0  0
   10.1536   -5.7313   27.1546 H   0  0  0  0  0  0  0  0  0  0  0  0
    9.1181   -6.7774   25.0751 H   0  0  0  0  0  0  0  0  0  0  0  0
    8.2812   -5.7063   23.9302 H   0  0  0  0  0  0  0  0  0  0  0  0
    8.3631   -5.2257   28.7609 H   0  0  0  0  0  0  0  0  0  0  0  0
    7.5532   -4.1574   27.6103 H   0  0  0  0  0  0  0  0  0  0  0  0
    6.5460   -5.1840   25.6220 H   0  0  0  0  0  0  0  0  0  0  0  0
    6.6948   -6.9355   25.4433 H   0  0  0  0  0  0  0  0  0  0  0  0
   12.4726    5.5632   21.3202 H   0  0  0  0  0  0  0  0  0  0  0  0
   13.3178    4.4131   20.2294 H   0  0  0  0  0  0  0  0  0  0  0  0
   11.5839    4.7460   19.9892 H   0  0  0  0  0  0  0  0  0  0  0  0
   10.2417    1.0375   24.5711 H   0  0  0  0  0  0  0  0  0  0  0  0
    9.0279    1.9881   23.7492 H   0  0  0  0  0  0  0  0  0  0  0  0
   10.7949   -0.0994   22.4253 H   0  0  0  0  0  0  0  0  0  0  0  0
    8.2585   -1.5522   21.1129 H   0  0  0  0  0  0  0  0  0  0  0  0
  1  3  2  0  0  0  0
  1  7  1  0  0  0  0
  2  4  1  0  0  0  0
  2  7  2  0  0  0  0
  3  9  1  0  0  0  0
  4  9  2  0  0  0  0
  5  8  1  0  0  0  0
  5 24  2  0  0  0  0
  6  8  2  0  0  0  0
  6 27  1  0  0  0  0
  7 23  1  0  0  0  0
  8 22  1  0  0  0  0
  9 29  1  0  0  0  0
 10 11  2  0  0  0  0
 10 12  1  0  0  0  0
 10 28  1  0  0  0  0
 11 25  1  0  0  0  0
 11 30  1  0  0  0  0
 12 13  2  0  0  0  0
 13 14  1  0  0  0  0
 14 15  2  0  0  0  0
 15 28  1  0  0  0  0
 16 23  1  0  0  0  0
 16 30  1  0  0  0  0
 16 31  2  0  0  0  0
 17 19  1  0  0  0  0
 17 29  1  0  0  0  0
 18 20  1  0  0  0  0
 18 29  1  0  0  0  0
 19 32  1  0  0  0  0
 20 32  1  0  0  0  0
 21 27  1  0  0  0  0
 22 23  1  6  0  0  0
 24 27  1  0  0  0  0
 25 26  2  0  0  0  0
 26 28  1  0  0  0  0
  1 33  1  0  0  0  0
  2 34  1  0  0  0  0
  3 35  1  0  0  0  0
  4 36  1  0  0  0  0
  5 37  1  0  0  0  0
  6 38  1  0  0  0  0
 12 39  1  0  0  0  0
 13 40  1  0  0  0  0
 14 41  1  0  0  0  0
 15 42  1  0  0  0  0
 17 43  1  0  0  0  0
 17 44  1  0  0  0  0
 18 45  1  0  0  0  0
 18 46  1  0  0  0  0
 19 47  1  0  0  0  0
 19 48  1  0  0  0  0
 20 49  1  0  0  0  0
 20 50  1  0  0  0  0
 21 51  1  0  0  0  0
 21 52  1  0  0  0  0
 21 53  1  0  0  0  0
 22 54  1  0  0  0  0
 22 55  1  0  0  0  0
 23 56  1  0  0  0  0
 30 57  1  0  0  0  0
M  END
> <clash_score>
0

> <docking_score>
-8.04666519165039

> <overlap_score>
0.9648752212524414

$$$$
BENZO_278_2
  -OEChem-08222022193D

 57 61  0     1  0  0  0  0  0999 V2000
   13.6270    0.7091   23.2981 C   0  0  0  0  0  0  0  0  0  0  0  0
   12.2510    0.4886   23.3573 C   0  0  0  0  0  0  0  0  0  0  0  0
    9.0720   -1.1280   24.8640 C   0  0  0  0  0  0  0  0  0  0  0  0
    9.7200   -2.2600   22.8630 C   0  0  0  0  0  0  0  0  0  0  0  0
    8.9960   -2.3380   25.5320 C   0  0  0  0  0  0  0  0  0  0  0  0
    9.6730   -3.4710   23.5300 C   0  0  0  0  0  0  0  0  0  0  0  0
   14.1301    2.0068   23.3918 C   0  0  0  0  0  0  0  0  0  0  0  0
   11.8810    2.8633   23.6037 C   0  0  0  0  0  0  0  0  0  0  0  0
    9.3350   -1.0880   23.5010 C   0  0  0  0  0  0  0  0  0  0  0  0
   11.3780    1.5657   23.5101 C   0  0  0  0  0  0  0  0  0  0  0  0
    9.3070   -3.5340   24.8780 C   0  0  0  0  0  0  0  0  0  0  0  0
   13.2570    3.0839   23.5445 C   0  0  0  0  0  0  0  0  0  0  0  0
    6.1790    0.5730   19.9990 C   0  0  0  0  0  0  0  0  0  0  0  0
    7.3170   -0.1610   19.8550 C   0  0  0  0  0  0  0  0  0  0  0  0
    5.4210    0.9600   21.0930 C   0  0  0  0  0  0  0  0  0  0  0  0
    4.2750    1.7050   20.8490 C   0  0  0  0  0  0  0  0  0  0  0  0
    3.9160    2.0630   19.5520 C   0  0  0  0  0  0  0  0  0  0  0  0
    4.6890    1.6810   18.4640 C   0  0  0  0  0  0  0  0  0  0  0  0
    9.0420    0.3700   21.5280 C   0  0  0  0  0  0  0  0  0  0  0  0
   10.0772   -5.0257   26.7191 C   0  0  0  0  0  0  0  0  0  0  0  0
    8.0927   -5.6196   25.4069 C   0  0  0  0  0  0  0  0  0  0  0  0
    9.1935   -4.9431   27.9590 C   0  0  0  0  0  0  0  0  0  0  0  0
    7.2758   -5.5292   26.6966 C   0  0  0  0  0  0  0  0  0  0  0  0
    9.8870    1.3260   23.5730 C   0  0  0  0  0  0  0  0  0  0  0  0
    9.4560    0.1560   22.8130 C   0  0  2  0  0  0  0  0  0  0  0  0
    7.6390   -0.2680   18.5410 N   0  0  0  0  0  0  0  0  0  0  0  0
    6.7580    0.3810   17.8350 N   0  0  0  0  0  0  0  0  0  0  0  0
    5.8300    0.9190   18.6970 N   0  0  0  0  0  0  0  0  0  0  0  0
    9.2564   -4.7368   25.5411 N   0  0  0  0  0  0  0  0  0  0  0  0
    8.1890   -0.7180   20.8700 N   0  0  0  0  0  0  0  0  0  0  0  0
    9.2690    1.4140   20.9380 O   0  0  0  0  0  0  0  0  0  0  0  0
    8.0884   -5.8462   27.8322 O   0  0  0  0  0  0  0  0  0  0  0  0
   13.8782    4.6848   23.6588 Cl  0  0  0  0  0  0  0  0  0  0  0  0
   14.3065   -0.1299   23.1790 H   0  0  0  0  0  0  0  0  0  0  0  0
   11.8679   -0.5259   23.2835 H   0  0  0  0  0  0  0  0  0  0  0  0
    8.9214   -0.1986   25.4206 H   0  0  0  0  0  0  0  0  0  0  0  0
   10.0622   -2.2326   21.8251 H   0  0  0  0  0  0  0  0  0  0  0  0
    8.6882   -2.3542   26.5803 H   0  0  0  0  0  0  0  0  0  0  0  0
    9.9258   -4.3896   22.9914 H   0  0  0  0  0  0  0  0  0  0  0  0
   15.2048    2.1638   23.3438 H   0  0  0  0  0  0  0  0  0  0  0  0
   11.1962    3.6997   23.7233 H   0  0  0  0  0  0  0  0  0  0  0  0
    5.6855    0.7074   22.1002 H   0  0  0  0  0  0  0  0  0  0  0  0
    3.6634    2.0034   21.6926 H   0  0  0  0  0  0  0  0  0  0  0  0
    3.0111    2.6563   19.3629 H   0  0  0  0  0  0  0  0  0  0  0  0
    4.4370    1.9522   17.4626 H   0  0  0  0  0  0  0  0  0  0  0  0
   10.8986   -4.3117   26.8083 H   0  0  0  0  0  0  0  0  0  0  0  0
   10.4916   -6.0336   26.6319 H   0  0  0  0  0  0  0  0  0  0  0  0
    8.4328   -6.6457   25.2617 H   0  0  0  0  0  0  0  0  0  0  0  0
    7.4726   -5.3240   24.5618 H   0  0  0  0  0  0  0  0  0  0  0  0
    9.7638   -5.2402   28.8416 H   0  0  0  0  0  0  0  0  0  0  0  0
    8.8238   -3.9272   28.1248 H   0  0  0  0  0  0  0  0  0  0  0  0
    6.8340   -4.5339   26.8232 H   0  0  0  0  0  0  0  0  0  0  0  0
    6.4551   -6.2523   26.6641 H   0  0  0  0  0  0  0  0  0  0  0  0
    9.5760    1.2490   24.6231 H   0  0  0  0  0  0  0  0  0  0  0  0
    9.3844    2.2230   23.1853 H   0  0  0  0  0  0  0  0  0  0  0  0
    8.0674    0.5009   23.2732 H   0  0  0  0  0  0  0  0  0  0  0  0
    8.2585   -1.5522   21.1129 H   0  0  0  0  0  0  0  0  0  0  0  0
  1  2  2  0  0  0  0
  1  7  1  0  0  0  0
  2 10  1  0  0  0  0
  3  5  2  0  0  0  0
  3  9  1  0  0  0  0
  4  6  1  0  0  0  0
  4  9  2  0  0  0  0
  5 11  1  0  0  0  0
  6 11  2  0  0  0  0
  7 12  2  0  0  0  0
  8 10  2  0  0  0  0
  8 12  1  0  0  0  0
  9 25  1  0  0  0  0
 10 24  1  0  0  0  0
 11 29  1  0  0  0  0
 12 33  1  0  0  0  0
 13 14  2  0  0  0  0
 13 15  1  0  0  0  0
 13 28  1  0  0  0  0
 14 26  1  0  0  0  0
 14 30  1  0  0  0  0
 15 16  2  0  0  0  0
 16 17  1  0  0  0  0
 17 18  2  0  0  0  0
 18 28  1  0  0  0  0
 19 25  1  6  0  0  0
 19 30  1  0  0  0  0
 19 31  2  0  0  0  0
 20 22  1  0  0  0  0
 20 29  1  0  0  0  0
 21 23  1  0  0  0  0
 21 29  1  0  0  0  0
 22 32  1  0  0  0  0
 23 32  1  0  0  0  0
 24 25  1  0  0  0  0
 26 27  2  0  0  0  0
 27 28  1  0  0  0  0
  1 34  1  0  0  0  0
  2 35  1  0  0  0  0
  3 36  1  0  0  0  0
  4 37  1  0  0  0  0
  5 38  1  0  0  0  0
  6 39  1  0  0  0  0
  7 40  1  0  0  0  0
  8 41  1  0  0  0  0
 15 42  1  0  0  0  0
 16 43  1  0  0  0  0
 17 44  1  0  0  0  0
 18 45  1  0  0  0  0
 20 46  1  0  0  0  0
 20 47  1  0  0  0  0
 21 48  1  0  0  0  0
 21 49  1  0  0  0  0
 22 50  1  0  0  0  0
 22 51  1  0  0  0  0
 23 52  1  0  0  0  0
 23 53  1  0  0  0  0
 24 54  1  0  0  0  0
 24 55  1  0  0  0  0
 25 56  1  0  0  0  0
 30 57  1  0  0  0  0
M  END
> <clash_score>
0

> <docking_score>
-9.030244827270508

> <overlap_score>
1.0125887393951416

$$$$
BENZO_279_1
  -OEChem-08222022193D

 57 61  0     1  0  0  0  0  0999 V2000
    9.0720   -1.1280   24.8640 C   0  0  0  0  0  0  0  0  0  0  0  0
    9.7200   -2.2600   22.8630 C   0  0  0  0  0  0  0  0  0  0  0  0
    8.9960   -2.3380   25.5320 C   0  0  0  0  0  0  0  0  0  0  0  0
    9.6730   -3.4710   23.5300 C   0  0  0  0  0  0  0  0  0  0  0  0
   12.0594    2.7949   23.5898 C   0  0  0  0  0  0  0  0  0  0  0  0
   12.3731    0.6302   23.3648 C   0  0  0  0  0  0  0  0  0  0  0  0
    9.3350   -1.0880   23.5010 C   0  0  0  0  0  0  0  0  0  0  0  0
   11.3780    1.5657   23.5101 C   0  0  0  0  0  0  0  0  0  0  0  0
    9.3070   -3.5340   24.8780 C   0  0  0  0  0  0  0  0  0  0  0  0
    6.1790    0.5730   19.9990 C   0  0  0  0  0  0  0  0  0  0  0  0
    7.3170   -0.1610   19.8550 C   0  0  0  0  0  0  0  0  0  0  0  0
    5.4210    0.9600   21.0930 C   0  0  0  0  0  0  0  0  0  0  0  0
    4.2750    1.7050   20.8490 C   0  0  0  0  0  0  0  0  0  0  0  0
    3.9160    2.0630   19.5520 C   0  0  0  0  0  0  0  0  0  0  0  0
    4.6890    1.6810   18.4640 C   0  0  0  0  0  0  0  0  0  0  0  0
    9.0420    0.3700   21.5280 C   0  0  0  0  0  0  0  0  0  0  0  0
   10.0772   -5.0257   26.7191 C   0  0  0  0  0  0  0  0  0  0  0  0
    8.0927   -5.6196   25.4069 C   0  0  0  0  0  0  0  0  0  0  0  0
    9.1935   -4.9431   27.9590 C   0  0  0  0  0  0  0  0  0  0  0  0
    7.2758   -5.5292   26.6966 C   0  0  0  0  0  0  0  0  0  0  0  0
   14.8715    0.7756   23.2396 C   0  0  0  0  0  0  0  0  0  0  0  0
    9.8870    1.3260   23.5730 C   0  0  0  0  0  0  0  0  0  0  0  0
    9.4560    0.1560   22.8130 C   0  0  1  0  0  0  0  0  0  0  0  0
   13.3850    2.6563   23.5026 N   0  0  0  0  0  0  0  0  0  0  0  0
    7.6390   -0.2680   18.5410 N   0  0  0  0  0  0  0  0  0  0  0  0
    6.7580    0.3810   17.8350 N   0  0  0  0  0  0  0  0  0  0  0  0
   13.5445    1.3288   23.3666 N   0  0  0  0  0  0  0  0  0  0  0  0
    5.8300    0.9190   18.6970 N   0  0  0  0  0  0  0  0  0  0  0  0
    9.2564   -4.7368   25.5411 N   0  0  0  0  0  0  0  0  0  0  0  0
    8.1890   -0.7180   20.8700 N   0  0  0  0  0  0  0  0  0  0  0  0
    9.2690    1.4140   20.9380 O   0  0  0  0  0  0  0  0  0  0  0  0
    8.0884   -5.8462   27.8322 O   0  0  0  0  0  0  0  0  0  0  0  0
    8.9214   -0.1986   25.4206 H   0  0  0  0  0  0  0  0  0  0  0  0
   10.0622   -2.2326   21.8251 H   0  0  0  0  0  0  0  0  0  0  0  0
    8.6882   -2.3542   26.5803 H   0  0  0  0  0  0  0  0  0  0  0  0
    9.9258   -4.3896   22.9914 H   0  0  0  0  0  0  0  0  0  0  0  0
   11.6476    3.7871   23.7088 H   0  0  0  0  0  0  0  0  0  0  0  0
   12.3482   -0.4464   23.2641 H   0  0  0  0  0  0  0  0  0  0  0  0
    5.6855    0.7074   22.1002 H   0  0  0  0  0  0  0  0  0  0  0  0
    3.6634    2.0034   21.6926 H   0  0  0  0  0  0  0  0  0  0  0  0
    3.0111    2.6563   19.3629 H   0  0  0  0  0  0  0  0  0  0  0  0
    4.4370    1.9522   17.4626 H   0  0  0  0  0  0  0  0  0  0  0  0
   10.8986   -4.3117   26.8083 H   0  0  0  0  0  0  0  0  0  0  0  0
   10.4916   -6.0336   26.6319 H   0  0  0  0  0  0  0  0  0  0  0  0
    8.4328   -6.6457   25.2617 H   0  0  0  0  0  0  0  0  0  0  0  0
    7.4726   -5.3240   24.5618 H   0  0  0  0  0  0  0  0  0  0  0  0
    9.7638   -5.2402   28.8416 H   0  0  0  0  0  0  0  0  0  0  0  0
    8.8238   -3.9272   28.1248 H   0  0  0  0  0  0  0  0  0  0  0  0
    6.8340   -4.5339   26.8232 H   0  0  0  0  0  0  0  0  0  0  0  0
    6.4551   -6.2523   26.6641 H   0  0  0  0  0  0  0  0  0  0  0  0
   15.1240    0.7456   22.1764 H   0  0  0  0  0  0  0  0  0  0  0  0
   15.5818    1.4045   23.7836 H   0  0  0  0  0  0  0  0  0  0  0  0
   14.8855   -0.2314   23.6656 H   0  0  0  0  0  0  0  0  0  0  0  0
    9.5760    1.2490   24.6231 H   0  0  0  0  0  0  0  0  0  0  0  0
    9.3844    2.2230   23.1853 H   0  0  0  0  0  0  0  0  0  0  0  0
    8.0674    0.5009   23.2732 H   0  0  0  0  0  0  0  0  0  0  0  0
    8.2585   -1.5522   21.1129 H   0  0  0  0  0  0  0  0  0  0  0  0
  1  3  2  0  0  0  0
  1  7  1  0  0  0  0
  2  4  1  0  0  0  0
  2  7  2  0  0  0  0
  3  9  1  0  0  0  0
  4  9  2  0  0  0  0
  5  8  1  0  0  0  0
  5 24  2  0  0  0  0
  6  8  2  0  0  0  0
  6 27  1  0  0  0  0
  7 23  1  0  0  0  0
  8 22  1  0  0  0  0
  9 29  1  0  0  0  0
 10 11  2  0  0  0  0
 10 12  1  0  0  0  0
 10 28  1  0  0  0  0
 11 25  1  0  0  0  0
 11 30  1  0  0  0  0
 12 13  2  0  0  0  0
 13 14  1  0  0  0  0
 14 15  2  0  0  0  0
 15 28  1  0  0  0  0
 16 23  1  0  0  0  0
 16 30  1  0  0  0  0
 16 31  2  0  0  0  0
 17 19  1  0  0  0  0
 17 29  1  0  0  0  0
 18 20  1  0  0  0  0
 18 29  1  0  0  0  0
 19 32  1  0  0  0  0
 20 32  1  0  0  0  0
 21 27  1  0  0  0  0
 22 23  1  1  0  0  0
 24 27  1  0  0  0  0
 25 26  2  0  0  0  0
 26 28  1  0  0  0  0
  1 33  1  0  0  0  0
  2 34  1  0  0  0  0
  3 35  1  0  0  0  0
  4 36  1  0  0  0  0
  5 37  1  0  0  0  0
  6 38  1  0  0  0  0
 12 39  1  0  0  0  0
 13 40  1  0  0  0  0
 14 41  1  0  0  0  0
 15 42  1  0  0  0  0
 17 43  1  0  0  0  0
 17 44  1  0  0  0  0
 18 45  1  0  0  0  0
 18 46  1  0  0  0  0
 19 47  1  0  0  0  0
 19 48  1  0  0  0  0
 20 49  1  0  0  0  0
 20 50  1  0  0  0  0
 21 51  1  0  0  0  0
 21 52  1  0  0  0  0
 21 53  1  0  0  0  0
 22 54  1  0  0  0  0
 22 55  1  0  0  0  0
 23 56  1  0  0  0  0
 30 57  1  0  0  0  0
M  END
> <clash_score>
0

> <docking_score>
-9.339947700500488

> <overlap_score>
1.0117695331573486

$$$$
BENZO_282_1
  -OEChem-08222022193D

 54 57  0     1  0  0  0  0  0999 V2000
    4.2750    1.7050   20.8490 C   0  0  0  0  0  0  0  0  0  0  0  0
    3.9160    2.0630   19.5520 C   0  0  0  0  0  0  0  0  0  0  0  0
   13.6189    0.6768   23.2648 C   0  0  0  0  0  0  0  0  0  0  0  0
    5.4210    0.9600   21.0930 C   0  0  0  0  0  0  0  0  0  0  0  0
   12.2417    0.4681   23.3367 C   0  0  0  0  0  0  0  0  0  0  0  0
    9.0720   -1.1280   24.8640 C   0  0  0  0  0  0  0  0  0  0  0  0
    9.7200   -2.2600   22.8630 C   0  0  0  0  0  0  0  0  0  0  0  0
    4.6890    1.6810   18.4640 C   0  0  0  0  0  0  0  0  0  0  0  0
    8.9960   -2.3380   25.5320 C   0  0  0  0  0  0  0  0  0  0  0  0
    9.6730   -3.4710   23.5300 C   0  0  0  0  0  0  0  0  0  0  0  0
   14.1339    1.9702   23.3527 C   0  0  0  0  0  0  0  0  0  0  0  0
   11.8943    2.8462   23.5844 C   0  0  0  0  0  0  0  0  0  0  0  0
    7.6390   -0.2680   18.5410 C   0  0  0  0  0  0  0  0  0  0  0  0
    6.1790    0.5730   19.9990 C   0  0  0  0  0  0  0  0  0  0  0  0
    9.3350   -1.0880   23.5010 C   0  0  0  0  0  0  0  0  0  0  0  0
   11.3794    1.5528   23.4964 C   0  0  0  0  0  0  0  0  0  0  0  0
    5.8300    0.9190   18.6970 C   0  0  0  0  0  0  0  0  0  0  0  0
    9.3070   -3.5340   24.8780 C   0  0  0  0  0  0  0  0  0  0  0  0
    7.3170   -0.1610   19.8550 C   0  0  0  0  0  0  0  0  0  0  0  0
   13.2716    3.0548   23.5125 C   0  0  0  0  0  0  0  0  0  0  0  0
    9.0420    0.3700   21.5280 C   0  0  0  0  0  0  0  0  0  0  0  0
    8.0148   -5.2164   26.1419 C   0  0  0  0  0  0  0  0  0  0  0  0
   10.4390   -5.5857   25.6570 C   0  0  0  0  0  0  0  0  0  0  0  0
    9.8870    1.3260   23.5730 C   0  0  0  0  0  0  0  0  0  0  0  0
    9.4560    0.1560   22.8130 C   0  0  1  0  0  0  0  0  0  0  0  0
    6.7580    0.3810   17.8350 N   0  0  0  0  0  0  0  0  0  0  0  0
    8.1890   -0.7180   20.8700 N   0  0  0  0  0  0  0  0  0  0  0  0
    9.2556   -4.7554   25.5514 N   0  0  0  0  0  0  0  0  0  0  0  0
    9.2690    1.4140   20.9380 O   0  0  0  0  0  0  0  0  0  0  0  0
   13.9075    4.6504   23.6198 Cl  0  0  0  0  0  0  0  0  0  0  0  0
    3.6453    2.0152   21.6831 H   0  0  0  0  0  0  0  0  0  0  0  0
    3.0147    2.6520   19.3913 H   0  0  0  0  0  0  0  0  0  0  0  0
   14.2901   -0.1681   23.1402 H   0  0  0  0  0  0  0  0  0  0  0  0
    5.6991    0.6995   22.1042 H   0  0  0  0  0  0  0  0  0  0  0  0
   11.8492   -0.5431   23.2671 H   0  0  0  0  0  0  0  0  0  0  0  0
    8.9214   -0.1986   25.4206 H   0  0  0  0  0  0  0  0  0  0  0  0
   10.0622   -2.2326   21.8251 H   0  0  0  0  0  0  0  0  0  0  0  0
    4.4051    1.9733   17.4488 H   0  0  0  0  0  0  0  0  0  0  0  0
    8.6882   -2.3542   26.5803 H   0  0  0  0  0  0  0  0  0  0  0  0
    9.9258   -4.3896   22.9914 H   0  0  0  0  0  0  0  0  0  0  0  0
   15.2095    2.1179   23.2949 H   0  0  0  0  0  0  0  0  0  0  0  0
   11.2178    3.6885   23.7094 H   0  0  0  0  0  0  0  0  0  0  0  0
    8.4825   -0.7940   18.0623 H   0  0  0  0  0  0  0  0  0  0  0  0
    8.1775   -6.1919   26.6235 H   0  0  0  0  0  0  0  0  0  0  0  0
    7.6740   -4.4889   26.8933 H   0  0  0  0  0  0  0  0  0  0  0  0
    7.2508   -5.3181   25.3570 H   0  0  0  0  0  0  0  0  0  0  0  0
   10.1974   -6.4996   26.2196 H   0  0  0  0  0  0  0  0  0  0  0  0
   10.7877   -5.8568   24.6496 H   0  0  0  0  0  0  0  0  0  0  0  0
   11.2305   -5.0307   26.1819 H   0  0  0  0  0  0  0  0  0  0  0  0
    9.5854    1.2495   24.6258 H   0  0  0  0  0  0  0  0  0  0  0  0
    9.3886    2.2282   23.1920 H   0  0  0  0  0  0  0  0  0  0  0  0
    8.0686    0.4964   23.2745 H   0  0  0  0  0  0  0  0  0  0  0  0
    6.7266    0.4930   16.8305 H   0  0  0  0  0  0  0  0  0  0  0  0
    8.2408   -1.5631   21.0968 H   0  0  0  0  0  0  0  0  0  0  0  0
  1  2  1  0  0  0  0
  1  4  2  0  0  0  0
  2  8  2  0  0  0  0
  3  5  2  0  0  0  0
  3 11  1  0  0  0  0
  4 14  1  0  0  0  0
  5 16  1  0  0  0  0
  6  9  2  0  0  0  0
  6 15  1  0  0  0  0
  7 10  1  0  0  0  0
  7 15  2  0  0  0  0
  8 17  1  0  0  0  0
  9 18  1  0  0  0  0
 10 18  2  0  0  0  0
 11 20  2  0  0  0  0
 12 16  2  0  0  0  0
 12 20  1  0  0  0  0
 13 19  2  0  0  0  0
 13 26  1  0  0  0  0
 14 17  2  0  0  0  0
 14 19  1  0  0  0  0
 15 25  1  0  0  0  0
 16 24  1  0  0  0  0
 17 26  1  0  0  0  0
 18 28  1  0  0  0  0
 19 27  1  0  0  0  0
 20 30  1  0  0  0  0
 21 25  1  0  0  0  0
 21 27  1  0  0  0  0
 21 29  2  0  0  0  0
 22 28  1  0  0  0  0
 23 28  1  0  0  0  0
 24 25  1  1  0  0  0
  1 31  1  0  0  0  0
  2 32  1  0  0  0  0
  3 33  1  0  0  0  0
  4 34  1  0  0  0  0
  5 35  1  0  0  0  0
  6 36  1  0  0  0  0
  7 37  1  0  0  0  0
  8 38  1  0  0  0  0
  9 39  1  0  0  0  0
 10 40  1  0  0  0  0
 11 41  1  0  0  0  0
 12 42  1  0  0  0  0
 13 43  1  0  0  0  0
 22 44  1  0  0  0  0
 22 45  1  0  0  0  0
 22 46  1  0  0  0  0
 23 47  1  0  0  0  0
 23 48  1  0  0  0  0
 23 49  1  0  0  0  0
 24 50  1  0  0  0  0
 24 51  1  0  0  0  0
 25 52  1  0  0  0  0
 26 53  1  0  0  0  0
 27 54  1  0  0  0  0
M  END
> <clash_score>
0

> <docking_score>
-9.114439964294434

> <overlap_score>
1.001389980316162

$$$$
BENZO_282_2
  -OEChem-08222022193D

 54 57  0     1  0  0  0  0  0999 V2000
    4.2750    1.7050   20.8490 C   0  0  0  0  0  0  0  0  0  0  0  0
    3.9160    2.0630   19.5520 C   0  0  0  0  0  0  0  0  0  0  0  0
   13.2976    2.5464   22.4232 C   0  0  0  0  0  0  0  0  0  0  0  0
    5.4210    0.9600   21.0930 C   0  0  0  0  0  0  0  0  0  0  0  0
   12.3059    1.8167   23.0786 C   0  0  0  0  0  0  0  0  0  0  0  0
    9.0720   -1.1280   24.8640 C   0  0  0  0  0  0  0  0  0  0  0  0
    9.7200   -2.2600   22.8630 C   0  0  0  0  0  0  0  0  0  0  0  0
    4.6890    1.6810   18.4640 C   0  0  0  0  0  0  0  0  0  0  0  0
    8.9960   -2.3380   25.5320 C   0  0  0  0  0  0  0  0  0  0  0  0
    9.6730   -3.4710   23.5300 C   0  0  0  0  0  0  0  0  0  0  0  0
   12.9446    3.5776   21.5528 C   0  0  0  0  0  0  0  0  0  0  0  0
   10.6080    3.1492   21.9930 C   0  0  0  0  0  0  0  0  0  0  0  0
    7.6390   -0.2680   18.5410 C   0  0  0  0  0  0  0  0  0  0  0  0
    6.1790    0.5730   19.9990 C   0  0  0  0  0  0  0  0  0  0  0  0
    9.3350   -1.0880   23.5010 C   0  0  0  0  0  0  0  0  0  0  0  0
   10.9611    2.1180   22.8635 C   0  0  0  0  0  0  0  0  0  0  0  0
    5.8300    0.9190   18.6970 C   0  0  0  0  0  0  0  0  0  0  0  0
    9.3070   -3.5340   24.8780 C   0  0  0  0  0  0  0  0  0  0  0  0
    7.3170   -0.1610   19.8550 C   0  0  0  0  0  0  0  0  0  0  0  0
   11.5998    3.8790   21.3377 C   0  0  0  0  0  0  0  0  0  0  0  0
    9.0420    0.3700   21.5280 C   0  0  0  0  0  0  0  0  0  0  0  0
    8.8766   -4.8075   26.9494 C   0  0  0  0  0  0  0  0  0  0  0  0
    9.5670   -5.9896   24.8578 C   0  0  0  0  0  0  0  0  0  0  0  0
    9.8870    1.3260   23.5730 C   0  0  0  0  0  0  0  0  0  0  0  0
    9.4560    0.1560   22.8130 C   0  0  2  0  0  0  0  0  0  0  0  0
    6.7580    0.3810   17.8350 N   0  0  0  0  0  0  0  0  0  0  0  0
    8.1890   -0.7180   20.8700 N   0  0  0  0  0  0  0  0  0  0  0  0
    9.2556   -4.7554   25.5514 N   0  0  0  0  0  0  0  0  0  0  0  0
    9.2690    1.4140   20.9380 O   0  0  0  0  0  0  0  0  0  0  0  0
   11.1647    5.1506   20.2627 Cl  0  0  0  0  0  0  0  0  0  0  0  0
    3.6453    2.0152   21.6831 H   0  0  0  0  0  0  0  0  0  0  0  0
    3.0147    2.6520   19.3913 H   0  0  0  0  0  0  0  0  0  0  0  0
   14.3448    2.3113   22.5909 H   0  0  0  0  0  0  0  0  0  0  0  0
    5.6991    0.6995   22.1042 H   0  0  0  0  0  0  0  0  0  0  0  0
   12.5902    1.0148   23.7550 H   0  0  0  0  0  0  0  0  0  0  0  0
    8.9214   -0.1986   25.4206 H   0  0  0  0  0  0  0  0  0  0  0  0
   10.0622   -2.2326   21.8251 H   0  0  0  0  0  0  0  0  0  0  0  0
    4.4051    1.9733   17.4488 H   0  0  0  0  0  0  0  0  0  0  0  0
    8.6882   -2.3542   26.5803 H   0  0  0  0  0  0  0  0  0  0  0  0
    9.9258   -4.3896   22.9914 H   0  0  0  0  0  0  0  0  0  0  0  0
   13.7282    4.1378   21.0487 H   0  0  0  0  0  0  0  0  0  0  0  0
    9.5581    3.3806   21.8290 H   0  0  0  0  0  0  0  0  0  0  0  0
    8.4825   -0.7940   18.0623 H   0  0  0  0  0  0  0  0  0  0  0  0
    8.8956   -5.8512   27.2963 H   0  0  0  0  0  0  0  0  0  0  0  0
    9.5845   -4.2109   27.5435 H   0  0  0  0  0  0  0  0  0  0  0  0
    7.8621   -4.3997   27.0696 H   0  0  0  0  0  0  0  0  0  0  0  0
    9.4708   -6.8361   25.5536 H   0  0  0  0  0  0  0  0  0  0  0  0
    8.8693   -6.1242   24.0181 H   0  0  0  0  0  0  0  0  0  0  0  0
   10.5973   -5.9450   24.4750 H   0  0  0  0  0  0  0  0  0  0  0  0
   10.2455    1.0419   24.5710 H   0  0  0  0  0  0  0  0  0  0  0  0
    9.0345    1.9965   23.7496 H   0  0  0  0  0  0  0  0  0  0  0  0
   10.7927   -0.1029   22.4279 H   0  0  0  0  0  0  0  0  0  0  0  0
    6.7266    0.4930   16.8305 H   0  0  0  0  0  0  0  0  0  0  0  0
    8.2408   -1.5631   21.0968 H   0  0  0  0  0  0  0  0  0  0  0  0
  1  2  1  0  0  0  0
  1  4  2  0  0  0  0
  2  8  2  0  0  0  0
  3  5  2  0  0  0  0
  3 11  1  0  0  0  0
  4 14  1  0  0  0  0
  5 16  1  0  0  0  0
  6  9  2  0  0  0  0
  6 15  1  0  0  0  0
  7 10  1  0  0  0  0
  7 15  2  0  0  0  0
  8 17  1  0  0  0  0
  9 18  1  0  0  0  0
 10 18  2  0  0  0  0
 11 20  2  0  0  0  0
 12 16  2  0  0  0  0
 12 20  1  0  0  0  0
 13 19  2  0  0  0  0
 13 26  1  0  0  0  0
 14 17  2  0  0  0  0
 14 19  1  0  0  0  0
 15 25  1  0  0  0  0
 16 24  1  0  0  0  0
 17 26  1  0  0  0  0
 18 28  1  0  0  0  0
 19 27  1  0  0  0  0
 20 30  1  0  0  0  0
 21 25  1  0  0  0  0
 21 27  1  0  0  0  0
 21 29  2  0  0  0  0
 22 28  1  0  0  0  0
 23 28  1  0  0  0  0
 24 25  1  6  0  0  0
  1 31  1  0  0  0  0
  2 32  1  0  0  0  0
  3 33  1  0  0  0  0
  4 34  1  0  0  0  0
  5 35  1  0  0  0  0
  6 36  1  0  0  0  0
  7 37  1  0  0  0  0
  8 38  1  0  0  0  0
  9 39  1  0  0  0  0
 10 40  1  0  0  0  0
 11 41  1  0  0  0  0
 12 42  1  0  0  0  0
 13 43  1  0  0  0  0
 22 44  1  0  0  0  0
 22 45  1  0  0  0  0
 22 46  1  0  0  0  0
 23 47  1  0  0  0  0
 23 48  1  0  0  0  0
 23 49  1  0  0  0  0
 24 50  1  0  0  0  0
 24 51  1  0  0  0  0
 25 52  1  0  0  0  0
 26 53  1  0  0  0  0
 27 54  1  0  0  0  0
M  END
> <clash_score>
2.21029397887869

> <docking_score>
-8.295127868652344

> <overlap_score>
0.9601876735687256

$$$$
BENZO_283_1
  -OEChem-08222022193D

 54 57  0     1  0  0  0  0  0999 V2000
    4.2750    1.7050   20.8490 C   0  0  0  0  0  0  0  0  0  0  0  0
    3.9160    2.0630   19.5520 C   0  0  0  0  0  0  0  0  0  0  0  0
    5.4210    0.9600   21.0930 C   0  0  0  0  0  0  0  0  0  0  0  0
    9.0720   -1.1280   24.8640 C   0  0  0  0  0  0  0  0  0  0  0  0
    9.7200   -2.2600   22.8630 C   0  0  0  0  0  0  0  0  0  0  0  0
    4.6890    1.6810   18.4640 C   0  0  0  0  0  0  0  0  0  0  0  0
    8.9960   -2.3380   25.5320 C   0  0  0  0  0  0  0  0  0  0  0  0
    9.6730   -3.4710   23.5300 C   0  0  0  0  0  0  0  0  0  0  0  0
   12.0720    2.7762   23.5689 C   0  0  0  0  0  0  0  0  0  0  0  0
   12.3651    0.6087   23.3429 C   0  0  0  0  0  0  0  0  0  0  0  0
    7.6390   -0.2680   18.5410 C   0  0  0  0  0  0  0  0  0  0  0  0
    6.1790    0.5730   19.9990 C   0  0  0  0  0  0  0  0  0  0  0  0
    9.3350   -1.0880   23.5010 C   0  0  0  0  0  0  0  0  0  0  0  0
   11.3794    1.5528   23.4964 C   0  0  0  0  0  0  0  0  0  0  0  0
    5.8300    0.9190   18.6970 C   0  0  0  0  0  0  0  0  0  0  0  0
    9.3070   -3.5340   24.8780 C   0  0  0  0  0  0  0  0  0  0  0  0
    7.3170   -0.1610   19.8550 C   0  0  0  0  0  0  0  0  0  0  0  0
    9.0420    0.3700   21.5280 C   0  0  0  0  0  0  0  0  0  0  0  0
   14.8634    0.7326   23.1949 C   0  0  0  0  0  0  0  0  0  0  0  0
    8.0148   -5.2164   26.1419 C   0  0  0  0  0  0  0  0  0  0  0  0
   10.4390   -5.5857   25.6570 C   0  0  0  0  0  0  0  0  0  0  0  0
    9.8870    1.3260   23.5730 C   0  0  0  0  0  0  0  0  0  0  0  0
    9.4560    0.1560   22.8130 C   0  0  1  0  0  0  0  0  0  0  0  0
   13.3955    2.6261   23.4698 N   0  0  0  0  0  0  0  0  0  0  0  0
    6.7580    0.3810   17.8350 N   0  0  0  0  0  0  0  0  0  0  0  0
   13.5424    1.2972   23.3335 N   0  0  0  0  0  0  0  0  0  0  0  0
    8.1890   -0.7180   20.8700 N   0  0  0  0  0  0  0  0  0  0  0  0
    9.2556   -4.7554   25.5514 N   0  0  0  0  0  0  0  0  0  0  0  0
    9.2690    1.4140   20.9380 O   0  0  0  0  0  0  0  0  0  0  0  0
    3.6453    2.0152   21.6831 H   0  0  0  0  0  0  0  0  0  0  0  0
    3.0147    2.6520   19.3913 H   0  0  0  0  0  0  0  0  0  0  0  0
    5.6991    0.6995   22.1042 H   0  0  0  0  0  0  0  0  0  0  0  0
    8.9214   -0.1986   25.4206 H   0  0  0  0  0  0  0  0  0  0  0  0
   10.0622   -2.2326   21.8251 H   0  0  0  0  0  0  0  0  0  0  0  0
    4.4051    1.9733   17.4488 H   0  0  0  0  0  0  0  0  0  0  0  0
    8.6882   -2.3542   26.5803 H   0  0  0  0  0  0  0  0  0  0  0  0
    9.9258   -4.3896   22.9914 H   0  0  0  0  0  0  0  0  0  0  0  0
   11.6698    3.7720   23.6907 H   0  0  0  0  0  0  0  0  0  0  0  0
   12.3300   -0.4677   23.2433 H   0  0  0  0  0  0  0  0  0  0  0  0
    8.4825   -0.7940   18.0623 H   0  0  0  0  0  0  0  0  0  0  0  0
   15.1060    0.6995   22.1295 H   0  0  0  0  0  0  0  0  0  0  0  0
   15.5839    1.3558   23.7319 H   0  0  0  0  0  0  0  0  0  0  0  0
   14.8726   -0.2742   23.6217 H   0  0  0  0  0  0  0  0  0  0  0  0
    8.1775   -6.1919   26.6235 H   0  0  0  0  0  0  0  0  0  0  0  0
    7.6740   -4.4889   26.8933 H   0  0  0  0  0  0  0  0  0  0  0  0
    7.2508   -5.3181   25.3570 H   0  0  0  0  0  0  0  0  0  0  0  0
   10.1974   -6.4996   26.2196 H   0  0  0  0  0  0  0  0  0  0  0  0
   10.7877   -5.8568   24.6496 H   0  0  0  0  0  0  0  0  0  0  0  0
   11.2305   -5.0307   26.1819 H   0  0  0  0  0  0  0  0  0  0  0  0
    9.5854    1.2495   24.6258 H   0  0  0  0  0  0  0  0  0  0  0  0
    9.3886    2.2282   23.1920 H   0  0  0  0  0  0  0  0  0  0  0  0
    8.0686    0.4964   23.2745 H   0  0  0  0  0  0  0  0  0  0  0  0
    6.7266    0.4930   16.8305 H   0  0  0  0  0  0  0  0  0  0  0  0
    8.2408   -1.5631   21.0968 H   0  0  0  0  0  0  0  0  0  0  0  0
  1  2  1  0  0  0  0
  1  3  2  0  0  0  0
  2  6  2  0  0  0  0
  3 12  1  0  0  0  0
  4  7  2  0  0  0  0
  4 13  1  0  0  0  0
  5  8  1  0  0  0  0
  5 13  2  0  0  0  0
  6 15  1  0  0  0  0
  7 16  1  0  0  0  0
  8 16  2  0  0  0  0
  9 14  1  0  0  0  0
  9 24  2  0  0  0  0
 10 14  2  0  0  0  0
 10 26  1  0  0  0  0
 11 17  2  0  0  0  0
 11 25  1  0  0  0  0
 12 15  2  0  0  0  0
 12 17  1  0  0  0  0
 13 23  1  0  0  0  0
 14 22  1  0  0  0  0
 15 25  1  0  0  0  0
 16 28  1  0  0  0  0
 17 27  1  0  0  0  0
 18 23  1  0  0  0  0
 18 27  1  0  0  0  0
 18 29  2  0  0  0  0
 19 26  1  0  0  0  0
 20 28  1  0  0  0  0
 21 28  1  0  0  0  0
 22 23  1  1  0  0  0
 24 26  1  0  0  0  0
  1 30  1  0  0  0  0
  2 31  1  0  0  0  0
  3 32  1  0  0  0  0
  4 33  1  0  0  0  0
  5 34  1  0  0  0  0
  6 35  1  0  0  0  0
  7 36  1  0  0  0  0
  8 37  1  0  0  0  0
  9 38  1  0  0  0  0
 10 39  1  0  0  0  0
 11 40  1  0  0  0  0
 19 41  1  0  0  0  0
 19 42  1  0  0  0  0
 19 43  1  0  0  0  0
 20 44  1  0  0  0  0
 20 45  1  0  0  0  0
 20 46  1  0  0  0  0
 21 47  1  0  0  0  0
 21 48  1  0  0  0  0
 21 49  1  0  0  0  0
 22 50  1  0  0  0  0
 22 51  1  0  0  0  0
 23 52  1  0  0  0  0
 25 53  1  0  0  0  0
 27 54  1  0  0  0  0
M  END
> <clash_score>
0

> <docking_score>
-9.445708274841309

> <overlap_score>
1.0001938343048096

$$$$
BENZO_283_2
  -OEChem-08222022193D

 54 57  0     1  0  0  0  0  0999 V2000
    4.2750    1.7050   20.8490 C   0  0  0  0  0  0  0  0  0  0  0  0
    3.9160    2.0630   19.5520 C   0  0  0  0  0  0  0  0  0  0  0  0
    5.4210    0.9600   21.0930 C   0  0  0  0  0  0  0  0  0  0  0  0
    9.0720   -1.1280   24.8640 C   0  0  0  0  0  0  0  0  0  0  0  0
    9.7200   -2.2600   22.8630 C   0  0  0  0  0  0  0  0  0  0  0  0
    4.6890    1.6810   18.4640 C   0  0  0  0  0  0  0  0  0  0  0  0
    8.9960   -2.3380   25.5320 C   0  0  0  0  0  0  0  0  0  0  0  0
    9.6730   -3.4710   23.5300 C   0  0  0  0  0  0  0  0  0  0  0  0
   12.3565    1.9564   22.9554 C   0  0  0  0  0  0  0  0  0  0  0  0
   10.7932    3.1569   21.9808 C   0  0  0  0  0  0  0  0  0  0  0  0
    7.6390   -0.2680   18.5410 C   0  0  0  0  0  0  0  0  0  0  0  0
    6.1790    0.5730   19.9990 C   0  0  0  0  0  0  0  0  0  0  0  0
    9.3350   -1.0880   23.5010 C   0  0  0  0  0  0  0  0  0  0  0  0
   10.9611    2.1180   22.8635 C   0  0  0  0  0  0  0  0  0  0  0  0
    5.8300    0.9190   18.6970 C   0  0  0  0  0  0  0  0  0  0  0  0
    9.3070   -3.5340   24.8780 C   0  0  0  0  0  0  0  0  0  0  0  0
    7.3170   -0.1610   19.8550 C   0  0  0  0  0  0  0  0  0  0  0  0
    9.0420    0.3700   21.5280 C   0  0  0  0  0  0  0  0  0  0  0  0
   12.3862    4.6002   20.6932 C   0  0  0  0  0  0  0  0  0  0  0  0
    8.8766   -4.8075   26.9494 C   0  0  0  0  0  0  0  0  0  0  0  0
    9.5670   -5.9896   24.8578 C   0  0  0  0  0  0  0  0  0  0  0  0
    9.8870    1.3260   23.5730 C   0  0  0  0  0  0  0  0  0  0  0  0
    9.4560    0.1560   22.8130 C   0  0  2  0  0  0  0  0  0  0  0  0
   13.0274    2.8231   22.1920 N   0  0  0  0  0  0  0  0  0  0  0  0
    6.7580    0.3810   17.8350 N   0  0  0  0  0  0  0  0  0  0  0  0
   12.0493    3.5392   21.6118 N   0  0  0  0  0  0  0  0  0  0  0  0
    8.1890   -0.7180   20.8700 N   0  0  0  0  0  0  0  0  0  0  0  0
    9.2556   -4.7554   25.5514 N   0  0  0  0  0  0  0  0  0  0  0  0
    9.2690    1.4140   20.9380 O   0  0  0  0  0  0  0  0  0  0  0  0
    3.6453    2.0152   21.6831 H   0  0  0  0  0  0  0  0  0  0  0  0
    3.0147    2.6520   19.3913 H   0  0  0  0  0  0  0  0  0  0  0  0
    5.6991    0.6995   22.1042 H   0  0  0  0  0  0  0  0  0  0  0  0
    8.9214   -0.1986   25.4206 H   0  0  0  0  0  0  0  0  0  0  0  0
   10.0622   -2.2326   21.8251 H   0  0  0  0  0  0  0  0  0  0  0  0
    4.4051    1.9733   17.4488 H   0  0  0  0  0  0  0  0  0  0  0  0
    8.6882   -2.3542   26.5803 H   0  0  0  0  0  0  0  0  0  0  0  0
    9.9258   -4.3896   22.9914 H   0  0  0  0  0  0  0  0  0  0  0  0
   12.9148    1.2434   23.5455 H   0  0  0  0  0  0  0  0  0  0  0  0
    9.9088    3.6436   21.5925 H   0  0  0  0  0  0  0  0  0  0  0  0
    8.4825   -0.7940   18.0623 H   0  0  0  0  0  0  0  0  0  0  0  0
   12.4913    5.5238   21.2686 H   0  0  0  0  0  0  0  0  0  0  0  0
   13.3235    4.3577   20.1848 H   0  0  0  0  0  0  0  0  0  0  0  0
   11.5908    4.7003   19.9494 H   0  0  0  0  0  0  0  0  0  0  0  0
    8.8956   -5.8512   27.2963 H   0  0  0  0  0  0  0  0  0  0  0  0
    9.5845   -4.2109   27.5435 H   0  0  0  0  0  0  0  0  0  0  0  0
    7.8621   -4.3997   27.0696 H   0  0  0  0  0  0  0  0  0  0  0  0
    9.4708   -6.8361   25.5536 H   0  0  0  0  0  0  0  0  0  0  0  0
    8.8693   -6.1242   24.0181 H   0  0  0  0  0  0  0  0  0  0  0  0
   10.5973   -5.9450   24.4750 H   0  0  0  0  0  0  0  0  0  0  0  0
   10.2455    1.0419   24.5710 H   0  0  0  0  0  0  0  0  0  0  0  0
    9.0345    1.9965   23.7496 H   0  0  0  0  0  0  0  0  0  0  0  0
   10.7927   -0.1029   22.4279 H   0  0  0  0  0  0  0  0  0  0  0  0
    6.7266    0.4930   16.8305 H   0  0  0  0  0  0  0  0  0  0  0  0
    8.2408   -1.5631   21.0968 H   0  0  0  0  0  0  0  0  0  0  0  0
  1  2  1  0  0  0  0
  1  3  2  0  0  0  0
  2  6  2  0  0  0  0
  3 12  1  0  0  0  0
  4  7  2  0  0  0  0
  4 13  1  0  0  0  0
  5  8  1  0  0  0  0
  5 13  2  0  0  0  0
  6 15  1  0  0  0  0
  7 16  1  0  0  0  0
  8 16  2  0  0  0  0
  9 14  1  0  0  0  0
  9 24  2  0  0  0  0
 10 14  2  0  0  0  0
 10 26  1  0  0  0  0
 11 17  2  0  0  0  0
 11 25  1  0  0  0  0
 12 15  2  0  0  0  0
 12 17  1  0  0  0  0
 13 23  1  0  0  0  0
 14 22  1  0  0  0  0
 15 25  1  0  0  0  0
 16 28  1  0  0  0  0
 17 27  1  0  0  0  0
 18 23  1  0  0  0  0
 18 27  1  0  0  0  0
 18 29  2  0  0  0  0
 19 26  1  0  0  0  0
 20 28  1  0  0  0  0
 21 28  1  0  0  0  0
 22 23  1  6  0  0  0
 24 26  1  0  0  0  0
  1 30  1  0  0  0  0
  2 31  1  0  0  0  0
  3 32  1  0  0  0  0
  4 33  1  0  0  0  0
  5 34  1  0  0  0  0
  6 35  1  0  0  0  0
  7 36  1  0  0  0  0
  8 37  1  0  0  0  0
  9 38  1  0  0  0  0
 10 39  1  0  0  0  0
 11 40  1  0  0  0  0
 19 41  1  0  0  0  0
 19 42  1  0  0  0  0
 19 43  1  0  0  0  0
 20 44  1  0  0  0  0
 20 45  1  0  0  0  0
 20 46  1  0  0  0  0
 21 47  1  0  0  0  0
 21 48  1  0  0  0  0
 21 49  1  0  0  0  0
 22 50  1  0  0  0  0
 22 51  1  0  0  0  0
 23 52  1  0  0  0  0
 25 53  1  0  0  0  0
 27 54  1  0  0  0  0
M  END
> <clash_score>
0

> <docking_score>
-7.759950160980225

> <overlap_score>
0.9546346068382263

$$$$
BENZO_285_1
  -OEChem-08222022193D

 56 59  0     1  0  0  0  0  0999 V2000
   14.1338    1.9717   23.3537 C   0  0  0  0  0  0  0  0  0  0  0  0
    4.2750    1.7050   20.8490 C   0  0  0  0  0  0  0  0  0  0  0  0
   13.6012    1.1747   24.3670 C   0  0  0  0  0  0  0  0  0  0  0  0
   13.2892    2.5593   22.4118 C   0  0  0  0  0  0  0  0  0  0  0  0
    3.9160    2.0630   19.5520 C   0  0  0  0  0  0  0  0  0  0  0  0
    5.4210    0.9600   21.0930 C   0  0  0  0  0  0  0  0  0  0  0  0
   12.2240    0.9652   24.4383 C   0  0  0  0  0  0  0  0  0  0  0  0
   11.9120    2.3498   22.4832 C   0  0  0  0  0  0  0  0  0  0  0  0
    9.0720   -1.1280   24.8640 C   0  0  0  0  0  0  0  0  0  0  0  0
    9.7200   -2.2600   22.8630 C   0  0  0  0  0  0  0  0  0  0  0  0
    4.6890    1.6810   18.4640 C   0  0  0  0  0  0  0  0  0  0  0  0
    8.9960   -2.3380   25.5320 C   0  0  0  0  0  0  0  0  0  0  0  0
    9.6730   -3.4710   23.5300 C   0  0  0  0  0  0  0  0  0  0  0  0
    7.6390   -0.2680   18.5410 C   0  0  0  0  0  0  0  0  0  0  0  0
    6.1790    0.5730   19.9990 C   0  0  0  0  0  0  0  0  0  0  0  0
   11.3794    1.5528   23.4964 C   0  0  0  0  0  0  0  0  0  0  0  0
    9.3350   -1.0880   23.5010 C   0  0  0  0  0  0  0  0  0  0  0  0
    5.8300    0.9190   18.6970 C   0  0  0  0  0  0  0  0  0  0  0  0
    9.3070   -3.5340   24.8780 C   0  0  0  0  0  0  0  0  0  0  0  0
    7.3170   -0.1610   19.8550 C   0  0  0  0  0  0  0  0  0  0  0  0
    8.4228   -5.1089   26.6141 C   0  0  0  0  0  0  0  0  0  0  0  0
    9.0420    0.3700   21.5280 C   0  0  0  0  0  0  0  0  0  0  0  0
    8.4173   -7.5520   25.9532 C   0  0  0  0  0  0  0  0  0  0  0  0
    9.8870    1.3260   23.5730 C   0  0  0  0  0  0  0  0  0  0  0  0
    8.6900   -6.5411   27.0525 C   0  0  0  0  0  0  0  0  0  0  0  0
    9.4560    0.1560   22.8130 C   0  0  1  0  0  0  0  0  0  0  0  0
    6.7580    0.3810   17.8350 N   0  0  0  0  0  0  0  0  0  0  0  0
    9.2546   -4.7423   25.5437 N   0  0  0  0  0  0  0  0  0  0  0  0
    8.1890   -0.7180   20.8700 N   0  0  0  0  0  0  0  0  0  0  0  0
    7.5768   -4.4085   27.1603 O   0  0  0  0  0  0  0  0  0  0  0  0
    9.2690    1.4140   20.9380 O   0  0  0  0  0  0  0  0  0  0  0  0
   15.2060    2.1359   23.2991 H   0  0  0  0  0  0  0  0  0  0  0  0
    3.6453    2.0152   21.6831 H   0  0  0  0  0  0  0  0  0  0  0  0
   14.2585    0.7180   25.1011 H   0  0  0  0  0  0  0  0  0  0  0  0
   13.7034    3.1808   21.6235 H   0  0  0  0  0  0  0  0  0  0  0  0
    3.0147    2.6520   19.3913 H   0  0  0  0  0  0  0  0  0  0  0  0
    5.6991    0.6995   22.1042 H   0  0  0  0  0  0  0  0  0  0  0  0
   11.8179    0.3426   25.2312 H   0  0  0  0  0  0  0  0  0  0  0  0
   11.2617    2.8116   21.7449 H   0  0  0  0  0  0  0  0  0  0  0  0
    8.9202   -0.1986   25.4206 H   0  0  0  0  0  0  0  0  0  0  0  0
   10.0631   -2.2319   21.8252 H   0  0  0  0  0  0  0  0  0  0  0  0
    4.4051    1.9733   17.4488 H   0  0  0  0  0  0  0  0  0  0  0  0
    8.6898   -2.3534   26.5810 H   0  0  0  0  0  0  0  0  0  0  0  0
    9.9254   -4.3899   22.9914 H   0  0  0  0  0  0  0  0  0  0  0  0
    8.4825   -0.7940   18.0623 H   0  0  0  0  0  0  0  0  0  0  0  0
    7.3765   -7.4970   25.6177 H   0  0  0  0  0  0  0  0  0  0  0  0
    8.6071   -8.5677   26.3139 H   0  0  0  0  0  0  0  0  0  0  0  0
    9.0598   -7.3717   25.0851 H   0  0  0  0  0  0  0  0  0  0  0  0
    9.5854    1.2495   24.6258 H   0  0  0  0  0  0  0  0  0  0  0  0
    9.3886    2.2282   23.1920 H   0  0  0  0  0  0  0  0  0  0  0  0
    9.7367   -6.6182   27.3685 H   0  0  0  0  0  0  0  0  0  0  0  0
    8.0565   -6.7633   27.9190 H   0  0  0  0  0  0  0  0  0  0  0  0
    8.0686    0.4964   23.2745 H   0  0  0  0  0  0  0  0  0  0  0  0
    6.7266    0.4930   16.8305 H   0  0  0  0  0  0  0  0  0  0  0  0
    9.9034   -5.4689   25.2194 H   0  0  0  0  0  0  0  0  0  0  0  0
    8.2408   -1.5631   21.0968 H   0  0  0  0  0  0  0  0  0  0  0  0
  1  3  1  0  0  0  0
  1  4  2  0  0  0  0
  2  5  1  0  0  0  0
  2  6  2  0  0  0  0
  3  7  2  0  0  0  0
  4  8  1  0  0  0  0
  5 11  2  0  0  0  0
  6 15  1  0  0  0  0
  7 16  1  0  0  0  0
  8 16  2  0  0  0  0
  9 12  2  0  0  0  0
  9 17  1  0  0  0  0
 10 13  1  0  0  0  0
 10 17  2  0  0  0  0
 11 18  1  0  0  0  0
 12 19  1  0  0  0  0
 13 19  2  0  0  0  0
 14 20  2  0  0  0  0
 14 27  1  0  0  0  0
 15 18  2  0  0  0  0
 15 20  1  0  0  0  0
 16 24  1  0  0  0  0
 17 26  1  0  0  0  0
 18 27  1  0  0  0  0
 19 28  1  0  0  0  0
 20 29  1  0  0  0  0
 21 25  1  0  0  0  0
 21 28  1  0  0  0  0
 21 30  2  0  0  0  0
 22 26  1  0  0  0  0
 22 29  1  0  0  0  0
 22 31  2  0  0  0  0
 23 25  1  0  0  0  0
 24 26  1  1  0  0  0
  1 32  1  0  0  0  0
  2 33  1  0  0  0  0
  3 34  1  0  0  0  0
  4 35  1  0  0  0  0
  5 36  1  0  0  0  0
  6 37  1  0  0  0  0
  7 38  1  0  0  0  0
  8 39  1  0  0  0  0
  9 40  1  0  0  0  0
 10 41  1  0  0  0  0
 11 42  1  0  0  0  0
 12 43  1  0  0  0  0
 13 44  1  0  0  0  0
 14 45  1  0  0  0  0
 23 46  1  0  0  0  0
 23 47  1  0  0  0  0
 23 48  1  0  0  0  0
 24 49  1  0  0  0  0
 24 50  1  0  0  0  0
 25 51  1  0  0  0  0
 25 52  1  0  0  0  0
 26 53  1  0  0  0  0
 27 54  1  0  0  0  0
 28 55  1  0  0  0  0
 29 56  1  0  0  0  0
M  END
> <clash_score>
0.6426270629863619

> <docking_score>
-7.843451976776123

> <overlap_score>
0.9959042072296143

$$$$
BENZO_285_2
  -OEChem-08222022193D

 56 59  0     1  0  0  0  0  0999 V2000
    6.6146    3.3501   25.4951 C   0  0  0  0  0  0  0  0  0  0  0  0
    4.2750    1.7050   20.8490 C   0  0  0  0  0  0  0  0  0  0  0  0
    7.8859    3.3796   26.0683 C   0  0  0  0  0  0  0  0  0  0  0  0
    6.4047    2.6642   24.2988 C   0  0  0  0  0  0  0  0  0  0  0  0
    3.9160    2.0630   19.5520 C   0  0  0  0  0  0  0  0  0  0  0  0
    5.4210    0.9600   21.0930 C   0  0  0  0  0  0  0  0  0  0  0  0
    8.9473    2.7232   25.4452 C   0  0  0  0  0  0  0  0  0  0  0  0
    7.4660    2.0078   23.6757 C   0  0  0  0  0  0  0  0  0  0  0  0
    9.0720   -1.1280   24.8640 C   0  0  0  0  0  0  0  0  0  0  0  0
    9.7200   -2.2600   22.8630 C   0  0  0  0  0  0  0  0  0  0  0  0
    4.6890    1.6810   18.4640 C   0  0  0  0  0  0  0  0  0  0  0  0
    8.9960   -2.3380   25.5320 C   0  0  0  0  0  0  0  0  0  0  0  0
    9.6730   -3.4710   23.5300 C   0  0  0  0  0  0  0  0  0  0  0  0
    7.6390   -0.2680   18.5410 C   0  0  0  0  0  0  0  0  0  0  0  0
    6.1790    0.5730   19.9990 C   0  0  0  0  0  0  0  0  0  0  0  0
    8.7373    2.0373   24.2489 C   0  0  0  0  0  0  0  0  0  0  0  0
    9.3350   -1.0880   23.5010 C   0  0  0  0  0  0  0  0  0  0  0  0
    5.8300    0.9190   18.6970 C   0  0  0  0  0  0  0  0  0  0  0  0
    9.3070   -3.5340   24.8780 C   0  0  0  0  0  0  0  0  0  0  0  0
    7.3170   -0.1610   19.8550 C   0  0  0  0  0  0  0  0  0  0  0  0
    8.4228   -5.1089   26.6141 C   0  0  0  0  0  0  0  0  0  0  0  0
    9.0420    0.3700   21.5280 C   0  0  0  0  0  0  0  0  0  0  0  0
    8.4173   -7.5520   25.9532 C   0  0  0  0  0  0  0  0  0  0  0  0
    9.8870    1.3260   23.5730 C   0  0  0  0  0  0  0  0  0  0  0  0
    8.6900   -6.5411   27.0525 C   0  0  0  0  0  0  0  0  0  0  0  0
    9.4560    0.1560   22.8130 C   0  0  2  0  0  0  0  0  0  0  0  0
    6.7580    0.3810   17.8350 N   0  0  0  0  0  0  0  0  0  0  0  0
    9.2546   -4.7423   25.5437 N   0  0  0  0  0  0  0  0  0  0  0  0
    8.1890   -0.7180   20.8700 N   0  0  0  0  0  0  0  0  0  0  0  0
    7.5768   -4.4085   27.1603 O   0  0  0  0  0  0  0  0  0  0  0  0
    9.2690    1.4140   20.9380 O   0  0  0  0  0  0  0  0  0  0  0  0
    5.7880    3.8602   25.9812 H   0  0  0  0  0  0  0  0  0  0  0  0
    3.6453    2.0152   21.6831 H   0  0  0  0  0  0  0  0  0  0  0  0
    8.0494    3.9127   27.0004 H   0  0  0  0  0  0  0  0  0  0  0  0
    5.4148    2.6402   23.8529 H   0  0  0  0  0  0  0  0  0  0  0  0
    3.0147    2.6520   19.3913 H   0  0  0  0  0  0  0  0  0  0  0  0
    5.6991    0.6995   22.1042 H   0  0  0  0  0  0  0  0  0  0  0  0
    9.9345    2.7516   25.8990 H   0  0  0  0  0  0  0  0  0  0  0  0
    7.2931    1.4761   22.7438 H   0  0  0  0  0  0  0  0  0  0  0  0
    8.9202   -0.1986   25.4206 H   0  0  0  0  0  0  0  0  0  0  0  0
   10.0631   -2.2319   21.8252 H   0  0  0  0  0  0  0  0  0  0  0  0
    4.4051    1.9733   17.4488 H   0  0  0  0  0  0  0  0  0  0  0  0
    8.6898   -2.3534   26.5810 H   0  0  0  0  0  0  0  0  0  0  0  0
    9.9254   -4.3899   22.9914 H   0  0  0  0  0  0  0  0  0  0  0  0
    8.4825   -0.7940   18.0623 H   0  0  0  0  0  0  0  0  0  0  0  0
    7.3765   -7.4970   25.6177 H   0  0  0  0  0  0  0  0  0  0  0  0
    8.6071   -8.5677   26.3139 H   0  0  0  0  0  0  0  0  0  0  0  0
    9.0598   -7.3717   25.0851 H   0  0  0  0  0  0  0  0  0  0  0  0
   10.4287    2.0368   22.9354 H   0  0  0  0  0  0  0  0  0  0  0  0
   10.6035    1.0279   24.3510 H   0  0  0  0  0  0  0  0  0  0  0  0
    9.7367   -6.6182   27.3685 H   0  0  0  0  0  0  0  0  0  0  0  0
    8.0565   -6.7633   27.9190 H   0  0  0  0  0  0  0  0  0  0  0  0
   10.7927   -0.1029   22.4279 H   0  0  0  0  0  0  0  0  0  0  0  0
    6.7266    0.4930   16.8305 H   0  0  0  0  0  0  0  0  0  0  0  0
    9.9034   -5.4689   25.2194 H   0  0  0  0  0  0  0  0  0  0  0  0
    8.2408   -1.5631   21.0968 H   0  0  0  0  0  0  0  0  0  0  0  0
  1  3  1  0  0  0  0
  1  4  2  0  0  0  0
  2  5  1  0  0  0  0
  2  6  2  0  0  0  0
  3  7  2  0  0  0  0
  4  8  1  0  0  0  0
  5 11  2  0  0  0  0
  6 15  1  0  0  0  0
  7 16  1  0  0  0  0
  8 16  2  0  0  0  0
  9 12  2  0  0  0  0
  9 17  1  0  0  0  0
 10 13  1  0  0  0  0
 10 17  2  0  0  0  0
 11 18  1  0  0  0  0
 12 19  1  0  0  0  0
 13 19  2  0  0  0  0
 14 20  2  0  0  0  0
 14 27  1  0  0  0  0
 15 18  2  0  0  0  0
 15 20  1  0  0  0  0
 16 24  1  0  0  0  0
 17 26  1  0  0  0  0
 18 27  1  0  0  0  0
 19 28  1  0  0  0  0
 20 29  1  0  0  0  0
 21 25  1  0  0  0  0
 21 28  1  0  0  0  0
 21 30  2  0  0  0  0
 22 26  1  0  0  0  0
 22 29  1  0  0  0  0
 22 31  2  0  0  0  0
 23 25  1  0  0  0  0
 24 26  1  6  0  0  0
  1 32  1  0  0  0  0
  2 33  1  0  0  0  0
  3 34  1  0  0  0  0
  4 35  1  0  0  0  0
  5 36  1  0  0  0  0
  6 37  1  0  0  0  0
  7 38  1  0  0  0  0
  8 39  1  0  0  0  0
  9 40  1  0  0  0  0
 10 41  1  0  0  0  0
 11 42  1  0  0  0  0
 12 43  1  0  0  0  0
 13 44  1  0  0  0  0
 14 45  1  0  0  0  0
 23 46  1  0  0  0  0
 23 47  1  0  0  0  0
 23 48  1  0  0  0  0
 24 49  1  0  0  0  0
 24 50  1  0  0  0  0
 25 51  1  0  0  0  0
 25 52  1  0  0  0  0
 26 53  1  0  0  0  0
 27 54  1  0  0  0  0
 28 55  1  0  0  0  0
 29 56  1  0  0  0  0
M  END
> <clash_score>
0.6426270629863619

> <docking_score>
-6.9722442626953125

> <overlap_score>
0.8445186614990234

$$$$
BENZO_284_2
  -OEChem-08222022193D

 53 56  0     1  0  0  0  0  0999 V2000
    4.2750    1.7050   20.8490 C   0  0  0  0  0  0  0  0  0  0  0  0
    3.9160    2.0630   19.5520 C   0  0  0  0  0  0  0  0  0  0  0  0
    5.4210    0.9600   21.0930 C   0  0  0  0  0  0  0  0  0  0  0  0
    9.0720   -1.1280   24.8640 C   0  0  0  0  0  0  0  0  0  0  0  0
    9.7200   -2.2600   22.8630 C   0  0  0  0  0  0  0  0  0  0  0  0
    4.6890    1.6810   18.4640 C   0  0  0  0  0  0  0  0  0  0  0  0
    8.9960   -2.3380   25.5320 C   0  0  0  0  0  0  0  0  0  0  0  0
    9.6730   -3.4710   23.5300 C   0  0  0  0  0  0  0  0  0  0  0  0
   12.3907    0.6679   23.6950 C   0  0  0  0  0  0  0  0  0  0  0  0
    7.6390   -0.2680   18.5410 C   0  0  0  0  0  0  0  0  0  0  0  0
   13.4189    0.5308   24.6014 C   0  0  0  0  0  0  0  0  0  0  0  0
   11.3314    1.2632   25.6764 C   0  0  0  0  0  0  0  0  0  0  0  0
    6.1790    0.5730   19.9990 C   0  0  0  0  0  0  0  0  0  0  0  0
    9.3350   -1.0880   23.5010 C   0  0  0  0  0  0  0  0  0  0  0  0
   11.1814    1.0923   24.3176 C   0  0  0  0  0  0  0  0  0  0  0  0
    5.8300    0.9190   18.6970 C   0  0  0  0  0  0  0  0  0  0  0  0
    9.3070   -3.5340   24.8780 C   0  0  0  0  0  0  0  0  0  0  0  0
    7.3170   -0.1610   19.8550 C   0  0  0  0  0  0  0  0  0  0  0  0
    8.4228   -5.1089   26.6141 C   0  0  0  0  0  0  0  0  0  0  0  0
    9.0420    0.3700   21.5280 C   0  0  0  0  0  0  0  0  0  0  0  0
    8.4173   -7.5520   25.9532 C   0  0  0  0  0  0  0  0  0  0  0  0
    9.8870    1.3260   23.5730 C   0  0  0  0  0  0  0  0  0  0  0  0
    8.6900   -6.5411   27.0525 C   0  0  0  0  0  0  0  0  0  0  0  0
    9.4560    0.1560   22.8130 C   0  0  2  0  0  0  0  0  0  0  0  0
    6.7580    0.3810   17.8350 N   0  0  0  0  0  0  0  0  0  0  0  0
    9.2546   -4.7423   25.5437 N   0  0  0  0  0  0  0  0  0  0  0  0
    8.1890   -0.7180   20.8700 N   0  0  0  0  0  0  0  0  0  0  0  0
    7.5768   -4.4085   27.1603 O   0  0  0  0  0  0  0  0  0  0  0  0
    9.2690    1.4140   20.9380 O   0  0  0  0  0  0  0  0  0  0  0  0
   12.9250    0.9128   26.1959 S   0  0  0  0  0  0  0  0  0  0  0  0
    3.6453    2.0152   21.6831 H   0  0  0  0  0  0  0  0  0  0  0  0
    3.0147    2.6520   19.3913 H   0  0  0  0  0  0  0  0  0  0  0  0
    5.6991    0.6995   22.1042 H   0  0  0  0  0  0  0  0  0  0  0  0
    8.9202   -0.1986   25.4206 H   0  0  0  0  0  0  0  0  0  0  0  0
   10.0631   -2.2319   21.8252 H   0  0  0  0  0  0  0  0  0  0  0  0
    4.4051    1.9733   17.4488 H   0  0  0  0  0  0  0  0  0  0  0  0
    8.6898   -2.3534   26.5810 H   0  0  0  0  0  0  0  0  0  0  0  0
    9.9254   -4.3899   22.9914 H   0  0  0  0  0  0  0  0  0  0  0  0
   12.5049    0.4716   22.6364 H   0  0  0  0  0  0  0  0  0  0  0  0
    8.4825   -0.7940   18.0623 H   0  0  0  0  0  0  0  0  0  0  0  0
   14.4362    0.2239   24.4037 H   0  0  0  0  0  0  0  0  0  0  0  0
   10.5839    1.5756   26.3924 H   0  0  0  0  0  0  0  0  0  0  0  0
    7.3765   -7.4970   25.6177 H   0  0  0  0  0  0  0  0  0  0  0  0
    8.6071   -8.5677   26.3139 H   0  0  0  0  0  0  0  0  0  0  0  0
    9.0598   -7.3717   25.0851 H   0  0  0  0  0  0  0  0  0  0  0  0
    9.1131    1.6463   24.2828 H   0  0  0  0  0  0  0  0  0  0  0  0
   10.0354    2.1807   22.8984 H   0  0  0  0  0  0  0  0  0  0  0  0
    9.7367   -6.6182   27.3685 H   0  0  0  0  0  0  0  0  0  0  0  0
    8.0565   -6.7633   27.9190 H   0  0  0  0  0  0  0  0  0  0  0  0
   10.7927   -0.1029   22.4279 H   0  0  0  0  0  0  0  0  0  0  0  0
    6.7266    0.4930   16.8305 H   0  0  0  0  0  0  0  0  0  0  0  0
    9.9034   -5.4689   25.2194 H   0  0  0  0  0  0  0  0  0  0  0  0
    8.2408   -1.5631   21.0968 H   0  0  0  0  0  0  0  0  0  0  0  0
  1  2  1  0  0  0  0
  1  3  2  0  0  0  0
  2  6  2  0  0  0  0
  3 13  1  0  0  0  0
  4  7  2  0  0  0  0
  4 14  1  0  0  0  0
  5  8  1  0  0  0  0
  5 14  2  0  0  0  0
  6 16  1  0  0  0  0
  7 17  1  0  0  0  0
  8 17  2  0  0  0  0
  9 11  2  0  0  0  0
  9 15  1  0  0  0  0
 10 18  2  0  0  0  0
 10 25  1  0  0  0  0
 11 30  1  0  0  0  0
 12 15  2  0  0  0  0
 12 30  1  0  0  0  0
 13 16  2  0  0  0  0
 13 18  1  0  0  0  0
 14 24  1  0  0  0  0
 15 22  1  0  0  0  0
 16 25  1  0  0  0  0
 17 26  1  0  0  0  0
 18 27  1  0  0  0  0
 19 23  1  0  0  0  0
 19 26  1  0  0  0  0
 19 28  2  0  0  0  0
 20 24  1  0  0  0  0
 20 27  1  0  0  0  0
 20 29  2  0  0  0  0
 21 23  1  0  0  0  0
 22 24  1  6  0  0  0
  1 31  1  0  0  0  0
  2 32  1  0  0  0  0
  3 33  1  0  0  0  0
  4 34  1  0  0  0  0
  5 35  1  0  0  0  0
  6 36  1  0  0  0  0
  7 37  1  0  0  0  0
  8 38  1  0  0  0  0
  9 39  1  0  0  0  0
 10 40  1  0  0  0  0
 11 41  1  0  0  0  0
 12 42  1  0  0  0  0
 21 43  1  0  0  0  0
 21 44  1  0  0  0  0
 21 45  1  0  0  0  0
 22 46  1  0  0  0  0
 22 47  1  0  0  0  0
 23 48  1  0  0  0  0
 23 49  1  0  0  0  0
 24 50  1  0  0  0  0
 25 51  1  0  0  0  0
 26 52  1  0  0  0  0
 27 53  1  0  0  0  0
M  END
> <clash_score>
1.2643131727039187

> <docking_score>
-6.078916549682617

> <overlap_score>
0.9106768369674683

$$$$
BENZO_284_1
  -OEChem-08222022193D

 53 56  0     1  0  0  0  0  0999 V2000
    4.2750    1.7050   20.8490 C   0  0  0  0  0  0  0  0  0  0  0  0
    3.9160    2.0630   19.5520 C   0  0  0  0  0  0  0  0  0  0  0  0
    5.4210    0.9600   21.0930 C   0  0  0  0  0  0  0  0  0  0  0  0
    9.0720   -1.1280   24.8640 C   0  0  0  0  0  0  0  0  0  0  0  0
    9.7200   -2.2600   22.8630 C   0  0  0  0  0  0  0  0  0  0  0  0
    4.6890    1.6810   18.4640 C   0  0  0  0  0  0  0  0  0  0  0  0
    8.9960   -2.3380   25.5320 C   0  0  0  0  0  0  0  0  0  0  0  0
    9.6730   -3.4710   23.5300 C   0  0  0  0  0  0  0  0  0  0  0  0
   12.3398    0.5029   23.4216 C   0  0  0  0  0  0  0  0  0  0  0  0
    7.6390   -0.2680   18.5410 C   0  0  0  0  0  0  0  0  0  0  0  0
   13.6291    0.9844   23.3622 C   0  0  0  0  0  0  0  0  0  0  0  0
   11.9713    2.7968   23.4917 C   0  0  0  0  0  0  0  0  0  0  0  0
    6.1790    0.5730   19.9990 C   0  0  0  0  0  0  0  0  0  0  0  0
    9.3350   -1.0880   23.5010 C   0  0  0  0  0  0  0  0  0  0  0  0
   11.3794    1.5528   23.4964 C   0  0  0  0  0  0  0  0  0  0  0  0
    5.8300    0.9190   18.6970 C   0  0  0  0  0  0  0  0  0  0  0  0
    9.3070   -3.5340   24.8780 C   0  0  0  0  0  0  0  0  0  0  0  0
    7.3170   -0.1610   19.8550 C   0  0  0  0  0  0  0  0  0  0  0  0
    8.4228   -5.1089   26.6141 C   0  0  0  0  0  0  0  0  0  0  0  0
    9.0420    0.3700   21.5280 C   0  0  0  0  0  0  0  0  0  0  0  0
    8.4173   -7.5520   25.9532 C   0  0  0  0  0  0  0  0  0  0  0  0
    9.8870    1.3260   23.5730 C   0  0  0  0  0  0  0  0  0  0  0  0
    8.6900   -6.5411   27.0525 C   0  0  0  0  0  0  0  0  0  0  0  0
    9.4560    0.1560   22.8130 C   0  0  1  0  0  0  0  0  0  0  0  0
    6.7580    0.3810   17.8350 N   0  0  0  0  0  0  0  0  0  0  0  0
    9.2546   -4.7423   25.5437 N   0  0  0  0  0  0  0  0  0  0  0  0
    8.1890   -0.7180   20.8700 N   0  0  0  0  0  0  0  0  0  0  0  0
    7.5768   -4.4085   27.1603 O   0  0  0  0  0  0  0  0  0  0  0  0
    9.2690    1.4140   20.9380 O   0  0  0  0  0  0  0  0  0  0  0  0
   13.6781    2.6957   23.3969 S   0  0  0  0  0  0  0  0  0  0  0  0
    3.6453    2.0152   21.6831 H   0  0  0  0  0  0  0  0  0  0  0  0
    3.0147    2.6520   19.3913 H   0  0  0  0  0  0  0  0  0  0  0  0
    5.6991    0.6995   22.1042 H   0  0  0  0  0  0  0  0  0  0  0  0
    8.9202   -0.1986   25.4206 H   0  0  0  0  0  0  0  0  0  0  0  0
   10.0631   -2.2319   21.8252 H   0  0  0  0  0  0  0  0  0  0  0  0
    4.4051    1.9733   17.4488 H   0  0  0  0  0  0  0  0  0  0  0  0
    8.6898   -2.3534   26.5810 H   0  0  0  0  0  0  0  0  0  0  0  0
    9.9254   -4.3899   22.9914 H   0  0  0  0  0  0  0  0  0  0  0  0
   12.1014   -0.5532   23.4119 H   0  0  0  0  0  0  0  0  0  0  0  0
    8.4825   -0.7940   18.0623 H   0  0  0  0  0  0  0  0  0  0  0  0
   14.5445    0.4131   23.3009 H   0  0  0  0  0  0  0  0  0  0  0  0
   11.4871    3.7623   23.5403 H   0  0  0  0  0  0  0  0  0  0  0  0
    7.3765   -7.4970   25.6177 H   0  0  0  0  0  0  0  0  0  0  0  0
    8.6071   -8.5677   26.3139 H   0  0  0  0  0  0  0  0  0  0  0  0
    9.0598   -7.3717   25.0851 H   0  0  0  0  0  0  0  0  0  0  0  0
    9.5854    1.2495   24.6258 H   0  0  0  0  0  0  0  0  0  0  0  0
    9.3886    2.2282   23.1920 H   0  0  0  0  0  0  0  0  0  0  0  0
    9.7367   -6.6182   27.3685 H   0  0  0  0  0  0  0  0  0  0  0  0
    8.0565   -6.7633   27.9190 H   0  0  0  0  0  0  0  0  0  0  0  0
    8.0686    0.4964   23.2745 H   0  0  0  0  0  0  0  0  0  0  0  0
    6.7266    0.4930   16.8305 H   0  0  0  0  0  0  0  0  0  0  0  0
    9.9034   -5.4689   25.2194 H   0  0  0  0  0  0  0  0  0  0  0  0
    8.2408   -1.5631   21.0968 H   0  0  0  0  0  0  0  0  0  0  0  0
  1  2  1  0  0  0  0
  1  3  2  0  0  0  0
  2  6  2  0  0  0  0
  3 13  1  0  0  0  0
  4  7  2  0  0  0  0
  4 14  1  0  0  0  0
  5  8  1  0  0  0  0
  5 14  2  0  0  0  0
  6 16  1  0  0  0  0
  7 17  1  0  0  0  0
  8 17  2  0  0  0  0
  9 11  2  0  0  0  0
  9 15  1  0  0  0  0
 10 18  2  0  0  0  0
 10 25  1  0  0  0  0
 11 30  1  0  0  0  0
 12 15  2  0  0  0  0
 12 30  1  0  0  0  0
 13 16  2  0  0  0  0
 13 18  1  0  0  0  0
 14 24  1  0  0  0  0
 15 22  1  0  0  0  0
 16 25  1  0  0  0  0
 17 26  1  0  0  0  0
 18 27  1  0  0  0  0
 19 23  1  0  0  0  0
 19 26  1  0  0  0  0
 19 28  2  0  0  0  0
 20 24  1  0  0  0  0
 20 27  1  0  0  0  0
 20 29  2  0  0  0  0
 21 23  1  0  0  0  0
 22 24  1  1  0  0  0
  1 31  1  0  0  0  0
  2 32  1  0  0  0  0
  3 33  1  0  0  0  0
  4 34  1  0  0  0  0
  5 35  1  0  0  0  0
  6 36  1  0  0  0  0
  7 37  1  0  0  0  0
  8 38  1  0  0  0  0
  9 39  1  0  0  0  0
 10 40  1  0  0  0  0
 11 41  1  0  0  0  0
 12 42  1  0  0  0  0
 21 43  1  0  0  0  0
 21 44  1  0  0  0  0
 21 45  1  0  0  0  0
 22 46  1  0  0  0  0
 22 47  1  0  0  0  0
 23 48  1  0  0  0  0
 23 49  1  0  0  0  0
 24 50  1  0  0  0  0
 25 51  1  0  0  0  0
 26 52  1  0  0  0  0
 27 53  1  0  0  0  0
M  END
> <clash_score>
0.6426270629863619

> <docking_score>
-8.193063735961914

> <overlap_score>
0.9874261021614075

$$$$
BENZO_286_2
  -OEChem-08222022193D

 56 59  0     1  0  0  0  0  0999 V2000
    4.2750    1.7050   20.8490 C   0  0  0  0  0  0  0  0  0  0  0  0
    3.9160    2.0630   19.5520 C   0  0  0  0  0  0  0  0  0  0  0  0
    6.3759    2.2080   24.7298 C   0  0  0  0  0  0  0  0  0  0  0  0
    5.4210    0.9600   21.0930 C   0  0  0  0  0  0  0  0  0  0  0  0
    7.4372    1.5528   24.1054 C   0  0  0  0  0  0  0  0  0  0  0  0
    9.0720   -1.1280   24.8640 C   0  0  0  0  0  0  0  0  0  0  0  0
    9.7200   -2.2600   22.8630 C   0  0  0  0  0  0  0  0  0  0  0  0
    4.6890    1.6810   18.4640 C   0  0  0  0  0  0  0  0  0  0  0  0
    8.9960   -2.3380   25.5320 C   0  0  0  0  0  0  0  0  0  0  0  0
    9.6730   -3.4710   23.5300 C   0  0  0  0  0  0  0  0  0  0  0  0
    6.6147    3.3479   25.4976 C   0  0  0  0  0  0  0  0  0  0  0  0
    8.9762    3.1771   25.0167 C   0  0  0  0  0  0  0  0  0  0  0  0
    7.6390   -0.2680   18.5410 C   0  0  0  0  0  0  0  0  0  0  0  0
    6.1790    0.5730   19.9990 C   0  0  0  0  0  0  0  0  0  0  0  0
    9.3350   -1.0880   23.5010 C   0  0  0  0  0  0  0  0  0  0  0  0
    8.7373    2.0373   24.2489 C   0  0  0  0  0  0  0  0  0  0  0  0
    5.8300    0.9190   18.6970 C   0  0  0  0  0  0  0  0  0  0  0  0
    9.3070   -3.5340   24.8780 C   0  0  0  0  0  0  0  0  0  0  0  0
    7.3170   -0.1610   19.8550 C   0  0  0  0  0  0  0  0  0  0  0  0
    7.9148    3.8324   25.6411 C   0  0  0  0  0  0  0  0  0  0  0  0
    8.4228   -5.1089   26.6141 C   0  0  0  0  0  0  0  0  0  0  0  0
    9.0420    0.3700   21.5280 C   0  0  0  0  0  0  0  0  0  0  0  0
    8.4173   -7.5520   25.9532 C   0  0  0  0  0  0  0  0  0  0  0  0
    9.8870    1.3260   23.5730 C   0  0  0  0  0  0  0  0  0  0  0  0
    8.6900   -6.5411   27.0525 C   0  0  0  0  0  0  0  0  0  0  0  0
    9.4560    0.1560   22.8130 C   0  0  2  0  0  0  0  0  0  0  0  0
    6.7580    0.3810   17.8350 N   0  0  0  0  0  0  0  0  0  0  0  0
    9.2546   -4.7423   25.5437 N   0  0  0  0  0  0  0  0  0  0  0  0
    8.1890   -0.7180   20.8700 N   0  0  0  0  0  0  0  0  0  0  0  0
    7.5768   -4.4085   27.1603 O   0  0  0  0  0  0  0  0  0  0  0  0
    9.2690    1.4140   20.9380 O   0  0  0  0  0  0  0  0  0  0  0  0
    8.2090    5.2380   26.5894 Cl  0  0  0  0  0  0  0  0  0  0  0  0
    3.6453    2.0152   21.6831 H   0  0  0  0  0  0  0  0  0  0  0  0
    3.0147    2.6520   19.3913 H   0  0  0  0  0  0  0  0  0  0  0  0
    5.3637    1.8303   24.6180 H   0  0  0  0  0  0  0  0  0  0  0  0
    5.6991    0.6995   22.1042 H   0  0  0  0  0  0  0  0  0  0  0  0
    7.2419    0.6653   23.5092 H   0  0  0  0  0  0  0  0  0  0  0  0
    8.9202   -0.1986   25.4206 H   0  0  0  0  0  0  0  0  0  0  0  0
   10.0631   -2.2319   21.8252 H   0  0  0  0  0  0  0  0  0  0  0  0
    4.4051    1.9733   17.4488 H   0  0  0  0  0  0  0  0  0  0  0  0
    8.6898   -2.3534   26.5810 H   0  0  0  0  0  0  0  0  0  0  0  0
    9.9254   -4.3899   22.9914 H   0  0  0  0  0  0  0  0  0  0  0  0
    5.7779    3.8482   25.9787 H   0  0  0  0  0  0  0  0  0  0  0  0
    9.9916    3.5512   25.1250 H   0  0  0  0  0  0  0  0  0  0  0  0
    8.4825   -0.7940   18.0623 H   0  0  0  0  0  0  0  0  0  0  0  0
    7.3765   -7.4970   25.6177 H   0  0  0  0  0  0  0  0  0  0  0  0
    8.6071   -8.5677   26.3139 H   0  0  0  0  0  0  0  0  0  0  0  0
    9.0598   -7.3717   25.0851 H   0  0  0  0  0  0  0  0  0  0  0  0
   10.4287    2.0369   22.9354 H   0  0  0  0  0  0  0  0  0  0  0  0
   10.6035    1.0279   24.3510 H   0  0  0  0  0  0  0  0  0  0  0  0
    9.7367   -6.6182   27.3685 H   0  0  0  0  0  0  0  0  0  0  0  0
    8.0565   -6.7633   27.9190 H   0  0  0  0  0  0  0  0  0  0  0  0
   10.7927   -0.1029   22.4279 H   0  0  0  0  0  0  0  0  0  0  0  0
    6.7266    0.4930   16.8305 H   0  0  0  0  0  0  0  0  0  0  0  0
    9.9034   -5.4689   25.2194 H   0  0  0  0  0  0  0  0  0  0  0  0
    8.2408   -1.5631   21.0968 H   0  0  0  0  0  0  0  0  0  0  0  0
  1  2  1  0  0  0  0
  1  4  2  0  0  0  0
  2  8  2  0  0  0  0
  3  5  2  0  0  0  0
  3 11  1  0  0  0  0
  4 14  1  0  0  0  0
  5 16  1  0  0  0  0
  6  9  2  0  0  0  0
  6 15  1  0  0  0  0
  7 10  1  0  0  0  0
  7 15  2  0  0  0  0
  8 17  1  0  0  0  0
  9 18  1  0  0  0  0
 10 18  2  0  0  0  0
 11 20  2  0  0  0  0
 12 16  2  0  0  0  0
 12 20  1  0  0  0  0
 13 19  2  0  0  0  0
 13 27  1  0  0  0  0
 14 17  2  0  0  0  0
 14 19  1  0  0  0  0
 15 26  1  0  0  0  0
 16 24  1  0  0  0  0
 17 27  1  0  0  0  0
 18 28  1  0  0  0  0
 19 29  1  0  0  0  0
 20 32  1  0  0  0  0
 21 25  1  0  0  0  0
 21 28  1  0  0  0  0
 21 30  2  0  0  0  0
 22 26  1  0  0  0  0
 22 29  1  0  0  0  0
 22 31  2  0  0  0  0
 23 25  1  0  0  0  0
 24 26  1  6  0  0  0
  1 33  1  0  0  0  0
  2 34  1  0  0  0  0
  3 35  1  0  0  0  0
  4 36  1  0  0  0  0
  5 37  1  0  0  0  0
  6 38  1  0  0  0  0
  7 39  1  0  0  0  0
  8 40  1  0  0  0  0
  9 41  1  0  0  0  0
 10 42  1  0  0  0  0
 11 43  1  0  0  0  0
 12 44  1  0  0  0  0
 13 45  1  0  0  0  0
 23 46  1  0  0  0  0
 23 47  1  0  0  0  0
 23 48  1  0  0  0  0
 24 49  1  0  0  0  0
 24 50  1  0  0  0  0
 25 51  1  0  0  0  0
 25 52  1  0  0  0  0
 26 53  1  0  0  0  0
 27 54  1  0  0  0  0
 28 55  1  0  0  0  0
 29 56  1  0  0  0  0
M  END
> <clash_score>
0.6426270629863619

> <docking_score>
-7.112123489379883

> <overlap_score>
0.8434877395629883

$$$$
BENZO_286_1
  -OEChem-08222022193D

 56 59  0     1  0  0  0  0  0999 V2000
    4.2750    1.7050   20.8490 C   0  0  0  0  0  0  0  0  0  0  0  0
    3.9160    2.0630   19.5520 C   0  0  0  0  0  0  0  0  0  0  0  0
   13.6189    0.6768   23.2648 C   0  0  0  0  0  0  0  0  0  0  0  0
    5.4210    0.9600   21.0930 C   0  0  0  0  0  0  0  0  0  0  0  0
   12.2417    0.4681   23.3367 C   0  0  0  0  0  0  0  0  0  0  0  0
    9.0720   -1.1280   24.8640 C   0  0  0  0  0  0  0  0  0  0  0  0
    9.7200   -2.2600   22.8630 C   0  0  0  0  0  0  0  0  0  0  0  0
    4.6890    1.6810   18.4640 C   0  0  0  0  0  0  0  0  0  0  0  0
    8.9960   -2.3380   25.5320 C   0  0  0  0  0  0  0  0  0  0  0  0
    9.6730   -3.4710   23.5300 C   0  0  0  0  0  0  0  0  0  0  0  0
   14.1339    1.9702   23.3527 C   0  0  0  0  0  0  0  0  0  0  0  0
   11.8943    2.8462   23.5844 C   0  0  0  0  0  0  0  0  0  0  0  0
    7.6390   -0.2680   18.5410 C   0  0  0  0  0  0  0  0  0  0  0  0
    6.1790    0.5730   19.9990 C   0  0  0  0  0  0  0  0  0  0  0  0
    9.3350   -1.0880   23.5010 C   0  0  0  0  0  0  0  0  0  0  0  0
   11.3794    1.5528   23.4964 C   0  0  0  0  0  0  0  0  0  0  0  0
    5.8300    0.9190   18.6970 C   0  0  0  0  0  0  0  0  0  0  0  0
    9.3070   -3.5340   24.8780 C   0  0  0  0  0  0  0  0  0  0  0  0
    7.3170   -0.1610   19.8550 C   0  0  0  0  0  0  0  0  0  0  0  0
   13.2716    3.0548   23.5125 C   0  0  0  0  0  0  0  0  0  0  0  0
    8.4228   -5.1089   26.6141 C   0  0  0  0  0  0  0  0  0  0  0  0
    9.0420    0.3700   21.5280 C   0  0  0  0  0  0  0  0  0  0  0  0
    8.4173   -7.5520   25.9532 C   0  0  0  0  0  0  0  0  0  0  0  0
    9.8870    1.3260   23.5730 C   0  0  0  0  0  0  0  0  0  0  0  0
    8.6900   -6.5411   27.0525 C   0  0  0  0  0  0  0  0  0  0  0  0
    9.4560    0.1560   22.8130 C   0  0  1  0  0  0  0  0  0  0  0  0
    6.7580    0.3810   17.8350 N   0  0  0  0  0  0  0  0  0  0  0  0
    9.2546   -4.7423   25.5437 N   0  0  0  0  0  0  0  0  0  0  0  0
    8.1890   -0.7180   20.8700 N   0  0  0  0  0  0  0  0  0  0  0  0
    7.5768   -4.4085   27.1603 O   0  0  0  0  0  0  0  0  0  0  0  0
    9.2690    1.4140   20.9380 O   0  0  0  0  0  0  0  0  0  0  0  0
   13.9075    4.6504   23.6198 Cl  0  0  0  0  0  0  0  0  0  0  0  0
    3.6453    2.0152   21.6831 H   0  0  0  0  0  0  0  0  0  0  0  0
    3.0147    2.6520   19.3913 H   0  0  0  0  0  0  0  0  0  0  0  0
   14.2901   -0.1681   23.1402 H   0  0  0  0  0  0  0  0  0  0  0  0
    5.6991    0.6995   22.1042 H   0  0  0  0  0  0  0  0  0  0  0  0
   11.8492   -0.5431   23.2671 H   0  0  0  0  0  0  0  0  0  0  0  0
    8.9202   -0.1986   25.4206 H   0  0  0  0  0  0  0  0  0  0  0  0
   10.0631   -2.2319   21.8252 H   0  0  0  0  0  0  0  0  0  0  0  0
    4.4051    1.9733   17.4488 H   0  0  0  0  0  0  0  0  0  0  0  0
    8.6898   -2.3534   26.5810 H   0  0  0  0  0  0  0  0  0  0  0  0
    9.9254   -4.3899   22.9914 H   0  0  0  0  0  0  0  0  0  0  0  0
   15.2095    2.1179   23.2949 H   0  0  0  0  0  0  0  0  0  0  0  0
   11.2178    3.6885   23.7094 H   0  0  0  0  0  0  0  0  0  0  0  0
    8.4825   -0.7940   18.0623 H   0  0  0  0  0  0  0  0  0  0  0  0
    7.3765   -7.4970   25.6177 H   0  0  0  0  0  0  0  0  0  0  0  0
    8.6071   -8.5677   26.3139 H   0  0  0  0  0  0  0  0  0  0  0  0
    9.0598   -7.3717   25.0851 H   0  0  0  0  0  0  0  0  0  0  0  0
    9.5854    1.2495   24.6258 H   0  0  0  0  0  0  0  0  0  0  0  0
    9.3886    2.2282   23.1920 H   0  0  0  0  0  0  0  0  0  0  0  0
    9.7367   -6.6182   27.3685 H   0  0  0  0  0  0  0  0  0  0  0  0
    8.0565   -6.7633   27.9190 H   0  0  0  0  0  0  0  0  0  0  0  0
    8.0686    0.4964   23.2745 H   0  0  0  0  0  0  0  0  0  0  0  0
    6.7266    0.4930   16.8305 H   0  0  0  0  0  0  0  0  0  0  0  0
    9.9034   -5.4689   25.2194 H   0  0  0  0  0  0  0  0  0  0  0  0
    8.2408   -1.5631   21.0968 H   0  0  0  0  0  0  0  0  0  0  0  0
  1  2  1  0  0  0  0
  1  4  2  0  0  0  0
  2  8  2  0  0  0  0
  3  5  2  0  0  0  0
  3 11  1  0  0  0  0
  4 14  1  0  0  0  0
  5 16  1  0  0  0  0
  6  9  2  0  0  0  0
  6 15  1  0  0  0  0
  7 10  1  0  0  0  0
  7 15  2  0  0  0  0
  8 17  1  0  0  0  0
  9 18  1  0  0  0  0
 10 18  2  0  0  0  0
 11 20  2  0  0  0  0
 12 16  2  0  0  0  0
 12 20  1  0  0  0  0
 13 19  2  0  0  0  0
 13 27  1  0  0  0  0
 14 17  2  0  0  0  0
 14 19  1  0  0  0  0
 15 26  1  0  0  0  0
 16 24  1  0  0  0  0
 17 27  1  0  0  0  0
 18 28  1  0  0  0  0
 19 29  1  0  0  0  0
 20 32  1  0  0  0  0
 21 25  1  0  0  0  0
 21 28  1  0  0  0  0
 21 30  2  0  0  0  0
 22 26  1  0  0  0  0
 22 29  1  0  0  0  0
 22 31  2  0  0  0  0
 23 25  1  0  0  0  0
 24 26  1  1  0  0  0
  1 33  1  0  0  0  0
  2 34  1  0  0  0  0
  3 35  1  0  0  0  0
  4 36  1  0  0  0  0
  5 37  1  0  0  0  0
  6 38  1  0  0  0  0
  7 39  1  0  0  0  0
  8 40  1  0  0  0  0
  9 41  1  0  0  0  0
 10 42  1  0  0  0  0
 11 43  1  0  0  0  0
 12 44  1  0  0  0  0
 13 45  1  0  0  0  0
 23 46  1  0  0  0  0
 23 47  1  0  0  0  0
 23 48  1  0  0  0  0
 24 49  1  0  0  0  0
 24 50  1  0  0  0  0
 25 51  1  0  0  0  0
 25 52  1  0  0  0  0
 26 53  1  0  0  0  0
 27 54  1  0  0  0  0
 28 55  1  0  0  0  0
 29 56  1  0  0  0  0
M  END
> <clash_score>
0.6426270629863619

> <docking_score>
-7.438221454620361

> <overlap_score>
1.0046876668930054

$$$$
BENZO_289_1
  -OEChem-08222022193D

 61 65  0     1  0  0  0  0  0999 V2000
   12.9362    3.6202   21.5882 C   0  0  0  0  0  0  0  0  0  0  0  0
    4.2750    1.7050   20.8490 C   0  0  0  0  0  0  0  0  0  0  0  0
   13.2938    2.5837   22.4503 C   0  0  0  0  0  0  0  0  0  0  0  0
   11.5898    3.9128   21.3700 C   0  0  0  0  0  0  0  0  0  0  0  0
    3.9160    2.0630   19.5520 C   0  0  0  0  0  0  0  0  0  0  0  0
    5.4210    0.9600   21.0930 C   0  0  0  0  0  0  0  0  0  0  0  0
   12.3051    1.8396   23.0941 C   0  0  0  0  0  0  0  0  0  0  0  0
   10.6012    3.1687   22.0138 C   0  0  0  0  0  0  0  0  0  0  0  0
    9.0720   -1.1280   24.8640 C   0  0  0  0  0  0  0  0  0  0  0  0
    9.7200   -2.2600   22.8630 C   0  0  0  0  0  0  0  0  0  0  0  0
    4.6890    1.6810   18.4640 C   0  0  0  0  0  0  0  0  0  0  0  0
    8.9960   -2.3380   25.5320 C   0  0  0  0  0  0  0  0  0  0  0  0
    9.6730   -3.4710   23.5300 C   0  0  0  0  0  0  0  0  0  0  0  0
    7.6390   -0.2680   18.5410 C   0  0  0  0  0  0  0  0  0  0  0  0
    6.1790    0.5730   19.9990 C   0  0  0  0  0  0  0  0  0  0  0  0
   10.9588    2.1321   22.8759 C   0  0  0  0  0  0  0  0  0  0  0  0
    9.3350   -1.0880   23.5010 C   0  0  0  0  0  0  0  0  0  0  0  0
    5.8300    0.9190   18.6970 C   0  0  0  0  0  0  0  0  0  0  0  0
    9.3070   -3.5340   24.8780 C   0  0  0  0  0  0  0  0  0  0  0  0
    7.3170   -0.1610   19.8550 C   0  0  0  0  0  0  0  0  0  0  0  0
    9.0420    0.3700   21.5280 C   0  0  0  0  0  0  0  0  0  0  0  0
    7.3637   -6.1365   27.1885 C   0  0  0  0  0  0  0  0  0  0  0  0
    8.1962   -4.9739   27.7340 C   0  0  0  0  0  0  0  0  0  0  0  0
    7.1943   -6.0395   25.6706 C   0  0  0  0  0  0  0  0  0  0  0  0
    9.5197   -4.8493   26.9795 C   0  0  0  0  0  0  0  0  0  0  0  0
    8.5443   -5.8838   24.9636 C   0  0  0  0  0  0  0  0  0  0  0  0
    9.8870    1.3260   23.5730 C   0  0  0  0  0  0  0  0  0  0  0  0
    9.4560    0.1560   22.8130 C   0  0  1  0  0  0  0  0  0  0  0  0
    6.7580    0.3810   17.8350 N   0  0  0  0  0  0  0  0  0  0  0  0
    9.2563   -4.7385   25.5420 N   0  0  0  0  0  0  0  0  0  0  0  0
    8.1890   -0.7180   20.8700 N   0  0  0  0  0  0  0  0  0  0  0  0
    9.2690    1.4140   20.9380 O   0  0  0  0  0  0  0  0  0  0  0  0
   13.7061    4.2004   21.0881 H   0  0  0  0  0  0  0  0  0  0  0  0
    3.6453    2.0152   21.6831 H   0  0  0  0  0  0  0  0  0  0  0  0
   14.3420    2.3565   22.6212 H   0  0  0  0  0  0  0  0  0  0  0  0
   11.3111    4.7205   20.6997 H   0  0  0  0  0  0  0  0  0  0  0  0
    3.0147    2.6520   19.3913 H   0  0  0  0  0  0  0  0  0  0  0  0
    5.6991    0.6995   22.1042 H   0  0  0  0  0  0  0  0  0  0  0  0
   12.5931    1.0336   23.7640 H   0  0  0  0  0  0  0  0  0  0  0  0
    9.5548    3.4036   21.8376 H   0  0  0  0  0  0  0  0  0  0  0  0
    8.9214   -0.1986   25.4206 H   0  0  0  0  0  0  0  0  0  0  0  0
   10.0622   -2.2326   21.8251 H   0  0  0  0  0  0  0  0  0  0  0  0
    4.4051    1.9733   17.4488 H   0  0  0  0  0  0  0  0  0  0  0  0
    8.6882   -2.3542   26.5803 H   0  0  0  0  0  0  0  0  0  0  0  0
    9.9258   -4.3896   22.9914 H   0  0  0  0  0  0  0  0  0  0  0  0
    8.4825   -0.7940   18.0623 H   0  0  0  0  0  0  0  0  0  0  0  0
    7.8484   -7.0905   27.4464 H   0  0  0  0  0  0  0  0  0  0  0  0
    6.3761   -6.1442   27.6721 H   0  0  0  0  0  0  0  0  0  0  0  0
    7.6308   -4.0428   27.6404 H   0  0  0  0  0  0  0  0  0  0  0  0
    8.3917   -5.1316   28.7967 H   0  0  0  0  0  0  0  0  0  0  0  0
    6.6889   -6.9376   25.3006 H   0  0  0  0  0  0  0  0  0  0  0  0
    6.5516   -5.1860   25.4256 H   0  0  0  0  0  0  0  0  0  0  0  0
   10.0494   -3.9643   27.3413 H   0  0  0  0  0  0  0  0  0  0  0  0
   10.1432   -5.7258   27.1775 H   0  0  0  0  0  0  0  0  0  0  0  0
    9.1338   -6.7931   25.0863 H   0  0  0  0  0  0  0  0  0  0  0  0
    8.3657   -5.7262   23.8995 H   0  0  0  0  0  0  0  0  0  0  0  0
   10.2417    1.0375   24.5711 H   0  0  0  0  0  0  0  0  0  0  0  0
    9.0279    1.9881   23.7492 H   0  0  0  0  0  0  0  0  0  0  0  0
   10.7949   -0.0994   22.4253 H   0  0  0  0  0  0  0  0  0  0  0  0
    6.7266    0.4930   16.8305 H   0  0  0  0  0  0  0  0  0  0  0  0
    8.2585   -1.5522   21.1129 H   0  0  0  0  0  0  0  0  0  0  0  0
  1  3  1  0  0  0  0
  1  4  2  0  0  0  0
  2  5  1  0  0  0  0
  2  6  2  0  0  0  0
  3  7  2  0  0  0  0
  4  8  1  0  0  0  0
  5 11  2  0  0  0  0
  6 15  1  0  0  0  0
  7 16  1  0  0  0  0
  8 16  2  0  0  0  0
  9 12  2  0  0  0  0
  9 17  1  0  0  0  0
 10 13  1  0  0  0  0
 10 17  2  0  0  0  0
 11 18  1  0  0  0  0
 12 19  1  0  0  0  0
 13 19  2  0  0  0  0
 14 20  2  0  0  0  0
 14 29  1  0  0  0  0
 15 18  2  0  0  0  0
 15 20  1  0  0  0  0
 16 27  1  0  0  0  0
 17 28  1  0  0  0  0
 18 29  1  0  0  0  0
 19 30  1  0  0  0  0
 20 31  1  0  0  0  0
 21 28  1  1  0  0  0
 21 31  1  0  0  0  0
 21 32  2  0  0  0  0
 22 23  1  0  0  0  0
 22 24  1  0  0  0  0
 23 25  1  0  0  0  0
 24 26  1  0  0  0  0
 25 30  1  0  0  0  0
 26 30  1  0  0  0  0
 27 28  1  0  0  0  0
  1 33  1  0  0  0  0
  2 34  1  0  0  0  0
  3 35  1  0  0  0  0
  4 36  1  0  0  0  0
  5 37  1  0  0  0  0
  6 38  1  0  0  0  0
  7 39  1  0  0  0  0
  8 40  1  0  0  0  0
  9 41  1  0  0  0  0
 10 42  1  0  0  0  0
 11 43  1  0  0  0  0
 12 44  1  0  0  0  0
 13 45  1  0  0  0  0
 14 46  1  0  0  0  0
 22 47  1  0  0  0  0
 22 48  1  0  0  0  0
 23 49  1  0  0  0  0
 23 50  1  0  0  0  0
 24 51  1  0  0  0  0
 24 52  1  0  0  0  0
 25 53  1  0  0  0  0
 25 54  1  0  0  0  0
 26 55  1  0  0  0  0
 26 56  1  0  0  0  0
 27 57  1  0  0  0  0
 27 58  1  0  0  0  0
 28 59  1  0  0  0  0
 29 60  1  0  0  0  0
 31 61  1  0  0  0  0
M  END
> <clash_score>
0.6168219295201246

> <docking_score>
-8.446016311645508

> <overlap_score>
0.9706592559814453

$$$$
BENZO_288_1
  -OEChem-08222022193D

 58 62  0     1  0  0  0  0  0999 V2000
    4.2750    1.7050   20.8490 C   0  0  0  0  0  0  0  0  0  0  0  0
    3.9160    2.0630   19.5520 C   0  0  0  0  0  0  0  0  0  0  0  0
    5.4210    0.9600   21.0930 C   0  0  0  0  0  0  0  0  0  0  0  0
    9.0720   -1.1280   24.8640 C   0  0  0  0  0  0  0  0  0  0  0  0
    9.7200   -2.2600   22.8630 C   0  0  0  0  0  0  0  0  0  0  0  0
    4.6890    1.6810   18.4640 C   0  0  0  0  0  0  0  0  0  0  0  0
    8.9960   -2.3380   25.5320 C   0  0  0  0  0  0  0  0  0  0  0  0
    9.6730   -3.4710   23.5300 C   0  0  0  0  0  0  0  0  0  0  0  0
   12.3968    0.6932   23.7036 C   0  0  0  0  0  0  0  0  0  0  0  0
    7.6390   -0.2680   18.5410 C   0  0  0  0  0  0  0  0  0  0  0  0
   13.4249    0.5733   24.6125 C   0  0  0  0  0  0  0  0  0  0  0  0
   11.3289    1.2940   25.6787 C   0  0  0  0  0  0  0  0  0  0  0  0
    6.1790    0.5730   19.9990 C   0  0  0  0  0  0  0  0  0  0  0  0
    9.3350   -1.0880   23.5010 C   0  0  0  0  0  0  0  0  0  0  0  0
   11.1825    1.1108   24.3212 C   0  0  0  0  0  0  0  0  0  0  0  0
    5.8300    0.9190   18.6970 C   0  0  0  0  0  0  0  0  0  0  0  0
    9.3070   -3.5340   24.8780 C   0  0  0  0  0  0  0  0  0  0  0  0
    7.3170   -0.1610   19.8550 C   0  0  0  0  0  0  0  0  0  0  0  0
    9.0420    0.3700   21.5280 C   0  0  0  0  0  0  0  0  0  0  0  0
    7.3637   -6.1365   27.1885 C   0  0  0  0  0  0  0  0  0  0  0  0
    8.1962   -4.9739   27.7340 C   0  0  0  0  0  0  0  0  0  0  0  0
    7.1943   -6.0395   25.6706 C   0  0  0  0  0  0  0  0  0  0  0  0
    9.5197   -4.8493   26.9795 C   0  0  0  0  0  0  0  0  0  0  0  0
    8.5443   -5.8838   24.9636 C   0  0  0  0  0  0  0  0  0  0  0  0
    9.8870    1.3260   23.5730 C   0  0  0  0  0  0  0  0  0  0  0  0
    9.4560    0.1560   22.8130 C   0  0  1  0  0  0  0  0  0  0  0  0
    6.7580    0.3810   17.8350 N   0  0  0  0  0  0  0  0  0  0  0  0
    9.2563   -4.7385   25.5420 N   0  0  0  0  0  0  0  0  0  0  0  0
    8.1890   -0.7180   20.8700 N   0  0  0  0  0  0  0  0  0  0  0  0
    9.2690    1.4140   20.9380 O   0  0  0  0  0  0  0  0  0  0  0  0
   12.9251    0.9633   26.2032 S   0  0  0  0  0  0  0  0  0  0  0  0
    3.6453    2.0152   21.6831 H   0  0  0  0  0  0  0  0  0  0  0  0
    3.0147    2.6520   19.3913 H   0  0  0  0  0  0  0  0  0  0  0  0
    5.6991    0.6995   22.1042 H   0  0  0  0  0  0  0  0  0  0  0  0
    8.9214   -0.1986   25.4206 H   0  0  0  0  0  0  0  0  0  0  0  0
   10.0622   -2.2326   21.8251 H   0  0  0  0  0  0  0  0  0  0  0  0
    4.4051    1.9733   17.4488 H   0  0  0  0  0  0  0  0  0  0  0  0
    8.6882   -2.3542   26.5803 H   0  0  0  0  0  0  0  0  0  0  0  0
    9.9258   -4.3896   22.9914 H   0  0  0  0  0  0  0  0  0  0  0  0
   12.5144    0.4895   22.6468 H   0  0  0  0  0  0  0  0  0  0  0  0
    8.4825   -0.7940   18.0623 H   0  0  0  0  0  0  0  0  0  0  0  0
   14.4455    0.2746   24.4187 H   0  0  0  0  0  0  0  0  0  0  0  0
   10.5774    1.6050   26.3912 H   0  0  0  0  0  0  0  0  0  0  0  0
    7.8484   -7.0905   27.4464 H   0  0  0  0  0  0  0  0  0  0  0  0
    6.3761   -6.1442   27.6721 H   0  0  0  0  0  0  0  0  0  0  0  0
    7.6308   -4.0428   27.6404 H   0  0  0  0  0  0  0  0  0  0  0  0
    8.3917   -5.1316   28.7967 H   0  0  0  0  0  0  0  0  0  0  0  0
    6.6889   -6.9376   25.3006 H   0  0  0  0  0  0  0  0  0  0  0  0
    6.5516   -5.1860   25.4256 H   0  0  0  0  0  0  0  0  0  0  0  0
   10.0494   -3.9643   27.3413 H   0  0  0  0  0  0  0  0  0  0  0  0
   10.1432   -5.7258   27.1775 H   0  0  0  0  0  0  0  0  0  0  0  0
    9.1338   -6.7931   25.0863 H   0  0  0  0  0  0  0  0  0  0  0  0
    8.3657   -5.7262   23.8995 H   0  0  0  0  0  0  0  0  0  0  0  0
    9.1090    1.6445   24.2791 H   0  0  0  0  0  0  0  0  0  0  0  0
   10.0281    2.1766   22.8918 H   0  0  0  0  0  0  0  0  0  0  0  0
   10.7949   -0.0994   22.4253 H   0  0  0  0  0  0  0  0  0  0  0  0
    6.7266    0.4930   16.8305 H   0  0  0  0  0  0  0  0  0  0  0  0
    8.2585   -1.5522   21.1129 H   0  0  0  0  0  0  0  0  0  0  0  0
  1  2  1  0  0  0  0
  1  3  2  0  0  0  0
  2  6  2  0  0  0  0
  3 13  1  0  0  0  0
  4  7  2  0  0  0  0
  4 14  1  0  0  0  0
  5  8  1  0  0  0  0
  5 14  2  0  0  0  0
  6 16  1  0  0  0  0
  7 17  1  0  0  0  0
  8 17  2  0  0  0  0
  9 11  2  0  0  0  0
  9 15  1  0  0  0  0
 10 18  2  0  0  0  0
 10 27  1  0  0  0  0
 11 31  1  0  0  0  0
 12 15  2  0  0  0  0
 12 31  1  0  0  0  0
 13 16  2  0  0  0  0
 13 18  1  0  0  0  0
 14 26  1  0  0  0  0
 15 25  1  0  0  0  0
 16 27  1  0  0  0  0
 17 28  1  0  0  0  0
 18 29  1  0  0  0  0
 19 26  1  1  0  0  0
 19 29  1  0  0  0  0
 19 30  2  0  0  0  0
 20 21  1  0  0  0  0
 20 22  1  0  0  0  0
 21 23  1  0  0  0  0
 22 24  1  0  0  0  0
 23 28  1  0  0  0  0
 24 28  1  0  0  0  0
 25 26  1  0  0  0  0
  1 32  1  0  0  0  0
  2 33  1  0  0  0  0
  3 34  1  0  0  0  0
  4 35  1  0  0  0  0
  5 36  1  0  0  0  0
  6 37  1  0  0  0  0
  7 38  1  0  0  0  0
  8 39  1  0  0  0  0
  9 40  1  0  0  0  0
 10 41  1  0  0  0  0
 11 42  1  0  0  0  0
 12 43  1  0  0  0  0
 20 44  1  0  0  0  0
 20 45  1  0  0  0  0
 21 46  1  0  0  0  0
 21 47  1  0  0  0  0
 22 48  1  0  0  0  0
 22 49  1  0  0  0  0
 23 50  1  0  0  0  0
 23 51  1  0  0  0  0
 24 52  1  0  0  0  0
 24 53  1  0  0  0  0
 25 54  1  0  0  0  0
 25 55  1  0  0  0  0
 26 56  1  0  0  0  0
 27 57  1  0  0  0  0
 29 58  1  0  0  0  0
M  END
> <clash_score>
0.6358218900354776

> <docking_score>
-6.872669219970703

> <overlap_score>
0.9228859543800354

$$$$
BENZO_289_2
  -OEChem-08222022193D

 61 65  0     1  0  0  0  0  0999 V2000
   14.1302    2.0067   23.3945 C   0  0  0  0  0  0  0  0  0  0  0  0
    4.2750    1.7050   20.8490 C   0  0  0  0  0  0  0  0  0  0  0  0
   13.2571    3.0838   23.5461 C   0  0  0  0  0  0  0  0  0  0  0  0
   13.6272    0.7090   23.3006 C   0  0  0  0  0  0  0  0  0  0  0  0
    3.9160    2.0630   19.5520 C   0  0  0  0  0  0  0  0  0  0  0  0
    5.4210    0.9600   21.0930 C   0  0  0  0  0  0  0  0  0  0  0  0
   11.8810    2.8633   23.6040 C   0  0  0  0  0  0  0  0  0  0  0  0
   12.2511    0.4885   23.3584 C   0  0  0  0  0  0  0  0  0  0  0  0
    9.0720   -1.1280   24.8640 C   0  0  0  0  0  0  0  0  0  0  0  0
    9.7200   -2.2600   22.8630 C   0  0  0  0  0  0  0  0  0  0  0  0
    4.6890    1.6810   18.4640 C   0  0  0  0  0  0  0  0  0  0  0  0
    8.9960   -2.3380   25.5320 C   0  0  0  0  0  0  0  0  0  0  0  0
    9.6730   -3.4710   23.5300 C   0  0  0  0  0  0  0  0  0  0  0  0
    7.6390   -0.2680   18.5410 C   0  0  0  0  0  0  0  0  0  0  0  0
    6.1790    0.5730   19.9990 C   0  0  0  0  0  0  0  0  0  0  0  0
   11.3780    1.5657   23.5101 C   0  0  0  0  0  0  0  0  0  0  0  0
    9.3350   -1.0880   23.5010 C   0  0  0  0  0  0  0  0  0  0  0  0
    5.8300    0.9190   18.6970 C   0  0  0  0  0  0  0  0  0  0  0  0
    9.3070   -3.5340   24.8780 C   0  0  0  0  0  0  0  0  0  0  0  0
    7.3170   -0.1610   19.8550 C   0  0  0  0  0  0  0  0  0  0  0  0
    9.0420    0.3700   21.5280 C   0  0  0  0  0  0  0  0  0  0  0  0
    7.3637   -6.1365   27.1885 C   0  0  0  0  0  0  0  0  0  0  0  0
    8.1962   -4.9739   27.7340 C   0  0  0  0  0  0  0  0  0  0  0  0
    7.1943   -6.0395   25.6706 C   0  0  0  0  0  0  0  0  0  0  0  0
    9.5197   -4.8493   26.9795 C   0  0  0  0  0  0  0  0  0  0  0  0
    8.5443   -5.8838   24.9636 C   0  0  0  0  0  0  0  0  0  0  0  0
    9.8870    1.3260   23.5730 C   0  0  0  0  0  0  0  0  0  0  0  0
    9.4560    0.1560   22.8130 C   0  0  2  0  0  0  0  0  0  0  0  0
    6.7580    0.3810   17.8350 N   0  0  0  0  0  0  0  0  0  0  0  0
    9.2563   -4.7385   25.5420 N   0  0  0  0  0  0  0  0  0  0  0  0
    8.1890   -0.7180   20.8700 N   0  0  0  0  0  0  0  0  0  0  0  0
    9.2690    1.4140   20.9380 O   0  0  0  0  0  0  0  0  0  0  0  0
   15.2016    2.1786   23.3481 H   0  0  0  0  0  0  0  0  0  0  0  0
    3.6453    2.0152   21.6831 H   0  0  0  0  0  0  0  0  0  0  0  0
   13.6485    4.0944   23.6181 H   0  0  0  0  0  0  0  0  0  0  0  0
   14.3067   -0.1298   23.1814 H   0  0  0  0  0  0  0  0  0  0  0  0
    3.0147    2.6520   19.3913 H   0  0  0  0  0  0  0  0  0  0  0  0
    5.6991    0.6995   22.1042 H   0  0  0  0  0  0  0  0  0  0  0  0
   11.2082    3.7086   23.7225 H   0  0  0  0  0  0  0  0  0  0  0  0
   11.8683   -0.5260   23.2846 H   0  0  0  0  0  0  0  0  0  0  0  0
    8.9214   -0.1986   25.4206 H   0  0  0  0  0  0  0  0  0  0  0  0
   10.0622   -2.2326   21.8251 H   0  0  0  0  0  0  0  0  0  0  0  0
    4.4051    1.9733   17.4488 H   0  0  0  0  0  0  0  0  0  0  0  0
    8.6882   -2.3542   26.5803 H   0  0  0  0  0  0  0  0  0  0  0  0
    9.9258   -4.3896   22.9914 H   0  0  0  0  0  0  0  0  0  0  0  0
    8.4825   -0.7940   18.0623 H   0  0  0  0  0  0  0  0  0  0  0  0
    7.8484   -7.0905   27.4464 H   0  0  0  0  0  0  0  0  0  0  0  0
    6.3761   -6.1442   27.6721 H   0  0  0  0  0  0  0  0  0  0  0  0
    7.6308   -4.0428   27.6404 H   0  0  0  0  0  0  0  0  0  0  0  0
    8.3917   -5.1316   28.7967 H   0  0  0  0  0  0  0  0  0  0  0  0
    6.6889   -6.9376   25.3006 H   0  0  0  0  0  0  0  0  0  0  0  0
    6.5516   -5.1860   25.4256 H   0  0  0  0  0  0  0  0  0  0  0  0
   10.0494   -3.9643   27.3413 H   0  0  0  0  0  0  0  0  0  0  0  0
   10.1432   -5.7258   27.1775 H   0  0  0  0  0  0  0  0  0  0  0  0
    9.1338   -6.7931   25.0863 H   0  0  0  0  0  0  0  0  0  0  0  0
    8.3657   -5.7262   23.8995 H   0  0  0  0  0  0  0  0  0  0  0  0
    9.5760    1.2490   24.6231 H   0  0  0  0  0  0  0  0  0  0  0  0
    9.3844    2.2230   23.1853 H   0  0  0  0  0  0  0  0  0  0  0  0
    8.0674    0.5009   23.2732 H   0  0  0  0  0  0  0  0  0  0  0  0
    6.7266    0.4930   16.8305 H   0  0  0  0  0  0  0  0  0  0  0  0
    8.2585   -1.5522   21.1129 H   0  0  0  0  0  0  0  0  0  0  0  0
  1  3  1  0  0  0  0
  1  4  2  0  0  0  0
  2  5  1  0  0  0  0
  2  6  2  0  0  0  0
  3  7  2  0  0  0  0
  4  8  1  0  0  0  0
  5 11  2  0  0  0  0
  6 15  1  0  0  0  0
  7 16  1  0  0  0  0
  8 16  2  0  0  0  0
  9 12  2  0  0  0  0
  9 17  1  0  0  0  0
 10 13  1  0  0  0  0
 10 17  2  0  0  0  0
 11 18  1  0  0  0  0
 12 19  1  0  0  0  0
 13 19  2  0  0  0  0
 14 20  2  0  0  0  0
 14 29  1  0  0  0  0
 15 18  2  0  0  0  0
 15 20  1  0  0  0  0
 16 27  1  0  0  0  0
 17 28  1  0  0  0  0
 18 29  1  0  0  0  0
 19 30  1  0  0  0  0
 20 31  1  0  0  0  0
 21 28  1  6  0  0  0
 21 31  1  0  0  0  0
 21 32  2  0  0  0  0
 22 23  1  0  0  0  0
 22 24  1  0  0  0  0
 23 25  1  0  0  0  0
 24 26  1  0  0  0  0
 25 30  1  0  0  0  0
 26 30  1  0  0  0  0
 27 28  1  0  0  0  0
  1 33  1  0  0  0  0
  2 34  1  0  0  0  0
  3 35  1  0  0  0  0
  4 36  1  0  0  0  0
  5 37  1  0  0  0  0
  6 38  1  0  0  0  0
  7 39  1  0  0  0  0
  8 40  1  0  0  0  0
  9 41  1  0  0  0  0
 10 42  1  0  0  0  0
 11 43  1  0  0  0  0
 12 44  1  0  0  0  0
 13 45  1  0  0  0  0
 14 46  1  0  0  0  0
 22 47  1  0  0  0  0
 22 48  1  0  0  0  0
 23 49  1  0  0  0  0
 23 50  1  0  0  0  0
 24 51  1  0  0  0  0
 24 52  1  0  0  0  0
 25 53  1  0  0  0  0
 25 54  1  0  0  0  0
 26 55  1  0  0  0  0
 26 56  1  0  0  0  0
 27 57  1  0  0  0  0
 27 58  1  0  0  0  0
 28 59  1  0  0  0  0
 29 60  1  0  0  0  0
 31 61  1  0  0  0  0
M  END
> <clash_score>
0

> <docking_score>
-8.446098327636719

> <overlap_score>
1.0136134624481201

$$$$
BENZO_287_2
  -OEChem-08222022193D

 56 59  0     1  0  0  0  0  0999 V2000
    4.2750    1.7050   20.8490 C   0  0  0  0  0  0  0  0  0  0  0  0
    3.9160    2.0630   19.5520 C   0  0  0  0  0  0  0  0  0  0  0  0
    5.4210    0.9600   21.0930 C   0  0  0  0  0  0  0  0  0  0  0  0
    9.0720   -1.1280   24.8640 C   0  0  0  0  0  0  0  0  0  0  0  0
    9.7200   -2.2600   22.8630 C   0  0  0  0  0  0  0  0  0  0  0  0
    4.6890    1.6810   18.4640 C   0  0  0  0  0  0  0  0  0  0  0  0
    8.9960   -2.3380   25.5320 C   0  0  0  0  0  0  0  0  0  0  0  0
    9.6730   -3.4710   23.5300 C   0  0  0  0  0  0  0  0  0  0  0  0
   10.7934    3.1849   21.9605 C   0  0  0  0  0  0  0  0  0  0  0  0
   12.3221    1.9589   22.9580 C   0  0  0  0  0  0  0  0  0  0  0  0
    7.6390   -0.2680   18.5410 C   0  0  0  0  0  0  0  0  0  0  0  0
    6.1790    0.5730   19.9990 C   0  0  0  0  0  0  0  0  0  0  0  0
    9.3350   -1.0880   23.5010 C   0  0  0  0  0  0  0  0  0  0  0  0
   10.9611    2.1180   22.8635 C   0  0  0  0  0  0  0  0  0  0  0  0
    5.8300    0.9190   18.6970 C   0  0  0  0  0  0  0  0  0  0  0  0
    9.3070   -3.5340   24.8780 C   0  0  0  0  0  0  0  0  0  0  0  0
    7.3170   -0.1610   19.8550 C   0  0  0  0  0  0  0  0  0  0  0  0
    8.4228   -5.1089   26.6141 C   0  0  0  0  0  0  0  0  0  0  0  0
    9.0420    0.3700   21.5280 C   0  0  0  0  0  0  0  0  0  0  0  0
    8.4173   -7.5520   25.9532 C   0  0  0  0  0  0  0  0  0  0  0  0
   14.2722    3.1281   21.9050 C   0  0  0  0  0  0  0  0  0  0  0  0
    9.8870    1.3260   23.5730 C   0  0  0  0  0  0  0  0  0  0  0  0
    8.6900   -6.5411   27.0525 C   0  0  0  0  0  0  0  0  0  0  0  0
    9.4560    0.1560   22.8130 C   0  0  2  0  0  0  0  0  0  0  0  0
   11.9550    3.6695   21.5134 N   0  0  0  0  0  0  0  0  0  0  0  0
    6.7580    0.3810   17.8350 N   0  0  0  0  0  0  0  0  0  0  0  0
   12.8657    2.9036   22.1381 N   0  0  0  0  0  0  0  0  0  0  0  0
    9.2546   -4.7423   25.5437 N   0  0  0  0  0  0  0  0  0  0  0  0
    8.1890   -0.7180   20.8700 N   0  0  0  0  0  0  0  0  0  0  0  0
    7.5768   -4.4085   27.1603 O   0  0  0  0  0  0  0  0  0  0  0  0
    9.2690    1.4140   20.9380 O   0  0  0  0  0  0  0  0  0  0  0  0
    3.6453    2.0152   21.6831 H   0  0  0  0  0  0  0  0  0  0  0  0
    3.0147    2.6520   19.3913 H   0  0  0  0  0  0  0  0  0  0  0  0
    5.6991    0.6995   22.1042 H   0  0  0  0  0  0  0  0  0  0  0  0
    8.9202   -0.1986   25.4206 H   0  0  0  0  0  0  0  0  0  0  0  0
   10.0631   -2.2319   21.8252 H   0  0  0  0  0  0  0  0  0  0  0  0
    4.4051    1.9733   17.4488 H   0  0  0  0  0  0  0  0  0  0  0  0
    8.6898   -2.3534   26.5810 H   0  0  0  0  0  0  0  0  0  0  0  0
    9.9254   -4.3899   22.9914 H   0  0  0  0  0  0  0  0  0  0  0  0
    9.8743    3.6318   21.6087 H   0  0  0  0  0  0  0  0  0  0  0  0
   12.9348    1.2718   23.5258 H   0  0  0  0  0  0  0  0  0  0  0  0
    8.4825   -0.7940   18.0623 H   0  0  0  0  0  0  0  0  0  0  0  0
    7.3765   -7.4970   25.6177 H   0  0  0  0  0  0  0  0  0  0  0  0
    8.6071   -8.5677   26.3139 H   0  0  0  0  0  0  0  0  0  0  0  0
    9.0598   -7.3717   25.0851 H   0  0  0  0  0  0  0  0  0  0  0  0
   14.5772    2.5070   21.0587 H   0  0  0  0  0  0  0  0  0  0  0  0
   14.4402    4.1857   21.6833 H   0  0  0  0  0  0  0  0  0  0  0  0
   14.8350    2.8566   22.8025 H   0  0  0  0  0  0  0  0  0  0  0  0
   10.2455    1.0419   24.5710 H   0  0  0  0  0  0  0  0  0  0  0  0
    9.0345    1.9965   23.7496 H   0  0  0  0  0  0  0  0  0  0  0  0
    9.7367   -6.6182   27.3685 H   0  0  0  0  0  0  0  0  0  0  0  0
    8.0565   -6.7633   27.9190 H   0  0  0  0  0  0  0  0  0  0  0  0
   10.7927   -0.1029   22.4279 H   0  0  0  0  0  0  0  0  0  0  0  0
    6.7266    0.4930   16.8305 H   0  0  0  0  0  0  0  0  0  0  0  0
    9.9034   -5.4689   25.2194 H   0  0  0  0  0  0  0  0  0  0  0  0
    8.2408   -1.5631   21.0968 H   0  0  0  0  0  0  0  0  0  0  0  0
  1  2  1  0  0  0  0
  1  3  2  0  0  0  0
  2  6  2  0  0  0  0
  3 12  1  0  0  0  0
  4  7  2  0  0  0  0
  4 13  1  0  0  0  0
  5  8  1  0  0  0  0
  5 13  2  0  0  0  0
  6 15  1  0  0  0  0
  7 16  1  0  0  0  0
  8 16  2  0  0  0  0
  9 14  1  0  0  0  0
  9 25  2  0  0  0  0
 10 14  2  0  0  0  0
 10 27  1  0  0  0  0
 11 17  2  0  0  0  0
 11 26  1  0  0  0  0
 12 15  2  0  0  0  0
 12 17  1  0  0  0  0
 13 24  1  0  0  0  0
 14 22  1  0  0  0  0
 15 26  1  0  0  0  0
 16 28  1  0  0  0  0
 17 29  1  0  0  0  0
 18 23  1  0  0  0  0
 18 28  1  0  0  0  0
 18 30  2  0  0  0  0
 19 24  1  0  0  0  0
 19 29  1  0  0  0  0
 19 31  2  0  0  0  0
 20 23  1  0  0  0  0
 21 27  1  0  0  0  0
 22 24  1  6  0  0  0
 25 27  1  0  0  0  0
  1 32  1  0  0  0  0
  2 33  1  0  0  0  0
  3 34  1  0  0  0  0
  4 35  1  0  0  0  0
  5 36  1  0  0  0  0
  6 37  1  0  0  0  0
  7 38  1  0  0  0  0
  8 39  1  0  0  0  0
  9 40  1  0  0  0  0
 10 41  1  0  0  0  0
 11 42  1  0  0  0  0
 20 43  1  0  0  0  0
 20 44  1  0  0  0  0
 20 45  1  0  0  0  0
 21 46  1  0  0  0  0
 21 47  1  0  0  0  0
 21 48  1  0  0  0  0
 22 49  1  0  0  0  0
 22 50  1  0  0  0  0
 23 51  1  0  0  0  0
 23 52  1  0  0  0  0
 24 53  1  0  0  0  0
 26 54  1  0  0  0  0
 28 55  1  0  0  0  0
 29 56  1  0  0  0  0
M  END
> <clash_score>
0.6426270629863619

> <docking_score>
-5.92065954208374

> <overlap_score>
0.9572394490242004

$$$$
BENZO_288_2
  -OEChem-08222022193D

 58 62  0     1  0  0  0  0  0999 V2000
    4.2750    1.7050   20.8490 C   0  0  0  0  0  0  0  0  0  0  0  0
    3.9160    2.0630   19.5520 C   0  0  0  0  0  0  0  0  0  0  0  0
    5.4210    0.9600   21.0930 C   0  0  0  0  0  0  0  0  0  0  0  0
    9.0720   -1.1280   24.8640 C   0  0  0  0  0  0  0  0  0  0  0  0
    9.7200   -2.2600   22.8630 C   0  0  0  0  0  0  0  0  0  0  0  0
    4.6890    1.6810   18.4640 C   0  0  0  0  0  0  0  0  0  0  0  0
    8.9960   -2.3380   25.5320 C   0  0  0  0  0  0  0  0  0  0  0  0
    9.6730   -3.4710   23.5300 C   0  0  0  0  0  0  0  0  0  0  0  0
   12.3482    0.5241   23.4467 C   0  0  0  0  0  0  0  0  0  0  0  0
    7.6390   -0.2680   18.5410 C   0  0  0  0  0  0  0  0  0  0  0  0
   13.6337    1.0166   23.3986 C   0  0  0  0  0  0  0  0  0  0  0  0
   11.9591    2.8148   23.5083 C   0  0  0  0  0  0  0  0  0  0  0  0
    6.1790    0.5730   19.9990 C   0  0  0  0  0  0  0  0  0  0  0  0
    9.3350   -1.0880   23.5010 C   0  0  0  0  0  0  0  0  0  0  0  0
   11.3780    1.5657   23.5101 C   0  0  0  0  0  0  0  0  0  0  0  0
    5.8300    0.9190   18.6970 C   0  0  0  0  0  0  0  0  0  0  0  0
    9.3070   -3.5340   24.8780 C   0  0  0  0  0  0  0  0  0  0  0  0
    7.3170   -0.1610   19.8550 C   0  0  0  0  0  0  0  0  0  0  0  0
    9.0420    0.3700   21.5280 C   0  0  0  0  0  0  0  0  0  0  0  0
    7.3637   -6.1365   27.1885 C   0  0  0  0  0  0  0  0  0  0  0  0
    8.1962   -4.9739   27.7340 C   0  0  0  0  0  0  0  0  0  0  0  0
    7.1943   -6.0395   25.6706 C   0  0  0  0  0  0  0  0  0  0  0  0
    9.5197   -4.8493   26.9795 C   0  0  0  0  0  0  0  0  0  0  0  0
    8.5443   -5.8838   24.9636 C   0  0  0  0  0  0  0  0  0  0  0  0
    9.8870    1.3260   23.5730 C   0  0  0  0  0  0  0  0  0  0  0  0
    9.4560    0.1560   22.8130 C   0  0  2  0  0  0  0  0  0  0  0  0
    6.7580    0.3810   17.8350 N   0  0  0  0  0  0  0  0  0  0  0  0
    9.2563   -4.7385   25.5420 N   0  0  0  0  0  0  0  0  0  0  0  0
    8.1890   -0.7180   20.8700 N   0  0  0  0  0  0  0  0  0  0  0  0
    9.2690    1.4140   20.9380 O   0  0  0  0  0  0  0  0  0  0  0  0
   13.6675    2.7284   23.4300 S   0  0  0  0  0  0  0  0  0  0  0  0
    3.6453    2.0152   21.6831 H   0  0  0  0  0  0  0  0  0  0  0  0
    3.0147    2.6520   19.3913 H   0  0  0  0  0  0  0  0  0  0  0  0
    5.6991    0.6995   22.1042 H   0  0  0  0  0  0  0  0  0  0  0  0
    8.9214   -0.1986   25.4206 H   0  0  0  0  0  0  0  0  0  0  0  0
   10.0622   -2.2326   21.8251 H   0  0  0  0  0  0  0  0  0  0  0  0
    4.4051    1.9733   17.4488 H   0  0  0  0  0  0  0  0  0  0  0  0
    8.6882   -2.3542   26.5803 H   0  0  0  0  0  0  0  0  0  0  0  0
    9.9258   -4.3896   22.9914 H   0  0  0  0  0  0  0  0  0  0  0  0
   12.1191   -0.5341   23.4370 H   0  0  0  0  0  0  0  0  0  0  0  0
    8.4825   -0.7940   18.0623 H   0  0  0  0  0  0  0  0  0  0  0  0
   14.5547    0.4533   23.3471 H   0  0  0  0  0  0  0  0  0  0  0  0
   11.4660    3.7761   23.5503 H   0  0  0  0  0  0  0  0  0  0  0  0
    7.8484   -7.0905   27.4464 H   0  0  0  0  0  0  0  0  0  0  0  0
    6.3761   -6.1442   27.6721 H   0  0  0  0  0  0  0  0  0  0  0  0
    7.6308   -4.0428   27.6404 H   0  0  0  0  0  0  0  0  0  0  0  0
    8.3917   -5.1316   28.7967 H   0  0  0  0  0  0  0  0  0  0  0  0
    6.6889   -6.9376   25.3006 H   0  0  0  0  0  0  0  0  0  0  0  0
    6.5516   -5.1860   25.4256 H   0  0  0  0  0  0  0  0  0  0  0  0
   10.0494   -3.9643   27.3413 H   0  0  0  0  0  0  0  0  0  0  0  0
   10.1432   -5.7258   27.1775 H   0  0  0  0  0  0  0  0  0  0  0  0
    9.1338   -6.7931   25.0863 H   0  0  0  0  0  0  0  0  0  0  0  0
    8.3657   -5.7262   23.8995 H   0  0  0  0  0  0  0  0  0  0  0  0
    9.5760    1.2490   24.6231 H   0  0  0  0  0  0  0  0  0  0  0  0
    9.3844    2.2230   23.1853 H   0  0  0  0  0  0  0  0  0  0  0  0
    8.0674    0.5009   23.2732 H   0  0  0  0  0  0  0  0  0  0  0  0
    6.7266    0.4930   16.8305 H   0  0  0  0  0  0  0  0  0  0  0  0
    8.2585   -1.5522   21.1129 H   0  0  0  0  0  0  0  0  0  0  0  0
  1  2  1  0  0  0  0
  1  3  2  0  0  0  0
  2  6  2  0  0  0  0
  3 13  1  0  0  0  0
  4  7  2  0  0  0  0
  4 14  1  0  0  0  0
  5  8  1  0  0  0  0
  5 14  2  0  0  0  0
  6 16  1  0  0  0  0
  7 17  1  0  0  0  0
  8 17  2  0  0  0  0
  9 11  2  0  0  0  0
  9 15  1  0  0  0  0
 10 18  2  0  0  0  0
 10 27  1  0  0  0  0
 11 31  1  0  0  0  0
 12 15  2  0  0  0  0
 12 31  1  0  0  0  0
 13 16  2  0  0  0  0
 13 18  1  0  0  0  0
 14 26  1  0  0  0  0
 15 25  1  0  0  0  0
 16 27  1  0  0  0  0
 17 28  1  0  0  0  0
 18 29  1  0  0  0  0
 19 26  1  6  0  0  0
 19 29  1  0  0  0  0
 19 30  2  0  0  0  0
 20 21  1  0  0  0  0
 20 22  1  0  0  0  0
 21 23  1  0  0  0  0
 22 24  1  0  0  0  0
 23 28  1  0  0  0  0
 24 28  1  0  0  0  0
 25 26  1  0  0  0  0
  1 32  1  0  0  0  0
  2 33  1  0  0  0  0
  3 34  1  0  0  0  0
  4 35  1  0  0  0  0
  5 36  1  0  0  0  0
  6 37  1  0  0  0  0
  7 38  1  0  0  0  0
  8 39  1  0  0  0  0
  9 40  1  0  0  0  0
 10 41  1  0  0  0  0
 11 42  1  0  0  0  0
 12 43  1  0  0  0  0
 20 44  1  0  0  0  0
 20 45  1  0  0  0  0
 21 46  1  0  0  0  0
 21 47  1  0  0  0  0
 22 48  1  0  0  0  0
 22 49  1  0  0  0  0
 23 50  1  0  0  0  0
 23 51  1  0  0  0  0
 24 52  1  0  0  0  0
 24 53  1  0  0  0  0
 25 54  1  0  0  0  0
 25 55  1  0  0  0  0
 26 56  1  0  0  0  0
 27 57  1  0  0  0  0
 29 58  1  0  0  0  0
M  END
> <clash_score>
0

> <docking_score>
-8.916631698608398

> <overlap_score>
0.9986698031425476

$$$$
BENZO_287_1
  -OEChem-08222022193D

 56 59  0     1  0  0  0  0  0999 V2000
    4.2750    1.7050   20.8490 C   0  0  0  0  0  0  0  0  0  0  0  0
    3.9160    2.0630   19.5520 C   0  0  0  0  0  0  0  0  0  0  0  0
    5.4210    0.9600   21.0930 C   0  0  0  0  0  0  0  0  0  0  0  0
    9.0720   -1.1280   24.8640 C   0  0  0  0  0  0  0  0  0  0  0  0
    9.7200   -2.2600   22.8630 C   0  0  0  0  0  0  0  0  0  0  0  0
    4.6890    1.6810   18.4640 C   0  0  0  0  0  0  0  0  0  0  0  0
    8.9960   -2.3380   25.5320 C   0  0  0  0  0  0  0  0  0  0  0  0
    9.6730   -3.4710   23.5300 C   0  0  0  0  0  0  0  0  0  0  0  0
   12.0720    2.7762   23.5689 C   0  0  0  0  0  0  0  0  0  0  0  0
   12.3651    0.6087   23.3429 C   0  0  0  0  0  0  0  0  0  0  0  0
    7.6390   -0.2680   18.5410 C   0  0  0  0  0  0  0  0  0  0  0  0
    6.1790    0.5730   19.9990 C   0  0  0  0  0  0  0  0  0  0  0  0
    9.3350   -1.0880   23.5010 C   0  0  0  0  0  0  0  0  0  0  0  0
   11.3794    1.5528   23.4964 C   0  0  0  0  0  0  0  0  0  0  0  0
    5.8300    0.9190   18.6970 C   0  0  0  0  0  0  0  0  0  0  0  0
    9.3070   -3.5340   24.8780 C   0  0  0  0  0  0  0  0  0  0  0  0
    7.3170   -0.1610   19.8550 C   0  0  0  0  0  0  0  0  0  0  0  0
    8.4228   -5.1089   26.6141 C   0  0  0  0  0  0  0  0  0  0  0  0
    9.0420    0.3700   21.5280 C   0  0  0  0  0  0  0  0  0  0  0  0
    8.4173   -7.5520   25.9532 C   0  0  0  0  0  0  0  0  0  0  0  0
   14.8634    0.7326   23.1949 C   0  0  0  0  0  0  0  0  0  0  0  0
    9.8870    1.3260   23.5730 C   0  0  0  0  0  0  0  0  0  0  0  0
    8.6900   -6.5411   27.0525 C   0  0  0  0  0  0  0  0  0  0  0  0
    9.4560    0.1560   22.8130 C   0  0  1  0  0  0  0  0  0  0  0  0
   13.3955    2.6261   23.4698 N   0  0  0  0  0  0  0  0  0  0  0  0
    6.7580    0.3810   17.8350 N   0  0  0  0  0  0  0  0  0  0  0  0
   13.5424    1.2972   23.3335 N   0  0  0  0  0  0  0  0  0  0  0  0
    9.2546   -4.7423   25.5437 N   0  0  0  0  0  0  0  0  0  0  0  0
    8.1890   -0.7180   20.8700 N   0  0  0  0  0  0  0  0  0  0  0  0
    7.5768   -4.4085   27.1603 O   0  0  0  0  0  0  0  0  0  0  0  0
    9.2690    1.4140   20.9380 O   0  0  0  0  0  0  0  0  0  0  0  0
    3.6453    2.0152   21.6831 H   0  0  0  0  0  0  0  0  0  0  0  0
    3.0147    2.6520   19.3913 H   0  0  0  0  0  0  0  0  0  0  0  0
    5.6991    0.6995   22.1042 H   0  0  0  0  0  0  0  0  0  0  0  0
    8.9202   -0.1986   25.4206 H   0  0  0  0  0  0  0  0  0  0  0  0
   10.0631   -2.2319   21.8252 H   0  0  0  0  0  0  0  0  0  0  0  0
    4.4051    1.9733   17.4488 H   0  0  0  0  0  0  0  0  0  0  0  0
    8.6898   -2.3534   26.5810 H   0  0  0  0  0  0  0  0  0  0  0  0
    9.9254   -4.3899   22.9914 H   0  0  0  0  0  0  0  0  0  0  0  0
   11.6698    3.7720   23.6907 H   0  0  0  0  0  0  0  0  0  0  0  0
   12.3300   -0.4677   23.2433 H   0  0  0  0  0  0  0  0  0  0  0  0
    8.4825   -0.7940   18.0623 H   0  0  0  0  0  0  0  0  0  0  0  0
    7.3765   -7.4970   25.6177 H   0  0  0  0  0  0  0  0  0  0  0  0
    8.6071   -8.5677   26.3139 H   0  0  0  0  0  0  0  0  0  0  0  0
    9.0598   -7.3717   25.0851 H   0  0  0  0  0  0  0  0  0  0  0  0
   15.1060    0.6995   22.1295 H   0  0  0  0  0  0  0  0  0  0  0  0
   15.5839    1.3558   23.7319 H   0  0  0  0  0  0  0  0  0  0  0  0
   14.8726   -0.2742   23.6217 H   0  0  0  0  0  0  0  0  0  0  0  0
    9.5854    1.2495   24.6258 H   0  0  0  0  0  0  0  0  0  0  0  0
    9.3886    2.2282   23.1920 H   0  0  0  0  0  0  0  0  0  0  0  0
    9.7367   -6.6182   27.3685 H   0  0  0  0  0  0  0  0  0  0  0  0
    8.0565   -6.7633   27.9190 H   0  0  0  0  0  0  0  0  0  0  0  0
    8.0686    0.4964   23.2745 H   0  0  0  0  0  0  0  0  0  0  0  0
    6.7266    0.4930   16.8305 H   0  0  0  0  0  0  0  0  0  0  0  0
    9.9034   -5.4689   25.2194 H   0  0  0  0  0  0  0  0  0  0  0  0
    8.2408   -1.5631   21.0968 H   0  0  0  0  0  0  0  0  0  0  0  0
  1  2  1  0  0  0  0
  1  3  2  0  0  0  0
  2  6  2  0  0  0  0
  3 12  1  0  0  0  0
  4  7  2  0  0  0  0
  4 13  1  0  0  0  0
  5  8  1  0  0  0  0
  5 13  2  0  0  0  0
  6 15  1  0  0  0  0
  7 16  1  0  0  0  0
  8 16  2  0  0  0  0
  9 14  1  0  0  0  0
  9 25  2  0  0  0  0
 10 14  2  0  0  0  0
 10 27  1  0  0  0  0
 11 17  2  0  0  0  0
 11 26  1  0  0  0  0
 12 15  2  0  0  0  0
 12 17  1  0  0  0  0
 13 24  1  0  0  0  0
 14 22  1  0  0  0  0
 15 26  1  0  0  0  0
 16 28  1  0  0  0  0
 17 29  1  0  0  0  0
 18 23  1  0  0  0  0
 18 28  1  0  0  0  0
 18 30  2  0  0  0  0
 19 24  1  0  0  0  0
 19 29  1  0  0  0  0
 19 31  2  0  0  0  0
 20 23  1  0  0  0  0
 21 27  1  0  0  0  0
 22 24  1  1  0  0  0
 25 27  1  0  0  0  0
  1 32  1  0  0  0  0
  2 33  1  0  0  0  0
  3 34  1  0  0  0  0
  4 35  1  0  0  0  0
  5 36  1  0  0  0  0
  6 37  1  0  0  0  0
  7 38  1  0  0  0  0
  8 39  1  0  0  0  0
  9 40  1  0  0  0  0
 10 41  1  0  0  0  0
 11 42  1  0  0  0  0
 20 43  1  0  0  0  0
 20 44  1  0  0  0  0
 20 45  1  0  0  0  0
 21 46  1  0  0  0  0
 21 47  1  0  0  0  0
 21 48  1  0  0  0  0
 22 49  1  0  0  0  0
 22 50  1  0  0  0  0
 23 51  1  0  0  0  0
 23 52  1  0  0  0  0
 24 53  1  0  0  0  0
 26 54  1  0  0  0  0
 28 55  1  0  0  0  0
 29 56  1  0  0  0  0
M  END
> <clash_score>
0.6426270629863619

> <docking_score>
-7.769493103027344

> <overlap_score>
1.0034990310668945

$$$$
BENZO_293_1
  -OEChem-08222022193D

 49 52  0     1  0  0  0  0  0999 V2000
   14.1341    1.9700   23.3555 C   0  0  0  0  0  0  0  0  0  0  0  0
    4.2750    1.7050   20.8490 C   0  0  0  0  0  0  0  0  0  0  0  0
   13.2717    3.0548   23.5141 C   0  0  0  0  0  0  0  0  0  0  0  0
   13.6192    0.6767   23.2672 C   0  0  0  0  0  0  0  0  0  0  0  0
    3.9160    2.0630   19.5520 C   0  0  0  0  0  0  0  0  0  0  0  0
    5.4210    0.9600   21.0930 C   0  0  0  0  0  0  0  0  0  0  0  0
   11.8943    2.8462   23.5846 C   0  0  0  0  0  0  0  0  0  0  0  0
   12.2418    0.4681   23.3377 C   0  0  0  0  0  0  0  0  0  0  0  0
    8.9960   -2.3380   25.5320 C   0  0  0  0  0  0  0  0  0  0  0  0
    9.6730   -3.4710   23.5300 C   0  0  0  0  0  0  0  0  0  0  0  0
    9.0720   -1.1280   24.8640 C   0  0  0  0  0  0  0  0  0  0  0  0
    9.7200   -2.2600   22.8630 C   0  0  0  0  0  0  0  0  0  0  0  0
    4.6890    1.6810   18.4640 C   0  0  0  0  0  0  0  0  0  0  0  0
    7.6390   -0.2680   18.5410 C   0  0  0  0  0  0  0  0  0  0  0  0
    6.1790    0.5730   19.9990 C   0  0  0  0  0  0  0  0  0  0  0  0
    9.3070   -3.5340   24.8780 C   0  0  0  0  0  0  0  0  0  0  0  0
   11.3794    1.5528   23.4964 C   0  0  0  0  0  0  0  0  0  0  0  0
    9.3350   -1.0880   23.5010 C   0  0  0  0  0  0  0  0  0  0  0  0
    5.8300    0.9190   18.6970 C   0  0  0  0  0  0  0  0  0  0  0  0
    7.3170   -0.1610   19.8550 C   0  0  0  0  0  0  0  0  0  0  0  0
    9.0420    0.3700   21.5280 C   0  0  0  0  0  0  0  0  0  0  0  0
    9.2507   -4.8268   25.5895 C   0  0  0  0  0  0  0  0  0  0  0  0
    9.8870    1.3260   23.5730 C   0  0  0  0  0  0  0  0  0  0  0  0
    9.4560    0.1560   22.8130 C   0  0  1  0  0  0  0  0  0  0  0  0
    6.7580    0.3810   17.8350 N   0  0  0  0  0  0  0  0  0  0  0  0
    8.1890   -0.7180   20.8700 N   0  0  0  0  0  0  0  0  0  0  0  0
    9.2690    1.4140   20.9380 O   0  0  0  0  0  0  0  0  0  0  0  0
   15.2065    2.1328   23.2992 H   0  0  0  0  0  0  0  0  0  0  0  0
    3.6453    2.0152   21.6831 H   0  0  0  0  0  0  0  0  0  0  0  0
   13.6724    4.0620   23.5817 H   0  0  0  0  0  0  0  0  0  0  0  0
   14.2903   -0.1680   23.1426 H   0  0  0  0  0  0  0  0  0  0  0  0
    3.0147    2.6520   19.3913 H   0  0  0  0  0  0  0  0  0  0  0  0
    5.6991    0.6995   22.1042 H   0  0  0  0  0  0  0  0  0  0  0  0
   11.2299    3.6973   23.7085 H   0  0  0  0  0  0  0  0  0  0  0  0
   11.8496   -0.5431   23.2682 H   0  0  0  0  0  0  0  0  0  0  0  0
    8.6904   -2.3557   26.5808 H   0  0  0  0  0  0  0  0  0  0  0  0
    9.9249   -4.3911   22.9935 H   0  0  0  0  0  0  0  0  0  0  0  0
    8.9209   -0.1987   25.4207 H   0  0  0  0  0  0  0  0  0  0  0  0
   10.0640   -2.2315   21.8255 H   0  0  0  0  0  0  0  0  0  0  0  0
    4.4051    1.9733   17.4488 H   0  0  0  0  0  0  0  0  0  0  0  0
    8.4825   -0.7940   18.0623 H   0  0  0  0  0  0  0  0  0  0  0  0
    8.2506   -5.2684   25.5009 H   0  0  0  0  0  0  0  0  0  0  0  0
    9.9820   -5.5375   25.1832 H   0  0  0  0  0  0  0  0  0  0  0  0
    9.4843   -4.7055   26.6554 H   0  0  0  0  0  0  0  0  0  0  0  0
    9.5854    1.2495   24.6258 H   0  0  0  0  0  0  0  0  0  0  0  0
    9.3886    2.2282   23.1920 H   0  0  0  0  0  0  0  0  0  0  0  0
    8.0686    0.4964   23.2745 H   0  0  0  0  0  0  0  0  0  0  0  0
    6.7266    0.4930   16.8305 H   0  0  0  0  0  0  0  0  0  0  0  0
    8.2408   -1.5631   21.0968 H   0  0  0  0  0  0  0  0  0  0  0  0
  1  3  1  0  0  0  0
  1  4  2  0  0  0  0
  2  5  1  0  0  0  0
  2  6  2  0  0  0  0
  3  7  2  0  0  0  0
  4  8  1  0  0  0  0
  5 13  2  0  0  0  0
  6 15  1  0  0  0  0
  7 17  1  0  0  0  0
  8 17  2  0  0  0  0
  9 11  2  0  0  0  0
  9 16  1  0  0  0  0
 10 12  1  0  0  0  0
 10 16  2  0  0  0  0
 11 18  1  0  0  0  0
 12 18  2  0  0  0  0
 13 19  1  0  0  0  0
 14 20  2  0  0  0  0
 14 25  1  0  0  0  0
 15 19  2  0  0  0  0
 15 20  1  0  0  0  0
 16 22  1  0  0  0  0
 17 23  1  0  0  0  0
 18 24  1  0  0  0  0
 19 25  1  0  0  0  0
 20 26  1  0  0  0  0
 21 24  1  0  0  0  0
 21 26  1  0  0  0  0
 21 27  2  0  0  0  0
 23 24  1  1  0  0  0
  1 28  1  0  0  0  0
  2 29  1  0  0  0  0
  3 30  1  0  0  0  0
  4 31  1  0  0  0  0
  5 32  1  0  0  0  0
  6 33  1  0  0  0  0
  7 34  1  0  0  0  0
  8 35  1  0  0  0  0
  9 36  1  0  0  0  0
 10 37  1  0  0  0  0
 11 38  1  0  0  0  0
 12 39  1  0  0  0  0
 13 40  1  0  0  0  0
 14 41  1  0  0  0  0
 22 42  1  0  0  0  0
 22 43  1  0  0  0  0
 22 44  1  0  0  0  0
 23 45  1  0  0  0  0
 23 46  1  0  0  0  0
 24 47  1  0  0  0  0
 25 48  1  0  0  0  0
 26 49  1  0  0  0  0
M  END
> <clash_score>
0

> <docking_score>
-8.746807098388672

> <overlap_score>
0.9608623385429382

$$$$
BENZO_292_1
  -OEChem-08222022193D

 46 49  0     1  0  0  0  0  0999 V2000
    4.2750    1.7050   20.8490 C   0  0  0  0  0  0  0  0  0  0  0  0
    3.9160    2.0630   19.5520 C   0  0  0  0  0  0  0  0  0  0  0  0
    5.4210    0.9600   21.0930 C   0  0  0  0  0  0  0  0  0  0  0  0
    8.9960   -2.3380   25.5320 C   0  0  0  0  0  0  0  0  0  0  0  0
    9.6730   -3.4710   23.5300 C   0  0  0  0  0  0  0  0  0  0  0  0
    9.0720   -1.1280   24.8640 C   0  0  0  0  0  0  0  0  0  0  0  0
    9.7200   -2.2600   22.8630 C   0  0  0  0  0  0  0  0  0  0  0  0
    4.6890    1.6810   18.4640 C   0  0  0  0  0  0  0  0  0  0  0  0
   12.3398    0.5029   23.4216 C   0  0  0  0  0  0  0  0  0  0  0  0
    7.6390   -0.2680   18.5410 C   0  0  0  0  0  0  0  0  0  0  0  0
   13.6291    0.9844   23.3622 C   0  0  0  0  0  0  0  0  0  0  0  0
   11.9713    2.7968   23.4917 C   0  0  0  0  0  0  0  0  0  0  0  0
    6.1790    0.5730   19.9990 C   0  0  0  0  0  0  0  0  0  0  0  0
    9.3070   -3.5340   24.8780 C   0  0  0  0  0  0  0  0  0  0  0  0
    9.3350   -1.0880   23.5010 C   0  0  0  0  0  0  0  0  0  0  0  0
   11.3794    1.5528   23.4964 C   0  0  0  0  0  0  0  0  0  0  0  0
    5.8300    0.9190   18.6970 C   0  0  0  0  0  0  0  0  0  0  0  0
    7.3170   -0.1610   19.8550 C   0  0  0  0  0  0  0  0  0  0  0  0
    9.0420    0.3700   21.5280 C   0  0  0  0  0  0  0  0  0  0  0  0
    9.2507   -4.8268   25.5895 C   0  0  0  0  0  0  0  0  0  0  0  0
    9.8870    1.3260   23.5730 C   0  0  0  0  0  0  0  0  0  0  0  0
    9.4560    0.1560   22.8130 C   0  0  1  0  0  0  0  0  0  0  0  0
    6.7580    0.3810   17.8350 N   0  0  0  0  0  0  0  0  0  0  0  0
    8.1890   -0.7180   20.8700 N   0  0  0  0  0  0  0  0  0  0  0  0
    9.2690    1.4140   20.9380 O   0  0  0  0  0  0  0  0  0  0  0  0
   13.6781    2.6957   23.3969 S   0  0  0  0  0  0  0  0  0  0  0  0
    3.6453    2.0152   21.6831 H   0  0  0  0  0  0  0  0  0  0  0  0
    3.0147    2.6520   19.3913 H   0  0  0  0  0  0  0  0  0  0  0  0
    5.6991    0.6995   22.1042 H   0  0  0  0  0  0  0  0  0  0  0  0
    8.6904   -2.3557   26.5808 H   0  0  0  0  0  0  0  0  0  0  0  0
    9.9249   -4.3911   22.9935 H   0  0  0  0  0  0  0  0  0  0  0  0
    8.9209   -0.1987   25.4207 H   0  0  0  0  0  0  0  0  0  0  0  0
   10.0640   -2.2315   21.8255 H   0  0  0  0  0  0  0  0  0  0  0  0
    4.4051    1.9733   17.4488 H   0  0  0  0  0  0  0  0  0  0  0  0
   12.1014   -0.5532   23.4119 H   0  0  0  0  0  0  0  0  0  0  0  0
    8.4825   -0.7940   18.0623 H   0  0  0  0  0  0  0  0  0  0  0  0
   14.5445    0.4131   23.3009 H   0  0  0  0  0  0  0  0  0  0  0  0
   11.4871    3.7623   23.5403 H   0  0  0  0  0  0  0  0  0  0  0  0
    8.2506   -5.2684   25.5009 H   0  0  0  0  0  0  0  0  0  0  0  0
    9.9820   -5.5375   25.1832 H   0  0  0  0  0  0  0  0  0  0  0  0
    9.4843   -4.7055   26.6554 H   0  0  0  0  0  0  0  0  0  0  0  0
    9.5854    1.2495   24.6258 H   0  0  0  0  0  0  0  0  0  0  0  0
    9.3886    2.2282   23.1920 H   0  0  0  0  0  0  0  0  0  0  0  0
    8.0686    0.4964   23.2745 H   0  0  0  0  0  0  0  0  0  0  0  0
    6.7266    0.4930   16.8305 H   0  0  0  0  0  0  0  0  0  0  0  0
    8.2408   -1.5631   21.0968 H   0  0  0  0  0  0  0  0  0  0  0  0
  1  2  1  0  0  0  0
  1  3  2  0  0  0  0
  2  8  2  0  0  0  0
  3 13  1  0  0  0  0
  4  6  2  0  0  0  0
  4 14  1  0  0  0  0
  5  7  1  0  0  0  0
  5 14  2  0  0  0  0
  6 15  1  0  0  0  0
  7 15  2  0  0  0  0
  8 17  1  0  0  0  0
  9 11  2  0  0  0  0
  9 16  1  0  0  0  0
 10 18  2  0  0  0  0
 10 23  1  0  0  0  0
 11 26  1  0  0  0  0
 12 16  2  0  0  0  0
 12 26  1  0  0  0  0
 13 17  2  0  0  0  0
 13 18  1  0  0  0  0
 14 20  1  0  0  0  0
 15 22  1  0  0  0  0
 16 21  1  0  0  0  0
 17 23  1  0  0  0  0
 18 24  1  0  0  0  0
 19 22  1  0  0  0  0
 19 24  1  0  0  0  0
 19 25  2  0  0  0  0
 21 22  1  1  0  0  0
  1 27  1  0  0  0  0
  2 28  1  0  0  0  0
  3 29  1  0  0  0  0
  4 30  1  0  0  0  0
  5 31  1  0  0  0  0
  6 32  1  0  0  0  0
  7 33  1  0  0  0  0
  8 34  1  0  0  0  0
  9 35  1  0  0  0  0
 10 36  1  0  0  0  0
 11 37  1  0  0  0  0
 12 38  1  0  0  0  0
 20 39  1  0  0  0  0
 20 40  1  0  0  0  0
 20 41  1  0  0  0  0
 21 42  1  0  0  0  0
 21 43  1  0  0  0  0
 22 44  1  0  0  0  0
 23 45  1  0  0  0  0
 24 46  1  0  0  0  0
M  END
> <clash_score>
0

> <docking_score>
-9.21098518371582

> <overlap_score>
0.9454270005226135

$$$$
BENZO_293_2
  -OEChem-08222022193D

 49 52  0     1  0  0  0  0  0999 V2000
   12.9427    3.5803   21.5528 C   0  0  0  0  0  0  0  0  0  0  0  0
    4.2750    1.7050   20.8490 C   0  0  0  0  0  0  0  0  0  0  0  0
   13.2971    2.5494   22.4231 C   0  0  0  0  0  0  0  0  0  0  0  0
   11.5975    3.8801   21.3380 C   0  0  0  0  0  0  0  0  0  0  0  0
    3.9160    2.0630   19.5520 C   0  0  0  0  0  0  0  0  0  0  0  0
    5.4210    0.9600   21.0930 C   0  0  0  0  0  0  0  0  0  0  0  0
   12.3064    1.8183   23.0784 C   0  0  0  0  0  0  0  0  0  0  0  0
   10.6067    3.1489   21.9933 C   0  0  0  0  0  0  0  0  0  0  0  0
    8.9960   -2.3380   25.5320 C   0  0  0  0  0  0  0  0  0  0  0  0
    9.6730   -3.4710   23.5300 C   0  0  0  0  0  0  0  0  0  0  0  0
    9.0720   -1.1280   24.8640 C   0  0  0  0  0  0  0  0  0  0  0  0
    9.7200   -2.2600   22.8630 C   0  0  0  0  0  0  0  0  0  0  0  0
    4.6890    1.6810   18.4640 C   0  0  0  0  0  0  0  0  0  0  0  0
    7.6390   -0.2680   18.5410 C   0  0  0  0  0  0  0  0  0  0  0  0
    6.1790    0.5730   19.9990 C   0  0  0  0  0  0  0  0  0  0  0  0
    9.3070   -3.5340   24.8780 C   0  0  0  0  0  0  0  0  0  0  0  0
   10.9611    2.1180   22.8635 C   0  0  0  0  0  0  0  0  0  0  0  0
    9.3350   -1.0880   23.5010 C   0  0  0  0  0  0  0  0  0  0  0  0
    5.8300    0.9190   18.6970 C   0  0  0  0  0  0  0  0  0  0  0  0
    7.3170   -0.1610   19.8550 C   0  0  0  0  0  0  0  0  0  0  0  0
    9.0420    0.3700   21.5280 C   0  0  0  0  0  0  0  0  0  0  0  0
    9.2507   -4.8268   25.5895 C   0  0  0  0  0  0  0  0  0  0  0  0
    9.8870    1.3260   23.5730 C   0  0  0  0  0  0  0  0  0  0  0  0
    9.4560    0.1560   22.8130 C   0  0  2  0  0  0  0  0  0  0  0  0
    6.7580    0.3810   17.8350 N   0  0  0  0  0  0  0  0  0  0  0  0
    8.1890   -0.7180   20.8700 N   0  0  0  0  0  0  0  0  0  0  0  0
    9.2690    1.4140   20.9380 O   0  0  0  0  0  0  0  0  0  0  0  0
   13.7143    4.1504   21.0437 H   0  0  0  0  0  0  0  0  0  0  0  0
    3.6453    2.0152   21.6831 H   0  0  0  0  0  0  0  0  0  0  0  0
   14.3446    2.3166   22.5913 H   0  0  0  0  0  0  0  0  0  0  0  0
   11.3212    4.6833   20.6614 H   0  0  0  0  0  0  0  0  0  0  0  0
    3.0147    2.6520   19.3913 H   0  0  0  0  0  0  0  0  0  0  0  0
    5.6991    0.6995   22.1042 H   0  0  0  0  0  0  0  0  0  0  0  0
   12.5919    1.0166   23.7545 H   0  0  0  0  0  0  0  0  0  0  0  0
    9.5612    3.3895   21.8196 H   0  0  0  0  0  0  0  0  0  0  0  0
    8.6904   -2.3557   26.5808 H   0  0  0  0  0  0  0  0  0  0  0  0
    9.9249   -4.3911   22.9935 H   0  0  0  0  0  0  0  0  0  0  0  0
    8.9209   -0.1987   25.4207 H   0  0  0  0  0  0  0  0  0  0  0  0
   10.0640   -2.2315   21.8255 H   0  0  0  0  0  0  0  0  0  0  0  0
    4.4051    1.9733   17.4488 H   0  0  0  0  0  0  0  0  0  0  0  0
    8.4825   -0.7940   18.0623 H   0  0  0  0  0  0  0  0  0  0  0  0
    8.2506   -5.2684   25.5009 H   0  0  0  0  0  0  0  0  0  0  0  0
    9.9820   -5.5375   25.1832 H   0  0  0  0  0  0  0  0  0  0  0  0
    9.4843   -4.7055   26.6554 H   0  0  0  0  0  0  0  0  0  0  0  0
   10.2455    1.0419   24.5710 H   0  0  0  0  0  0  0  0  0  0  0  0
    9.0345    1.9965   23.7496 H   0  0  0  0  0  0  0  0  0  0  0  0
   10.7927   -0.1029   22.4279 H   0  0  0  0  0  0  0  0  0  0  0  0
    6.7266    0.4930   16.8305 H   0  0  0  0  0  0  0  0  0  0  0  0
    8.2408   -1.5631   21.0968 H   0  0  0  0  0  0  0  0  0  0  0  0
  1  3  1  0  0  0  0
  1  4  2  0  0  0  0
  2  5  1  0  0  0  0
  2  6  2  0  0  0  0
  3  7  2  0  0  0  0
  4  8  1  0  0  0  0
  5 13  2  0  0  0  0
  6 15  1  0  0  0  0
  7 17  1  0  0  0  0
  8 17  2  0  0  0  0
  9 11  2  0  0  0  0
  9 16  1  0  0  0  0
 10 12  1  0  0  0  0
 10 16  2  0  0  0  0
 11 18  1  0  0  0  0
 12 18  2  0  0  0  0
 13 19  1  0  0  0  0
 14 20  2  0  0  0  0
 14 25  1  0  0  0  0
 15 19  2  0  0  0  0
 15 20  1  0  0  0  0
 16 22  1  0  0  0  0
 17 23  1  0  0  0  0
 18 24  1  0  0  0  0
 19 25  1  0  0  0  0
 20 26  1  0  0  0  0
 21 24  1  0  0  0  0
 21 26  1  0  0  0  0
 21 27  2  0  0  0  0
 23 24  1  6  0  0  0
  1 28  1  0  0  0  0
  2 29  1  0  0  0  0
  3 30  1  0  0  0  0
  4 31  1  0  0  0  0
  5 32  1  0  0  0  0
  6 33  1  0  0  0  0
  7 34  1  0  0  0  0
  8 35  1  0  0  0  0
  9 36  1  0  0  0  0
 10 37  1  0  0  0  0
 11 38  1  0  0  0  0
 12 39  1  0  0  0  0
 13 40  1  0  0  0  0
 14 41  1  0  0  0  0
 22 42  1  0  0  0  0
 22 43  1  0  0  0  0
 22 44  1  0  0  0  0
 23 45  1  0  0  0  0
 23 46  1  0  0  0  0
 24 47  1  0  0  0  0
 25 48  1  0  0  0  0
 26 49  1  0  0  0  0
M  END
> <clash_score>
0.6163868389900387

> <docking_score>
-8.667016983032227

> <overlap_score>
0.9163945317268372

$$$$
BENZO_292_2
  -OEChem-08222022193D

 46 49  0     1  0  0  0  0  0999 V2000
    4.2750    1.7050   20.8490 C   0  0  0  0  0  0  0  0  0  0  0  0
    3.9160    2.0630   19.5520 C   0  0  0  0  0  0  0  0  0  0  0  0
    5.4210    0.9600   21.0930 C   0  0  0  0  0  0  0  0  0  0  0  0
    8.9960   -2.3380   25.5320 C   0  0  0  0  0  0  0  0  0  0  0  0
    9.6730   -3.4710   23.5300 C   0  0  0  0  0  0  0  0  0  0  0  0
    9.0720   -1.1280   24.8640 C   0  0  0  0  0  0  0  0  0  0  0  0
    9.7200   -2.2600   22.8630 C   0  0  0  0  0  0  0  0  0  0  0  0
    4.6890    1.6810   18.4640 C   0  0  0  0  0  0  0  0  0  0  0  0
   12.3907    0.6679   23.6950 C   0  0  0  0  0  0  0  0  0  0  0  0
    7.6390   -0.2680   18.5410 C   0  0  0  0  0  0  0  0  0  0  0  0
   13.4189    0.5308   24.6014 C   0  0  0  0  0  0  0  0  0  0  0  0
   11.3314    1.2632   25.6764 C   0  0  0  0  0  0  0  0  0  0  0  0
    6.1790    0.5730   19.9990 C   0  0  0  0  0  0  0  0  0  0  0  0
    9.3070   -3.5340   24.8780 C   0  0  0  0  0  0  0  0  0  0  0  0
    9.3350   -1.0880   23.5010 C   0  0  0  0  0  0  0  0  0  0  0  0
   11.1814    1.0923   24.3176 C   0  0  0  0  0  0  0  0  0  0  0  0
    5.8300    0.9190   18.6970 C   0  0  0  0  0  0  0  0  0  0  0  0
    7.3170   -0.1610   19.8550 C   0  0  0  0  0  0  0  0  0  0  0  0
    9.0420    0.3700   21.5280 C   0  0  0  0  0  0  0  0  0  0  0  0
    9.2507   -4.8268   25.5895 C   0  0  0  0  0  0  0  0  0  0  0  0
    9.8870    1.3260   23.5730 C   0  0  0  0  0  0  0  0  0  0  0  0
    9.4560    0.1560   22.8130 C   0  0  2  0  0  0  0  0  0  0  0  0
    6.7580    0.3810   17.8350 N   0  0  0  0  0  0  0  0  0  0  0  0
    8.1890   -0.7180   20.8700 N   0  0  0  0  0  0  0  0  0  0  0  0
    9.2690    1.4140   20.9380 O   0  0  0  0  0  0  0  0  0  0  0  0
   12.9250    0.9128   26.1959 S   0  0  0  0  0  0  0  0  0  0  0  0
    3.6453    2.0152   21.6831 H   0  0  0  0  0  0  0  0  0  0  0  0
    3.0147    2.6520   19.3913 H   0  0  0  0  0  0  0  0  0  0  0  0
    5.6991    0.6995   22.1042 H   0  0  0  0  0  0  0  0  0  0  0  0
    8.6904   -2.3557   26.5808 H   0  0  0  0  0  0  0  0  0  0  0  0
    9.9249   -4.3911   22.9935 H   0  0  0  0  0  0  0  0  0  0  0  0
    8.9209   -0.1987   25.4207 H   0  0  0  0  0  0  0  0  0  0  0  0
   10.0640   -2.2315   21.8255 H   0  0  0  0  0  0  0  0  0  0  0  0
    4.4051    1.9733   17.4488 H   0  0  0  0  0  0  0  0  0  0  0  0
   12.5049    0.4716   22.6364 H   0  0  0  0  0  0  0  0  0  0  0  0
    8.4825   -0.7940   18.0623 H   0  0  0  0  0  0  0  0  0  0  0  0
   14.4362    0.2239   24.4037 H   0  0  0  0  0  0  0  0  0  0  0  0
   10.5839    1.5756   26.3924 H   0  0  0  0  0  0  0  0  0  0  0  0
    8.2506   -5.2684   25.5009 H   0  0  0  0  0  0  0  0  0  0  0  0
    9.9820   -5.5375   25.1832 H   0  0  0  0  0  0  0  0  0  0  0  0
    9.4843   -4.7055   26.6554 H   0  0  0  0  0  0  0  0  0  0  0  0
    9.1131    1.6463   24.2828 H   0  0  0  0  0  0  0  0  0  0  0  0
   10.0354    2.1807   22.8984 H   0  0  0  0  0  0  0  0  0  0  0  0
   10.7927   -0.1029   22.4279 H   0  0  0  0  0  0  0  0  0  0  0  0
    6.7266    0.4930   16.8305 H   0  0  0  0  0  0  0  0  0  0  0  0
    8.2408   -1.5631   21.0968 H   0  0  0  0  0  0  0  0  0  0  0  0
  1  2  1  0  0  0  0
  1  3  2  0  0  0  0
  2  8  2  0  0  0  0
  3 13  1  0  0  0  0
  4  6  2  0  0  0  0
  4 14  1  0  0  0  0
  5  7  1  0  0  0  0
  5 14  2  0  0  0  0
  6 15  1  0  0  0  0
  7 15  2  0  0  0  0
  8 17  1  0  0  0  0
  9 11  2  0  0  0  0
  9 16  1  0  0  0  0
 10 18  2  0  0  0  0
 10 23  1  0  0  0  0
 11 26  1  0  0  0  0
 12 16  2  0  0  0  0
 12 26  1  0  0  0  0
 13 17  2  0  0  0  0
 13 18  1  0  0  0  0
 14 20  1  0  0  0  0
 15 22  1  0  0  0  0
 16 21  1  0  0  0  0
 17 23  1  0  0  0  0
 18 24  1  0  0  0  0
 19 22  1  0  0  0  0
 19 24  1  0  0  0  0
 19 25  2  0  0  0  0
 21 22  1  6  0  0  0
  1 27  1  0  0  0  0
  2 28  1  0  0  0  0
  3 29  1  0  0  0  0
  4 30  1  0  0  0  0
  5 31  1  0  0  0  0
  6 32  1  0  0  0  0
  7 33  1  0  0  0  0
  8 34  1  0  0  0  0
  9 35  1  0  0  0  0
 10 36  1  0  0  0  0
 11 37  1  0  0  0  0
 12 38  1  0  0  0  0
 20 39  1  0  0  0  0
 20 40  1  0  0  0  0
 20 41  1  0  0  0  0
 21 42  1  0  0  0  0
 21 43  1  0  0  0  0
 22 44  1  0  0  0  0
 23 45  1  0  0  0  0
 24 46  1  0  0  0  0
M  END
> <clash_score>
0.6216861097175569

> <docking_score>
-7.096837043762207

> <overlap_score>
0.8681578636169434

$$$$
BENZO_290_1
  -OEChem-08222022193D

 61 65  0     1  0  0  0  0  0999 V2000
    4.2750    1.7050   20.8490 C   0  0  0  0  0  0  0  0  0  0  0  0
    3.9160    2.0630   19.5520 C   0  0  0  0  0  0  0  0  0  0  0  0
   13.2943    2.5807   22.4505 C   0  0  0  0  0  0  0  0  0  0  0  0
    5.4210    0.9600   21.0930 C   0  0  0  0  0  0  0  0  0  0  0  0
   12.3047    1.8379   23.0944 C   0  0  0  0  0  0  0  0  0  0  0  0
    9.0720   -1.1280   24.8640 C   0  0  0  0  0  0  0  0  0  0  0  0
    9.7200   -2.2600   22.8630 C   0  0  0  0  0  0  0  0  0  0  0  0
    4.6890    1.6810   18.4640 C   0  0  0  0  0  0  0  0  0  0  0  0
    8.9960   -2.3380   25.5320 C   0  0  0  0  0  0  0  0  0  0  0  0
    9.6730   -3.4710   23.5300 C   0  0  0  0  0  0  0  0  0  0  0  0
   12.9381    3.6176   21.5882 C   0  0  0  0  0  0  0  0  0  0  0  0
   10.6025    3.1690   22.0135 C   0  0  0  0  0  0  0  0  0  0  0  0
    7.6390   -0.2680   18.5410 C   0  0  0  0  0  0  0  0  0  0  0  0
    6.1790    0.5730   19.9990 C   0  0  0  0  0  0  0  0  0  0  0  0
    9.3350   -1.0880   23.5010 C   0  0  0  0  0  0  0  0  0  0  0  0
   10.9588    2.1321   22.8759 C   0  0  0  0  0  0  0  0  0  0  0  0
    5.8300    0.9190   18.6970 C   0  0  0  0  0  0  0  0  0  0  0  0
    9.3070   -3.5340   24.8780 C   0  0  0  0  0  0  0  0  0  0  0  0
    7.3170   -0.1610   19.8550 C   0  0  0  0  0  0  0  0  0  0  0  0
   11.5922    3.9117   21.3697 C   0  0  0  0  0  0  0  0  0  0  0  0
    9.0420    0.3700   21.5280 C   0  0  0  0  0  0  0  0  0  0  0  0
    7.3637   -6.1365   27.1885 C   0  0  0  0  0  0  0  0  0  0  0  0
    8.1962   -4.9739   27.7340 C   0  0  0  0  0  0  0  0  0  0  0  0
    7.1943   -6.0395   25.6706 C   0  0  0  0  0  0  0  0  0  0  0  0
    9.5197   -4.8493   26.9795 C   0  0  0  0  0  0  0  0  0  0  0  0
    8.5443   -5.8838   24.9636 C   0  0  0  0  0  0  0  0  0  0  0  0
    9.8870    1.3260   23.5730 C   0  0  0  0  0  0  0  0  0  0  0  0
    9.4560    0.1560   22.8130 C   0  0  1  0  0  0  0  0  0  0  0  0
    6.7580    0.3810   17.8350 N   0  0  0  0  0  0  0  0  0  0  0  0
    9.2563   -4.7385   25.5420 N   0  0  0  0  0  0  0  0  0  0  0  0
    8.1890   -0.7180   20.8700 N   0  0  0  0  0  0  0  0  0  0  0  0
    9.2690    1.4140   20.9380 O   0  0  0  0  0  0  0  0  0  0  0  0
   11.1532    5.1904   20.3048 Cl  0  0  0  0  0  0  0  0  0  0  0  0
    3.6453    2.0152   21.6831 H   0  0  0  0  0  0  0  0  0  0  0  0
    3.0147    2.6520   19.3913 H   0  0  0  0  0  0  0  0  0  0  0  0
   14.3422    2.3512   22.6208 H   0  0  0  0  0  0  0  0  0  0  0  0
    5.6991    0.6995   22.1042 H   0  0  0  0  0  0  0  0  0  0  0  0
   12.5914    1.0317   23.7645 H   0  0  0  0  0  0  0  0  0  0  0  0
    8.9214   -0.1986   25.4206 H   0  0  0  0  0  0  0  0  0  0  0  0
   10.0622   -2.2326   21.8251 H   0  0  0  0  0  0  0  0  0  0  0  0
    4.4051    1.9733   17.4488 H   0  0  0  0  0  0  0  0  0  0  0  0
    8.6882   -2.3542   26.5803 H   0  0  0  0  0  0  0  0  0  0  0  0
    9.9258   -4.3896   22.9914 H   0  0  0  0  0  0  0  0  0  0  0  0
   13.7201    4.1879   21.0929 H   0  0  0  0  0  0  0  0  0  0  0  0
    9.5518    3.3947   21.8469 H   0  0  0  0  0  0  0  0  0  0  0  0
    8.4825   -0.7940   18.0623 H   0  0  0  0  0  0  0  0  0  0  0  0
    7.8484   -7.0905   27.4464 H   0  0  0  0  0  0  0  0  0  0  0  0
    6.3761   -6.1442   27.6721 H   0  0  0  0  0  0  0  0  0  0  0  0
    7.6308   -4.0428   27.6404 H   0  0  0  0  0  0  0  0  0  0  0  0
    8.3917   -5.1316   28.7967 H   0  0  0  0  0  0  0  0  0  0  0  0
    6.6889   -6.9376   25.3006 H   0  0  0  0  0  0  0  0  0  0  0  0
    6.5516   -5.1860   25.4256 H   0  0  0  0  0  0  0  0  0  0  0  0
   10.0494   -3.9643   27.3413 H   0  0  0  0  0  0  0  0  0  0  0  0
   10.1432   -5.7258   27.1775 H   0  0  0  0  0  0  0  0  0  0  0  0
    9.1338   -6.7931   25.0863 H   0  0  0  0  0  0  0  0  0  0  0  0
    8.3657   -5.7262   23.8995 H   0  0  0  0  0  0  0  0  0  0  0  0
   10.2417    1.0375   24.5711 H   0  0  0  0  0  0  0  0  0  0  0  0
    9.0279    1.9881   23.7492 H   0  0  0  0  0  0  0  0  0  0  0  0
   10.7949   -0.0994   22.4253 H   0  0  0  0  0  0  0  0  0  0  0  0
    6.7266    0.4930   16.8305 H   0  0  0  0  0  0  0  0  0  0  0  0
    8.2585   -1.5522   21.1129 H   0  0  0  0  0  0  0  0  0  0  0  0
  1  2  1  0  0  0  0
  1  4  2  0  0  0  0
  2  8  2  0  0  0  0
  3  5  2  0  0  0  0
  3 11  1  0  0  0  0
  4 14  1  0  0  0  0
  5 16  1  0  0  0  0
  6  9  2  0  0  0  0
  6 15  1  0  0  0  0
  7 10  1  0  0  0  0
  7 15  2  0  0  0  0
  8 17  1  0  0  0  0
  9 18  1  0  0  0  0
 10 18  2  0  0  0  0
 11 20  2  0  0  0  0
 12 16  2  0  0  0  0
 12 20  1  0  0  0  0
 13 19  2  0  0  0  0
 13 29  1  0  0  0  0
 14 17  2  0  0  0  0
 14 19  1  0  0  0  0
 15 28  1  0  0  0  0
 16 27  1  0  0  0  0
 17 29  1  0  0  0  0
 18 30  1  0  0  0  0
 19 31  1  0  0  0  0
 20 33  1  0  0  0  0
 21 28  1  1  0  0  0
 21 31  1  0  0  0  0
 21 32  2  0  0  0  0
 22 23  1  0  0  0  0
 22 24  1  0  0  0  0
 23 25  1  0  0  0  0
 24 26  1  0  0  0  0
 25 30  1  0  0  0  0
 26 30  1  0  0  0  0
 27 28  1  0  0  0  0
  1 34  1  0  0  0  0
  2 35  1  0  0  0  0
  3 36  1  0  0  0  0
  4 37  1  0  0  0  0
  5 38  1  0  0  0  0
  6 39  1  0  0  0  0
  7 40  1  0  0  0  0
  8 41  1  0  0  0  0
  9 42  1  0  0  0  0
 10 43  1  0  0  0  0
 11 44  1  0  0  0  0
 12 45  1  0  0  0  0
 13 46  1  0  0  0  0
 22 47  1  0  0  0  0
 22 48  1  0  0  0  0
 23 49  1  0  0  0  0
 23 50  1  0  0  0  0
 24 51  1  0  0  0  0
 24 52  1  0  0  0  0
 25 53  1  0  0  0  0
 25 54  1  0  0  0  0
 26 55  1  0  0  0  0
 26 56  1  0  0  0  0
 27 57  1  0  0  0  0
 27 58  1  0  0  0  0
 28 59  1  0  0  0  0
 29 60  1  0  0  0  0
 31 61  1  0  0  0  0
M  END
> <clash_score>
2.1999107557461057

> <docking_score>
-7.736421585083008

> <overlap_score>
0.9694707989692688

$$$$
BENZO_290_2
  -OEChem-08222022193D

 61 65  0     1  0  0  0  0  0999 V2000
    4.2750    1.7050   20.8490 C   0  0  0  0  0  0  0  0  0  0  0  0
    3.9160    2.0630   19.5520 C   0  0  0  0  0  0  0  0  0  0  0  0
   13.6270    0.7091   23.2981 C   0  0  0  0  0  0  0  0  0  0  0  0
    5.4210    0.9600   21.0930 C   0  0  0  0  0  0  0  0  0  0  0  0
   12.2510    0.4886   23.3574 C   0  0  0  0  0  0  0  0  0  0  0  0
    9.0720   -1.1280   24.8640 C   0  0  0  0  0  0  0  0  0  0  0  0
    9.7200   -2.2600   22.8630 C   0  0  0  0  0  0  0  0  0  0  0  0
    4.6890    1.6810   18.4640 C   0  0  0  0  0  0  0  0  0  0  0  0
    8.9960   -2.3380   25.5320 C   0  0  0  0  0  0  0  0  0  0  0  0
    9.6730   -3.4710   23.5300 C   0  0  0  0  0  0  0  0  0  0  0  0
   14.1301    2.0068   23.3918 C   0  0  0  0  0  0  0  0  0  0  0  0
   11.8810    2.8633   23.6037 C   0  0  0  0  0  0  0  0  0  0  0  0
    7.6390   -0.2680   18.5410 C   0  0  0  0  0  0  0  0  0  0  0  0
    6.1790    0.5730   19.9990 C   0  0  0  0  0  0  0  0  0  0  0  0
    9.3350   -1.0880   23.5010 C   0  0  0  0  0  0  0  0  0  0  0  0
   11.3780    1.5657   23.5101 C   0  0  0  0  0  0  0  0  0  0  0  0
    5.8300    0.9190   18.6970 C   0  0  0  0  0  0  0  0  0  0  0  0
    9.3070   -3.5340   24.8780 C   0  0  0  0  0  0  0  0  0  0  0  0
    7.3170   -0.1610   19.8550 C   0  0  0  0  0  0  0  0  0  0  0  0
   13.2570    3.0839   23.5445 C   0  0  0  0  0  0  0  0  0  0  0  0
    9.0420    0.3700   21.5280 C   0  0  0  0  0  0  0  0  0  0  0  0
    7.3637   -6.1365   27.1885 C   0  0  0  0  0  0  0  0  0  0  0  0
    8.1962   -4.9739   27.7340 C   0  0  0  0  0  0  0  0  0  0  0  0
    7.1943   -6.0395   25.6706 C   0  0  0  0  0  0  0  0  0  0  0  0
    9.5197   -4.8493   26.9795 C   0  0  0  0  0  0  0  0  0  0  0  0
    8.5443   -5.8838   24.9636 C   0  0  0  0  0  0  0  0  0  0  0  0
    9.8870    1.3260   23.5730 C   0  0  0  0  0  0  0  0  0  0  0  0
    9.4560    0.1560   22.8130 C   0  0  2  0  0  0  0  0  0  0  0  0
    6.7580    0.3810   17.8350 N   0  0  0  0  0  0  0  0  0  0  0  0
    9.2563   -4.7385   25.5420 N   0  0  0  0  0  0  0  0  0  0  0  0
    8.1890   -0.7180   20.8700 N   0  0  0  0  0  0  0  0  0  0  0  0
    9.2690    1.4140   20.9380 O   0  0  0  0  0  0  0  0  0  0  0  0
   13.8782    4.6848   23.6588 Cl  0  0  0  0  0  0  0  0  0  0  0  0
    3.6453    2.0152   21.6831 H   0  0  0  0  0  0  0  0  0  0  0  0
    3.0147    2.6520   19.3913 H   0  0  0  0  0  0  0  0  0  0  0  0
   14.3065   -0.1299   23.1790 H   0  0  0  0  0  0  0  0  0  0  0  0
    5.6991    0.6995   22.1042 H   0  0  0  0  0  0  0  0  0  0  0  0
   11.8679   -0.5259   23.2835 H   0  0  0  0  0  0  0  0  0  0  0  0
    8.9214   -0.1986   25.4206 H   0  0  0  0  0  0  0  0  0  0  0  0
   10.0622   -2.2326   21.8251 H   0  0  0  0  0  0  0  0  0  0  0  0
    4.4051    1.9733   17.4488 H   0  0  0  0  0  0  0  0  0  0  0  0
    8.6882   -2.3542   26.5803 H   0  0  0  0  0  0  0  0  0  0  0  0
    9.9258   -4.3896   22.9914 H   0  0  0  0  0  0  0  0  0  0  0  0
   15.2048    2.1638   23.3438 H   0  0  0  0  0  0  0  0  0  0  0  0
   11.1962    3.6997   23.7233 H   0  0  0  0  0  0  0  0  0  0  0  0
    8.4825   -0.7940   18.0623 H   0  0  0  0  0  0  0  0  0  0  0  0
    7.8484   -7.0905   27.4464 H   0  0  0  0  0  0  0  0  0  0  0  0
    6.3761   -6.1442   27.6721 H   0  0  0  0  0  0  0  0  0  0  0  0
    7.6308   -4.0428   27.6404 H   0  0  0  0  0  0  0  0  0  0  0  0
    8.3917   -5.1316   28.7967 H   0  0  0  0  0  0  0  0  0  0  0  0
    6.6889   -6.9376   25.3006 H   0  0  0  0  0  0  0  0  0  0  0  0
    6.5516   -5.1860   25.4256 H   0  0  0  0  0  0  0  0  0  0  0  0
   10.0494   -3.9643   27.3413 H   0  0  0  0  0  0  0  0  0  0  0  0
   10.1432   -5.7258   27.1775 H   0  0  0  0  0  0  0  0  0  0  0  0
    9.1338   -6.7931   25.0863 H   0  0  0  0  0  0  0  0  0  0  0  0
    8.3657   -5.7262   23.8995 H   0  0  0  0  0  0  0  0  0  0  0  0
    9.5760    1.2490   24.6231 H   0  0  0  0  0  0  0  0  0  0  0  0
    9.3844    2.2230   23.1853 H   0  0  0  0  0  0  0  0  0  0  0  0
    8.0674    0.5009   23.2732 H   0  0  0  0  0  0  0  0  0  0  0  0
    6.7266    0.4930   16.8305 H   0  0  0  0  0  0  0  0  0  0  0  0
    8.2585   -1.5522   21.1129 H   0  0  0  0  0  0  0  0  0  0  0  0
  1  2  1  0  0  0  0
  1  4  2  0  0  0  0
  2  8  2  0  0  0  0
  3  5  2  0  0  0  0
  3 11  1  0  0  0  0
  4 14  1  0  0  0  0
  5 16  1  0  0  0  0
  6  9  2  0  0  0  0
  6 15  1  0  0  0  0
  7 10  1  0  0  0  0
  7 15  2  0  0  0  0
  8 17  1  0  0  0  0
  9 18  1  0  0  0  0
 10 18  2  0  0  0  0
 11 20  2  0  0  0  0
 12 16  2  0  0  0  0
 12 20  1  0  0  0  0
 13 19  2  0  0  0  0
 13 29  1  0  0  0  0
 14 17  2  0  0  0  0
 14 19  1  0  0  0  0
 15 28  1  0  0  0  0
 16 27  1  0  0  0  0
 17 29  1  0  0  0  0
 18 30  1  0  0  0  0
 19 31  1  0  0  0  0
 20 33  1  0  0  0  0
 21 28  1  6  0  0  0
 21 31  1  0  0  0  0
 21 32  2  0  0  0  0
 22 23  1  0  0  0  0
 22 24  1  0  0  0  0
 23 25  1  0  0  0  0
 24 26  1  0  0  0  0
 25 30  1  0  0  0  0
 26 30  1  0  0  0  0
 27 28  1  0  0  0  0
  1 34  1  0  0  0  0
  2 35  1  0  0  0  0
  3 36  1  0  0  0  0
  4 37  1  0  0  0  0
  5 38  1  0  0  0  0
  6 39  1  0  0  0  0
  7 40  1  0  0  0  0
  8 41  1  0  0  0  0
  9 42  1  0  0  0  0
 10 43  1  0  0  0  0
 11 44  1  0  0  0  0
 12 45  1  0  0  0  0
 13 46  1  0  0  0  0
 22 47  1  0  0  0  0
 22 48  1  0  0  0  0
 23 49  1  0  0  0  0
 23 50  1  0  0  0  0
 24 51  1  0  0  0  0
 24 52  1  0  0  0  0
 25 53  1  0  0  0  0
 25 54  1  0  0  0  0
 26 55  1  0  0  0  0
 26 56  1  0  0  0  0
 27 57  1  0  0  0  0
 27 58  1  0  0  0  0
 28 59  1  0  0  0  0
 29 60  1  0  0  0  0
 31 61  1  0  0  0  0
M  END
> <clash_score>
0

> <docking_score>
-8.155710220336914

> <overlap_score>
1.0154396295547485

$$$$
BENZO_291_2
  -OEChem-08222022193D

 61 65  0     1  0  0  0  0  0999 V2000
    4.2750    1.7050   20.8490 C   0  0  0  0  0  0  0  0  0  0  0  0
    3.9160    2.0630   19.5520 C   0  0  0  0  0  0  0  0  0  0  0  0
    5.4210    0.9600   21.0930 C   0  0  0  0  0  0  0  0  0  0  0  0
    9.0720   -1.1280   24.8640 C   0  0  0  0  0  0  0  0  0  0  0  0
    9.7200   -2.2600   22.8630 C   0  0  0  0  0  0  0  0  0  0  0  0
    4.6890    1.6810   18.4640 C   0  0  0  0  0  0  0  0  0  0  0  0
    8.9960   -2.3380   25.5320 C   0  0  0  0  0  0  0  0  0  0  0  0
    9.6730   -3.4710   23.5300 C   0  0  0  0  0  0  0  0  0  0  0  0
   12.3549    1.9792   22.9728 C   0  0  0  0  0  0  0  0  0  0  0  0
   10.7877    3.1780   22.0023 C   0  0  0  0  0  0  0  0  0  0  0  0
    7.6390   -0.2680   18.5410 C   0  0  0  0  0  0  0  0  0  0  0  0
    6.1790    0.5730   19.9990 C   0  0  0  0  0  0  0  0  0  0  0  0
    9.3350   -1.0880   23.5010 C   0  0  0  0  0  0  0  0  0  0  0  0
   10.9588    2.1321   22.8759 C   0  0  0  0  0  0  0  0  0  0  0  0
    5.8300    0.9190   18.6970 C   0  0  0  0  0  0  0  0  0  0  0  0
    9.3070   -3.5340   24.8780 C   0  0  0  0  0  0  0  0  0  0  0  0
    7.3170   -0.1610   19.8550 C   0  0  0  0  0  0  0  0  0  0  0  0
    9.0420    0.3700   21.5280 C   0  0  0  0  0  0  0  0  0  0  0  0
    7.3637   -6.1365   27.1885 C   0  0  0  0  0  0  0  0  0  0  0  0
    8.1962   -4.9739   27.7340 C   0  0  0  0  0  0  0  0  0  0  0  0
    7.1943   -6.0395   25.6706 C   0  0  0  0  0  0  0  0  0  0  0  0
    9.5197   -4.8493   26.9795 C   0  0  0  0  0  0  0  0  0  0  0  0
    8.5443   -5.8838   24.9636 C   0  0  0  0  0  0  0  0  0  0  0  0
   12.3765    4.6444   20.7357 C   0  0  0  0  0  0  0  0  0  0  0  0
    9.8870    1.3260   23.5730 C   0  0  0  0  0  0  0  0  0  0  0  0
    9.4560    0.1560   22.8130 C   0  0  2  0  0  0  0  0  0  0  0  0
   13.0232    2.8576   22.2206 N   0  0  0  0  0  0  0  0  0  0  0  0
    6.7580    0.3810   17.8350 N   0  0  0  0  0  0  0  0  0  0  0  0
   12.0428    3.5725   21.6427 N   0  0  0  0  0  0  0  0  0  0  0  0
    9.2563   -4.7385   25.5420 N   0  0  0  0  0  0  0  0  0  0  0  0
    8.1890   -0.7180   20.8700 N   0  0  0  0  0  0  0  0  0  0  0  0
    9.2690    1.4140   20.9380 O   0  0  0  0  0  0  0  0  0  0  0  0
    3.6453    2.0152   21.6831 H   0  0  0  0  0  0  0  0  0  0  0  0
    3.0147    2.6520   19.3913 H   0  0  0  0  0  0  0  0  0  0  0  0
    5.6991    0.6995   22.1042 H   0  0  0  0  0  0  0  0  0  0  0  0
    8.9214   -0.1986   25.4206 H   0  0  0  0  0  0  0  0  0  0  0  0
   10.0622   -2.2326   21.8251 H   0  0  0  0  0  0  0  0  0  0  0  0
    4.4051    1.9733   17.4488 H   0  0  0  0  0  0  0  0  0  0  0  0
    8.6882   -2.3542   26.5803 H   0  0  0  0  0  0  0  0  0  0  0  0
    9.9258   -4.3896   22.9914 H   0  0  0  0  0  0  0  0  0  0  0  0
   12.9154    1.2645   23.5587 H   0  0  0  0  0  0  0  0  0  0  0  0
    9.9018    3.6623   21.6145 H   0  0  0  0  0  0  0  0  0  0  0  0
    8.4825   -0.7940   18.0623 H   0  0  0  0  0  0  0  0  0  0  0  0
    7.8484   -7.0905   27.4464 H   0  0  0  0  0  0  0  0  0  0  0  0
    6.3761   -6.1442   27.6721 H   0  0  0  0  0  0  0  0  0  0  0  0
    7.6308   -4.0428   27.6404 H   0  0  0  0  0  0  0  0  0  0  0  0
    8.3917   -5.1316   28.7967 H   0  0  0  0  0  0  0  0  0  0  0  0
    6.6889   -6.9376   25.3006 H   0  0  0  0  0  0  0  0  0  0  0  0
    6.5516   -5.1860   25.4256 H   0  0  0  0  0  0  0  0  0  0  0  0
   10.0494   -3.9643   27.3413 H   0  0  0  0  0  0  0  0  0  0  0  0
   10.1432   -5.7258   27.1775 H   0  0  0  0  0  0  0  0  0  0  0  0
    9.1338   -6.7931   25.0863 H   0  0  0  0  0  0  0  0  0  0  0  0
    8.3657   -5.7262   23.8995 H   0  0  0  0  0  0  0  0  0  0  0  0
   12.4726    5.5632   21.3202 H   0  0  0  0  0  0  0  0  0  0  0  0
   13.3178    4.4131   20.2294 H   0  0  0  0  0  0  0  0  0  0  0  0
   11.5839    4.7460   19.9892 H   0  0  0  0  0  0  0  0  0  0  0  0
   10.2417    1.0375   24.5711 H   0  0  0  0  0  0  0  0  0  0  0  0
    9.0279    1.9881   23.7492 H   0  0  0  0  0  0  0  0  0  0  0  0
   10.7949   -0.0994   22.4253 H   0  0  0  0  0  0  0  0  0  0  0  0
    6.7266    0.4930   16.8305 H   0  0  0  0  0  0  0  0  0  0  0  0
    8.2585   -1.5522   21.1129 H   0  0  0  0  0  0  0  0  0  0  0  0
  1  2  1  0  0  0  0
  1  3  2  0  0  0  0
  2  6  2  0  0  0  0
  3 12  1  0  0  0  0
  4  7  2  0  0  0  0
  4 13  1  0  0  0  0
  5  8  1  0  0  0  0
  5 13  2  0  0  0  0
  6 15  1  0  0  0  0
  7 16  1  0  0  0  0
  8 16  2  0  0  0  0
  9 14  1  0  0  0  0
  9 27  2  0  0  0  0
 10 14  2  0  0  0  0
 10 29  1  0  0  0  0
 11 17  2  0  0  0  0
 11 28  1  0  0  0  0
 12 15  2  0  0  0  0
 12 17  1  0  0  0  0
 13 26  1  0  0  0  0
 14 25  1  0  0  0  0
 15 28  1  0  0  0  0
 16 30  1  0  0  0  0
 17 31  1  0  0  0  0
 18 26  1  0  0  0  0
 18 31  1  0  0  0  0
 18 32  2  0  0  0  0
 19 20  1  0  0  0  0
 19 21  1  0  0  0  0
 20 22  1  0  0  0  0
 21 23  1  0  0  0  0
 22 30  1  0  0  0  0
 23 30  1  0  0  0  0
 24 29  1  0  0  0  0
 25 26  1  6  0  0  0
 27 29  1  0  0  0  0
  1 33  1  0  0  0  0
  2 34  1  0  0  0  0
  3 35  1  0  0  0  0
  4 36  1  0  0  0  0
  5 37  1  0  0  0  0
  6 38  1  0  0  0  0
  7 39  1  0  0  0  0
  8 40  1  0  0  0  0
  9 41  1  0  0  0  0
 10 42  1  0  0  0  0
 11 43  1  0  0  0  0
 19 44  1  0  0  0  0
 19 45  1  0  0  0  0
 20 46  1  0  0  0  0
 20 47  1  0  0  0  0
 21 48  1  0  0  0  0
 21 49  1  0  0  0  0
 22 50  1  0  0  0  0
 22 51  1  0  0  0  0
 23 52  1  0  0  0  0
 23 53  1  0  0  0  0
 24 54  1  0  0  0  0
 24 55  1  0  0  0  0
 24 56  1  0  0  0  0
 25 57  1  0  0  0  0
 25 58  1  0  0  0  0
 26 59  1  0  0  0  0
 28 60  1  0  0  0  0
 31 61  1  0  0  0  0
M  END
> <clash_score>
0

> <docking_score>
-7.209837913513184

> <overlap_score>
0.9639798402786255

$$$$
BENZO_291_1
  -OEChem-08222022193D

 61 65  0     1  0  0  0  0  0999 V2000
    4.2750    1.7050   20.8490 C   0  0  0  0  0  0  0  0  0  0  0  0
    3.9160    2.0630   19.5520 C   0  0  0  0  0  0  0  0  0  0  0  0
    5.4210    0.9600   21.0930 C   0  0  0  0  0  0  0  0  0  0  0  0
    9.0720   -1.1280   24.8640 C   0  0  0  0  0  0  0  0  0  0  0  0
    9.7200   -2.2600   22.8630 C   0  0  0  0  0  0  0  0  0  0  0  0
    4.6890    1.6810   18.4640 C   0  0  0  0  0  0  0  0  0  0  0  0
    8.9960   -2.3380   25.5320 C   0  0  0  0  0  0  0  0  0  0  0  0
    9.6730   -3.4710   23.5300 C   0  0  0  0  0  0  0  0  0  0  0  0
   12.0594    2.7949   23.5898 C   0  0  0  0  0  0  0  0  0  0  0  0
   12.3731    0.6302   23.3648 C   0  0  0  0  0  0  0  0  0  0  0  0
    7.6390   -0.2680   18.5410 C   0  0  0  0  0  0  0  0  0  0  0  0
    6.1790    0.5730   19.9990 C   0  0  0  0  0  0  0  0  0  0  0  0
    9.3350   -1.0880   23.5010 C   0  0  0  0  0  0  0  0  0  0  0  0
   11.3780    1.5657   23.5101 C   0  0  0  0  0  0  0  0  0  0  0  0
    5.8300    0.9190   18.6970 C   0  0  0  0  0  0  0  0  0  0  0  0
    9.3070   -3.5340   24.8780 C   0  0  0  0  0  0  0  0  0  0  0  0
    7.3170   -0.1610   19.8550 C   0  0  0  0  0  0  0  0  0  0  0  0
    9.0420    0.3700   21.5280 C   0  0  0  0  0  0  0  0  0  0  0  0
    7.3637   -6.1365   27.1885 C   0  0  0  0  0  0  0  0  0  0  0  0
    8.1962   -4.9739   27.7340 C   0  0  0  0  0  0  0  0  0  0  0  0
    7.1943   -6.0395   25.6706 C   0  0  0  0  0  0  0  0  0  0  0  0
    9.5197   -4.8493   26.9795 C   0  0  0  0  0  0  0  0  0  0  0  0
    8.5443   -5.8838   24.9636 C   0  0  0  0  0  0  0  0  0  0  0  0
   14.8715    0.7757   23.2396 C   0  0  0  0  0  0  0  0  0  0  0  0
    9.8870    1.3260   23.5730 C   0  0  0  0  0  0  0  0  0  0  0  0
    9.4560    0.1560   22.8130 C   0  0  1  0  0  0  0  0  0  0  0  0
   13.3850    2.6563   23.5026 N   0  0  0  0  0  0  0  0  0  0  0  0
    6.7580    0.3810   17.8350 N   0  0  0  0  0  0  0  0  0  0  0  0
   13.5445    1.3288   23.3666 N   0  0  0  0  0  0  0  0  0  0  0  0
    9.2563   -4.7385   25.5420 N   0  0  0  0  0  0  0  0  0  0  0  0
    8.1890   -0.7180   20.8700 N   0  0  0  0  0  0  0  0  0  0  0  0
    9.2690    1.4140   20.9380 O   0  0  0  0  0  0  0  0  0  0  0  0
    3.6453    2.0152   21.6831 H   0  0  0  0  0  0  0  0  0  0  0  0
    3.0147    2.6520   19.3913 H   0  0  0  0  0  0  0  0  0  0  0  0
    5.6991    0.6995   22.1042 H   0  0  0  0  0  0  0  0  0  0  0  0
    8.9214   -0.1986   25.4206 H   0  0  0  0  0  0  0  0  0  0  0  0
   10.0622   -2.2326   21.8251 H   0  0  0  0  0  0  0  0  0  0  0  0
    4.4051    1.9733   17.4488 H   0  0  0  0  0  0  0  0  0  0  0  0
    8.6882   -2.3542   26.5803 H   0  0  0  0  0  0  0  0  0  0  0  0
    9.9258   -4.3896   22.9914 H   0  0  0  0  0  0  0  0  0  0  0  0
   11.6476    3.7871   23.7088 H   0  0  0  0  0  0  0  0  0  0  0  0
   12.3482   -0.4464   23.2641 H   0  0  0  0  0  0  0  0  0  0  0  0
    8.4825   -0.7940   18.0623 H   0  0  0  0  0  0  0  0  0  0  0  0
    7.8484   -7.0905   27.4464 H   0  0  0  0  0  0  0  0  0  0  0  0
    6.3761   -6.1442   27.6721 H   0  0  0  0  0  0  0  0  0  0  0  0
    7.6308   -4.0428   27.6404 H   0  0  0  0  0  0  0  0  0  0  0  0
    8.3917   -5.1316   28.7967 H   0  0  0  0  0  0  0  0  0  0  0  0
    6.6889   -6.9376   25.3006 H   0  0  0  0  0  0  0  0  0  0  0  0
    6.5516   -5.1860   25.4256 H   0  0  0  0  0  0  0  0  0  0  0  0
   10.0494   -3.9643   27.3413 H   0  0  0  0  0  0  0  0  0  0  0  0
   10.1432   -5.7258   27.1775 H   0  0  0  0  0  0  0  0  0  0  0  0
    9.1338   -6.7931   25.0863 H   0  0  0  0  0  0  0  0  0  0  0  0
    8.3657   -5.7262   23.8995 H   0  0  0  0  0  0  0  0  0  0  0  0
   15.1241    0.7456   22.1764 H   0  0  0  0  0  0  0  0  0  0  0  0
   15.5818    1.4045   23.7836 H   0  0  0  0  0  0  0  0  0  0  0  0
   14.8855   -0.2314   23.6656 H   0  0  0  0  0  0  0  0  0  0  0  0
    9.5760    1.2490   24.6231 H   0  0  0  0  0  0  0  0  0  0  0  0
    9.3844    2.2230   23.1853 H   0  0  0  0  0  0  0  0  0  0  0  0
    8.0674    0.5009   23.2732 H   0  0  0  0  0  0  0  0  0  0  0  0
    6.7266    0.4930   16.8305 H   0  0  0  0  0  0  0  0  0  0  0  0
    8.2585   -1.5522   21.1129 H   0  0  0  0  0  0  0  0  0  0  0  0
  1  2  1  0  0  0  0
  1  3  2  0  0  0  0
  2  6  2  0  0  0  0
  3 12  1  0  0  0  0
  4  7  2  0  0  0  0
  4 13  1  0  0  0  0
  5  8  1  0  0  0  0
  5 13  2  0  0  0  0
  6 15  1  0  0  0  0
  7 16  1  0  0  0  0
  8 16  2  0  0  0  0
  9 14  1  0  0  0  0
  9 27  2  0  0  0  0
 10 14  2  0  0  0  0
 10 29  1  0  0  0  0
 11 17  2  0  0  0  0
 11 28  1  0  0  0  0
 12 15  2  0  0  0  0
 12 17  1  0  0  0  0
 13 26  1  0  0  0  0
 14 25  1  0  0  0  0
 15 28  1  0  0  0  0
 16 30  1  0  0  0  0
 17 31  1  0  0  0  0
 18 26  1  0  0  0  0
 18 31  1  0  0  0  0
 18 32  2  0  0  0  0
 19 20  1  0  0  0  0
 19 21  1  0  0  0  0
 20 22  1  0  0  0  0
 21 23  1  0  0  0  0
 22 30  1  0  0  0  0
 23 30  1  0  0  0  0
 24 29  1  0  0  0  0
 25 26  1  1  0  0  0
 27 29  1  0  0  0  0
  1 33  1  0  0  0  0
  2 34  1  0  0  0  0
  3 35  1  0  0  0  0
  4 36  1  0  0  0  0
  5 37  1  0  0  0  0
  6 38  1  0  0  0  0
  7 39  1  0  0  0  0
  8 40  1  0  0  0  0
  9 41  1  0  0  0  0
 10 42  1  0  0  0  0
 11 43  1  0  0  0  0
 19 44  1  0  0  0  0
 19 45  1  0  0  0  0
 20 46  1  0  0  0  0
 20 47  1  0  0  0  0
 21 48  1  0  0  0  0
 21 49  1  0  0  0  0
 22 50  1  0  0  0  0
 22 51  1  0  0  0  0
 23 52  1  0  0  0  0
 23 53  1  0  0  0  0
 24 54  1  0  0  0  0
 24 55  1  0  0  0  0
 24 56  1  0  0  0  0
 25 57  1  0  0  0  0
 25 58  1  0  0  0  0
 26 59  1  0  0  0  0
 28 60  1  0  0  0  0
 31 61  1  0  0  0  0
M  END
> <clash_score>
0

> <docking_score>
-8.46541690826416

> <overlap_score>
1.0146235227584839

$$$$
BENZO_294_1
  -OEChem-08222022193D

 49 52  0     1  0  0  0  0  0999 V2000
    4.2750    1.7050   20.8490 C   0  0  0  0  0  0  0  0  0  0  0  0
    3.9160    2.0630   19.5520 C   0  0  0  0  0  0  0  0  0  0  0  0
   13.6189    0.6768   23.2648 C   0  0  0  0  0  0  0  0  0  0  0  0
    5.4210    0.9600   21.0930 C   0  0  0  0  0  0  0  0  0  0  0  0
   12.2417    0.4681   23.3367 C   0  0  0  0  0  0  0  0  0  0  0  0
    8.9960   -2.3380   25.5320 C   0  0  0  0  0  0  0  0  0  0  0  0
    9.6730   -3.4710   23.5300 C   0  0  0  0  0  0  0  0  0  0  0  0
    9.0720   -1.1280   24.8640 C   0  0  0  0  0  0  0  0  0  0  0  0
    9.7200   -2.2600   22.8630 C   0  0  0  0  0  0  0  0  0  0  0  0
    4.6890    1.6810   18.4640 C   0  0  0  0  0  0  0  0  0  0  0  0
   14.1339    1.9702   23.3527 C   0  0  0  0  0  0  0  0  0  0  0  0
   11.8943    2.8462   23.5844 C   0  0  0  0  0  0  0  0  0  0  0  0
    7.6390   -0.2680   18.5410 C   0  0  0  0  0  0  0  0  0  0  0  0
    6.1790    0.5730   19.9990 C   0  0  0  0  0  0  0  0  0  0  0  0
    9.3070   -3.5340   24.8780 C   0  0  0  0  0  0  0  0  0  0  0  0
    9.3350   -1.0880   23.5010 C   0  0  0  0  0  0  0  0  0  0  0  0
   11.3794    1.5528   23.4964 C   0  0  0  0  0  0  0  0  0  0  0  0
    5.8300    0.9190   18.6970 C   0  0  0  0  0  0  0  0  0  0  0  0
    7.3170   -0.1610   19.8550 C   0  0  0  0  0  0  0  0  0  0  0  0
   13.2716    3.0548   23.5125 C   0  0  0  0  0  0  0  0  0  0  0  0
    9.0420    0.3700   21.5280 C   0  0  0  0  0  0  0  0  0  0  0  0
    9.2507   -4.8268   25.5895 C   0  0  0  0  0  0  0  0  0  0  0  0
    9.8870    1.3260   23.5730 C   0  0  0  0  0  0  0  0  0  0  0  0
    9.4560    0.1560   22.8130 C   0  0  1  0  0  0  0  0  0  0  0  0
    6.7580    0.3810   17.8350 N   0  0  0  0  0  0  0  0  0  0  0  0
    8.1890   -0.7180   20.8700 N   0  0  0  0  0  0  0  0  0  0  0  0
    9.2690    1.4140   20.9380 O   0  0  0  0  0  0  0  0  0  0  0  0
   13.9075    4.6504   23.6198 Cl  0  0  0  0  0  0  0  0  0  0  0  0
    3.6453    2.0152   21.6831 H   0  0  0  0  0  0  0  0  0  0  0  0
    3.0147    2.6520   19.3913 H   0  0  0  0  0  0  0  0  0  0  0  0
   14.2901   -0.1681   23.1402 H   0  0  0  0  0  0  0  0  0  0  0  0
    5.6991    0.6995   22.1042 H   0  0  0  0  0  0  0  0  0  0  0  0
   11.8492   -0.5431   23.2671 H   0  0  0  0  0  0  0  0  0  0  0  0
    8.6904   -2.3557   26.5808 H   0  0  0  0  0  0  0  0  0  0  0  0
    9.9249   -4.3911   22.9935 H   0  0  0  0  0  0  0  0  0  0  0  0
    8.9209   -0.1987   25.4207 H   0  0  0  0  0  0  0  0  0  0  0  0
   10.0640   -2.2315   21.8255 H   0  0  0  0  0  0  0  0  0  0  0  0
    4.4051    1.9733   17.4488 H   0  0  0  0  0  0  0  0  0  0  0  0
   15.2095    2.1179   23.2949 H   0  0  0  0  0  0  0  0  0  0  0  0
   11.2178    3.6885   23.7094 H   0  0  0  0  0  0  0  0  0  0  0  0
    8.4825   -0.7940   18.0623 H   0  0  0  0  0  0  0  0  0  0  0  0
    8.2506   -5.2684   25.5009 H   0  0  0  0  0  0  0  0  0  0  0  0
    9.9820   -5.5375   25.1832 H   0  0  0  0  0  0  0  0  0  0  0  0
    9.4843   -4.7055   26.6554 H   0  0  0  0  0  0  0  0  0  0  0  0
    9.5854    1.2495   24.6258 H   0  0  0  0  0  0  0  0  0  0  0  0
    9.3886    2.2282   23.1920 H   0  0  0  0  0  0  0  0  0  0  0  0
    8.0686    0.4964   23.2745 H   0  0  0  0  0  0  0  0  0  0  0  0
    6.7266    0.4930   16.8305 H   0  0  0  0  0  0  0  0  0  0  0  0
    8.2408   -1.5631   21.0968 H   0  0  0  0  0  0  0  0  0  0  0  0
  1  2  1  0  0  0  0
  1  4  2  0  0  0  0
  2 10  2  0  0  0  0
  3  5  2  0  0  0  0
  3 11  1  0  0  0  0
  4 14  1  0  0  0  0
  5 17  1  0  0  0  0
  6  8  2  0  0  0  0
  6 15  1  0  0  0  0
  7  9  1  0  0  0  0
  7 15  2  0  0  0  0
  8 16  1  0  0  0  0
  9 16  2  0  0  0  0
 10 18  1  0  0  0  0
 11 20  2  0  0  0  0
 12 17  2  0  0  0  0
 12 20  1  0  0  0  0
 13 19  2  0  0  0  0
 13 25  1  0  0  0  0
 14 18  2  0  0  0  0
 14 19  1  0  0  0  0
 15 22  1  0  0  0  0
 16 24  1  0  0  0  0
 17 23  1  0  0  0  0
 18 25  1  0  0  0  0
 19 26  1  0  0  0  0
 20 28  1  0  0  0  0
 21 24  1  0  0  0  0
 21 26  1  0  0  0  0
 21 27  2  0  0  0  0
 23 24  1  1  0  0  0
  1 29  1  0  0  0  0
  2 30  1  0  0  0  0
  3 31  1  0  0  0  0
  4 32  1  0  0  0  0
  5 33  1  0  0  0  0
  6 34  1  0  0  0  0
  7 35  1  0  0  0  0
  8 36  1  0  0  0  0
  9 37  1  0  0  0  0
 10 38  1  0  0  0  0
 11 39  1  0  0  0  0
 12 40  1  0  0  0  0
 13 41  1  0  0  0  0
 22 42  1  0  0  0  0
 22 43  1  0  0  0  0
 22 44  1  0  0  0  0
 23 45  1  0  0  0  0
 23 46  1  0  0  0  0
 24 47  1  0  0  0  0
 25 48  1  0  0  0  0
 26 49  1  0  0  0  0
M  END
> <clash_score>
0

> <docking_score>
-8.45614242553711

> <overlap_score>
0.9629614949226379

$$$$
BENZO_294_2
  -OEChem-08222022193D

 49 52  0     1  0  0  0  0  0999 V2000
    4.2750    1.7050   20.8490 C   0  0  0  0  0  0  0  0  0  0  0  0
    3.9160    2.0630   19.5520 C   0  0  0  0  0  0  0  0  0  0  0  0
   13.2976    2.5464   22.4232 C   0  0  0  0  0  0  0  0  0  0  0  0
    5.4210    0.9600   21.0930 C   0  0  0  0  0  0  0  0  0  0  0  0
   12.3059    1.8167   23.0786 C   0  0  0  0  0  0  0  0  0  0  0  0
    8.9960   -2.3380   25.5320 C   0  0  0  0  0  0  0  0  0  0  0  0
    9.6730   -3.4710   23.5300 C   0  0  0  0  0  0  0  0  0  0  0  0
    9.0720   -1.1280   24.8640 C   0  0  0  0  0  0  0  0  0  0  0  0
    9.7200   -2.2600   22.8630 C   0  0  0  0  0  0  0  0  0  0  0  0
    4.6890    1.6810   18.4640 C   0  0  0  0  0  0  0  0  0  0  0  0
   12.9446    3.5776   21.5528 C   0  0  0  0  0  0  0  0  0  0  0  0
   10.6080    3.1492   21.9930 C   0  0  0  0  0  0  0  0  0  0  0  0
    7.6390   -0.2680   18.5410 C   0  0  0  0  0  0  0  0  0  0  0  0
    6.1790    0.5730   19.9990 C   0  0  0  0  0  0  0  0  0  0  0  0
    9.3070   -3.5340   24.8780 C   0  0  0  0  0  0  0  0  0  0  0  0
    9.3350   -1.0880   23.5010 C   0  0  0  0  0  0  0  0  0  0  0  0
   10.9611    2.1180   22.8635 C   0  0  0  0  0  0  0  0  0  0  0  0
    5.8300    0.9190   18.6970 C   0  0  0  0  0  0  0  0  0  0  0  0
    7.3170   -0.1610   19.8550 C   0  0  0  0  0  0  0  0  0  0  0  0
   11.5998    3.8790   21.3377 C   0  0  0  0  0  0  0  0  0  0  0  0
    9.0420    0.3700   21.5280 C   0  0  0  0  0  0  0  0  0  0  0  0
    9.2507   -4.8268   25.5895 C   0  0  0  0  0  0  0  0  0  0  0  0
    9.8870    1.3260   23.5730 C   0  0  0  0  0  0  0  0  0  0  0  0
    9.4560    0.1560   22.8130 C   0  0  2  0  0  0  0  0  0  0  0  0
    6.7580    0.3810   17.8350 N   0  0  0  0  0  0  0  0  0  0  0  0
    8.1890   -0.7180   20.8700 N   0  0  0  0  0  0  0  0  0  0  0  0
    9.2690    1.4140   20.9380 O   0  0  0  0  0  0  0  0  0  0  0  0
   11.1647    5.1506   20.2627 Cl  0  0  0  0  0  0  0  0  0  0  0  0
    3.6453    2.0152   21.6831 H   0  0  0  0  0  0  0  0  0  0  0  0
    3.0147    2.6520   19.3913 H   0  0  0  0  0  0  0  0  0  0  0  0
   14.3448    2.3113   22.5909 H   0  0  0  0  0  0  0  0  0  0  0  0
    5.6991    0.6995   22.1042 H   0  0  0  0  0  0  0  0  0  0  0  0
   12.5902    1.0148   23.7550 H   0  0  0  0  0  0  0  0  0  0  0  0
    8.6904   -2.3557   26.5808 H   0  0  0  0  0  0  0  0  0  0  0  0
    9.9249   -4.3911   22.9935 H   0  0  0  0  0  0  0  0  0  0  0  0
    8.9209   -0.1987   25.4207 H   0  0  0  0  0  0  0  0  0  0  0  0
   10.0640   -2.2315   21.8255 H   0  0  0  0  0  0  0  0  0  0  0  0
    4.4051    1.9733   17.4488 H   0  0  0  0  0  0  0  0  0  0  0  0
   13.7282    4.1378   21.0487 H   0  0  0  0  0  0  0  0  0  0  0  0
    9.5581    3.3806   21.8290 H   0  0  0  0  0  0  0  0  0  0  0  0
    8.4825   -0.7940   18.0623 H   0  0  0  0  0  0  0  0  0  0  0  0
    8.2506   -5.2684   25.5009 H   0  0  0  0  0  0  0  0  0  0  0  0
    9.9820   -5.5375   25.1832 H   0  0  0  0  0  0  0  0  0  0  0  0
    9.4843   -4.7055   26.6554 H   0  0  0  0  0  0  0  0  0  0  0  0
   10.2455    1.0419   24.5710 H   0  0  0  0  0  0  0  0  0  0  0  0
    9.0345    1.9965   23.7496 H   0  0  0  0  0  0  0  0  0  0  0  0
   10.7927   -0.1029   22.4279 H   0  0  0  0  0  0  0  0  0  0  0  0
    6.7266    0.4930   16.8305 H   0  0  0  0  0  0  0  0  0  0  0  0
    8.2408   -1.5631   21.0968 H   0  0  0  0  0  0  0  0  0  0  0  0
  1  2  1  0  0  0  0
  1  4  2  0  0  0  0
  2 10  2  0  0  0  0
  3  5  2  0  0  0  0
  3 11  1  0  0  0  0
  4 14  1  0  0  0  0
  5 17  1  0  0  0  0
  6  8  2  0  0  0  0
  6 15  1  0  0  0  0
  7  9  1  0  0  0  0
  7 15  2  0  0  0  0
  8 16  1  0  0  0  0
  9 16  2  0  0  0  0
 10 18  1  0  0  0  0
 11 20  2  0  0  0  0
 12 17  2  0  0  0  0
 12 20  1  0  0  0  0
 13 19  2  0  0  0  0
 13 25  1  0  0  0  0
 14 18  2  0  0  0  0
 14 19  1  0  0  0  0
 15 22  1  0  0  0  0
 16 24  1  0  0  0  0
 17 23  1  0  0  0  0
 18 25  1  0  0  0  0
 19 26  1  0  0  0  0
 20 28  1  0  0  0  0
 21 24  1  0  0  0  0
 21 26  1  0  0  0  0
 21 27  2  0  0  0  0
 23 24  1  6  0  0  0
  1 29  1  0  0  0  0
  2 30  1  0  0  0  0
  3 31  1  0  0  0  0
  4 32  1  0  0  0  0
  5 33  1  0  0  0  0
  6 34  1  0  0  0  0
  7 35  1  0  0  0  0
  8 36  1  0  0  0  0
  9 37  1  0  0  0  0
 10 38  1  0  0  0  0
 11 39  1  0  0  0  0
 12 40  1  0  0  0  0
 13 41  1  0  0  0  0
 22 42  1  0  0  0  0
 22 43  1  0  0  0  0
 22 44  1  0  0  0  0
 23 45  1  0  0  0  0
 23 46  1  0  0  0  0
 24 47  1  0  0  0  0
 25 48  1  0  0  0  0
 26 49  1  0  0  0  0
M  END
> <clash_score>
2.21029397887869

> <docking_score>
-7.958028793334961

> <overlap_score>
0.91526859998703

$$$$
BENZO_295_2
  -OEChem-08222022193D

 49 52  0     1  0  0  0  0  0999 V2000
    4.2750    1.7050   20.8490 C   0  0  0  0  0  0  0  0  0  0  0  0
    3.9160    2.0630   19.5520 C   0  0  0  0  0  0  0  0  0  0  0  0
    5.4210    0.9600   21.0930 C   0  0  0  0  0  0  0  0  0  0  0  0
    8.9960   -2.3380   25.5320 C   0  0  0  0  0  0  0  0  0  0  0  0
    9.6730   -3.4710   23.5300 C   0  0  0  0  0  0  0  0  0  0  0  0
    9.0720   -1.1280   24.8640 C   0  0  0  0  0  0  0  0  0  0  0  0
    9.7200   -2.2600   22.8630 C   0  0  0  0  0  0  0  0  0  0  0  0
    4.6890    1.6810   18.4640 C   0  0  0  0  0  0  0  0  0  0  0  0
   12.3565    1.9564   22.9554 C   0  0  0  0  0  0  0  0  0  0  0  0
   10.7932    3.1569   21.9808 C   0  0  0  0  0  0  0  0  0  0  0  0
    7.6390   -0.2680   18.5410 C   0  0  0  0  0  0  0  0  0  0  0  0
    6.1790    0.5730   19.9990 C   0  0  0  0  0  0  0  0  0  0  0  0
    9.3070   -3.5340   24.8780 C   0  0  0  0  0  0  0  0  0  0  0  0
    9.3350   -1.0880   23.5010 C   0  0  0  0  0  0  0  0  0  0  0  0
   10.9611    2.1180   22.8635 C   0  0  0  0  0  0  0  0  0  0  0  0
    5.8300    0.9190   18.6970 C   0  0  0  0  0  0  0  0  0  0  0  0
    7.3170   -0.1610   19.8550 C   0  0  0  0  0  0  0  0  0  0  0  0
    9.0420    0.3700   21.5280 C   0  0  0  0  0  0  0  0  0  0  0  0
    9.2507   -4.8268   25.5895 C   0  0  0  0  0  0  0  0  0  0  0  0
   12.3862    4.6002   20.6932 C   0  0  0  0  0  0  0  0  0  0  0  0
    9.8870    1.3260   23.5730 C   0  0  0  0  0  0  0  0  0  0  0  0
    9.4560    0.1560   22.8130 C   0  0  2  0  0  0  0  0  0  0  0  0
   13.0274    2.8231   22.1920 N   0  0  0  0  0  0  0  0  0  0  0  0
    6.7580    0.3810   17.8350 N   0  0  0  0  0  0  0  0  0  0  0  0
   12.0493    3.5392   21.6118 N   0  0  0  0  0  0  0  0  0  0  0  0
    8.1890   -0.7180   20.8700 N   0  0  0  0  0  0  0  0  0  0  0  0
    9.2690    1.4140   20.9380 O   0  0  0  0  0  0  0  0  0  0  0  0
    3.6453    2.0152   21.6831 H   0  0  0  0  0  0  0  0  0  0  0  0
    3.0147    2.6520   19.3913 H   0  0  0  0  0  0  0  0  0  0  0  0
    5.6991    0.6995   22.1042 H   0  0  0  0  0  0  0  0  0  0  0  0
    8.6904   -2.3557   26.5808 H   0  0  0  0  0  0  0  0  0  0  0  0
    9.9249   -4.3911   22.9935 H   0  0  0  0  0  0  0  0  0  0  0  0
    8.9209   -0.1987   25.4207 H   0  0  0  0  0  0  0  0  0  0  0  0
   10.0640   -2.2315   21.8255 H   0  0  0  0  0  0  0  0  0  0  0  0
    4.4051    1.9733   17.4488 H   0  0  0  0  0  0  0  0  0  0  0  0
   12.9148    1.2434   23.5455 H   0  0  0  0  0  0  0  0  0  0  0  0
    9.9088    3.6436   21.5925 H   0  0  0  0  0  0  0  0  0  0  0  0
    8.4825   -0.7940   18.0623 H   0  0  0  0  0  0  0  0  0  0  0  0
    8.2506   -5.2684   25.5009 H   0  0  0  0  0  0  0  0  0  0  0  0
    9.9820   -5.5375   25.1832 H   0  0  0  0  0  0  0  0  0  0  0  0
    9.4843   -4.7055   26.6554 H   0  0  0  0  0  0  0  0  0  0  0  0
   12.4913    5.5238   21.2686 H   0  0  0  0  0  0  0  0  0  0  0  0
   13.3235    4.3577   20.1848 H   0  0  0  0  0  0  0  0  0  0  0  0
   11.5908    4.7003   19.9494 H   0  0  0  0  0  0  0  0  0  0  0  0
   10.2455    1.0419   24.5710 H   0  0  0  0  0  0  0  0  0  0  0  0
    9.0345    1.9965   23.7496 H   0  0  0  0  0  0  0  0  0  0  0  0
   10.7927   -0.1029   22.4279 H   0  0  0  0  0  0  0  0  0  0  0  0
    6.7266    0.4930   16.8305 H   0  0  0  0  0  0  0  0  0  0  0  0
    8.2408   -1.5631   21.0968 H   0  0  0  0  0  0  0  0  0  0  0  0
  1  2  1  0  0  0  0
  1  3  2  0  0  0  0
  2  8  2  0  0  0  0
  3 12  1  0  0  0  0
  4  6  2  0  0  0  0
  4 13  1  0  0  0  0
  5  7  1  0  0  0  0
  5 13  2  0  0  0  0
  6 14  1  0  0  0  0
  7 14  2  0  0  0  0
  8 16  1  0  0  0  0
  9 15  1  0  0  0  0
  9 23  2  0  0  0  0
 10 15  2  0  0  0  0
 10 25  1  0  0  0  0
 11 17  2  0  0  0  0
 11 24  1  0  0  0  0
 12 16  2  0  0  0  0
 12 17  1  0  0  0  0
 13 19  1  0  0  0  0
 14 22  1  0  0  0  0
 15 21  1  0  0  0  0
 16 24  1  0  0  0  0
 17 26  1  0  0  0  0
 18 22  1  0  0  0  0
 18 26  1  0  0  0  0
 18 27  2  0  0  0  0
 20 25  1  0  0  0  0
 21 22  1  6  0  0  0
 23 25  1  0  0  0  0
  1 28  1  0  0  0  0
  2 29  1  0  0  0  0
  3 30  1  0  0  0  0
  4 31  1  0  0  0  0
  5 32  1  0  0  0  0
  6 33  1  0  0  0  0
  7 34  1  0  0  0  0
  8 35  1  0  0  0  0
  9 36  1  0  0  0  0
 10 37  1  0  0  0  0
 11 38  1  0  0  0  0
 19 39  1  0  0  0  0
 19 40  1  0  0  0  0
 19 41  1  0  0  0  0
 20 42  1  0  0  0  0
 20 43  1  0  0  0  0
 20 44  1  0  0  0  0
 21 45  1  0  0  0  0
 21 46  1  0  0  0  0
 22 47  1  0  0  0  0
 24 48  1  0  0  0  0
 26 49  1  0  0  0  0
M  END
> <clash_score>
0

> <docking_score>
-7.422852993011475

> <overlap_score>
0.9096472263336182

$$$$
BENZO_295_1
  -OEChem-08222022193D

 49 52  0     1  0  0  0  0  0999 V2000
    4.2750    1.7050   20.8490 C   0  0  0  0  0  0  0  0  0  0  0  0
    3.9160    2.0630   19.5520 C   0  0  0  0  0  0  0  0  0  0  0  0
    5.4210    0.9600   21.0930 C   0  0  0  0  0  0  0  0  0  0  0  0
    8.9960   -2.3380   25.5320 C   0  0  0  0  0  0  0  0  0  0  0  0
    9.6730   -3.4710   23.5300 C   0  0  0  0  0  0  0  0  0  0  0  0
    9.0720   -1.1280   24.8640 C   0  0  0  0  0  0  0  0  0  0  0  0
    9.7200   -2.2600   22.8630 C   0  0  0  0  0  0  0  0  0  0  0  0
    4.6890    1.6810   18.4640 C   0  0  0  0  0  0  0  0  0  0  0  0
   12.0720    2.7762   23.5689 C   0  0  0  0  0  0  0  0  0  0  0  0
   12.3651    0.6087   23.3429 C   0  0  0  0  0  0  0  0  0  0  0  0
    7.6390   -0.2680   18.5410 C   0  0  0  0  0  0  0  0  0  0  0  0
    6.1790    0.5730   19.9990 C   0  0  0  0  0  0  0  0  0  0  0  0
    9.3070   -3.5340   24.8780 C   0  0  0  0  0  0  0  0  0  0  0  0
    9.3350   -1.0880   23.5010 C   0  0  0  0  0  0  0  0  0  0  0  0
   11.3794    1.5528   23.4964 C   0  0  0  0  0  0  0  0  0  0  0  0
    5.8300    0.9190   18.6970 C   0  0  0  0  0  0  0  0  0  0  0  0
    7.3170   -0.1610   19.8550 C   0  0  0  0  0  0  0  0  0  0  0  0
    9.0420    0.3700   21.5280 C   0  0  0  0  0  0  0  0  0  0  0  0
    9.2507   -4.8268   25.5895 C   0  0  0  0  0  0  0  0  0  0  0  0
   14.8634    0.7326   23.1949 C   0  0  0  0  0  0  0  0  0  0  0  0
    9.8870    1.3260   23.5730 C   0  0  0  0  0  0  0  0  0  0  0  0
    9.4560    0.1560   22.8130 C   0  0  1  0  0  0  0  0  0  0  0  0
   13.3955    2.6261   23.4698 N   0  0  0  0  0  0  0  0  0  0  0  0
    6.7580    0.3810   17.8350 N   0  0  0  0  0  0  0  0  0  0  0  0
   13.5424    1.2972   23.3335 N   0  0  0  0  0  0  0  0  0  0  0  0
    8.1890   -0.7180   20.8700 N   0  0  0  0  0  0  0  0  0  0  0  0
    9.2690    1.4140   20.9380 O   0  0  0  0  0  0  0  0  0  0  0  0
    3.6453    2.0152   21.6831 H   0  0  0  0  0  0  0  0  0  0  0  0
    3.0147    2.6520   19.3913 H   0  0  0  0  0  0  0  0  0  0  0  0
    5.6991    0.6995   22.1042 H   0  0  0  0  0  0  0  0  0  0  0  0
    8.6904   -2.3557   26.5808 H   0  0  0  0  0  0  0  0  0  0  0  0
    9.9249   -4.3911   22.9935 H   0  0  0  0  0  0  0  0  0  0  0  0
    8.9209   -0.1987   25.4207 H   0  0  0  0  0  0  0  0  0  0  0  0
   10.0640   -2.2315   21.8255 H   0  0  0  0  0  0  0  0  0  0  0  0
    4.4051    1.9733   17.4488 H   0  0  0  0  0  0  0  0  0  0  0  0
   11.6698    3.7720   23.6907 H   0  0  0  0  0  0  0  0  0  0  0  0
   12.3300   -0.4677   23.2433 H   0  0  0  0  0  0  0  0  0  0  0  0
    8.4825   -0.7940   18.0623 H   0  0  0  0  0  0  0  0  0  0  0  0
    8.2506   -5.2684   25.5009 H   0  0  0  0  0  0  0  0  0  0  0  0
    9.9820   -5.5375   25.1832 H   0  0  0  0  0  0  0  0  0  0  0  0
    9.4843   -4.7055   26.6554 H   0  0  0  0  0  0  0  0  0  0  0  0
   15.1060    0.6995   22.1295 H   0  0  0  0  0  0  0  0  0  0  0  0
   15.5839    1.3558   23.7319 H   0  0  0  0  0  0  0  0  0  0  0  0
   14.8726   -0.2742   23.6217 H   0  0  0  0  0  0  0  0  0  0  0  0
    9.5854    1.2495   24.6258 H   0  0  0  0  0  0  0  0  0  0  0  0
    9.3886    2.2282   23.1920 H   0  0  0  0  0  0  0  0  0  0  0  0
    8.0686    0.4964   23.2745 H   0  0  0  0  0  0  0  0  0  0  0  0
    6.7266    0.4930   16.8305 H   0  0  0  0  0  0  0  0  0  0  0  0
    8.2408   -1.5631   21.0968 H   0  0  0  0  0  0  0  0  0  0  0  0
  1  2  1  0  0  0  0
  1  3  2  0  0  0  0
  2  8  2  0  0  0  0
  3 12  1  0  0  0  0
  4  6  2  0  0  0  0
  4 13  1  0  0  0  0
  5  7  1  0  0  0  0
  5 13  2  0  0  0  0
  6 14  1  0  0  0  0
  7 14  2  0  0  0  0
  8 16  1  0  0  0  0
  9 15  1  0  0  0  0
  9 23  2  0  0  0  0
 10 15  2  0  0  0  0
 10 25  1  0  0  0  0
 11 17  2  0  0  0  0
 11 24  1  0  0  0  0
 12 16  2  0  0  0  0
 12 17  1  0  0  0  0
 13 19  1  0  0  0  0
 14 22  1  0  0  0  0
 15 21  1  0  0  0  0
 16 24  1  0  0  0  0
 17 26  1  0  0  0  0
 18 22  1  0  0  0  0
 18 26  1  0  0  0  0
 18 27  2  0  0  0  0
 20 25  1  0  0  0  0
 21 22  1  1  0  0  0
 23 25  1  0  0  0  0
  1 28  1  0  0  0  0
  2 29  1  0  0  0  0
  3 30  1  0  0  0  0
  4 31  1  0  0  0  0
  5 32  1  0  0  0  0
  6 33  1  0  0  0  0
  7 34  1  0  0  0  0
  8 35  1  0  0  0  0
  9 36  1  0  0  0  0
 10 37  1  0  0  0  0
 11 38  1  0  0  0  0
 19 39  1  0  0  0  0
 19 40  1  0  0  0  0
 19 41  1  0  0  0  0
 20 42  1  0  0  0  0
 20 43  1  0  0  0  0
 20 44  1  0  0  0  0
 21 45  1  0  0  0  0
 21 46  1  0  0  0  0
 22 47  1  0  0  0  0
 24 48  1  0  0  0  0
 26 49  1  0  0  0  0
M  END
> <clash_score>
0

> <docking_score>
-8.787413597106934

> <overlap_score>
0.961719810962677

$$$$
BENZO_296_1
  -OEChem-08222022193D

 47 50  0     1  0  0  0  0  0999 V2000
    4.2750    1.7050   20.8490 C   0  0  0  0  0  0  0  0  0  0  0  0
    3.9160    2.0630   19.5520 C   0  0  0  0  0  0  0  0  0  0  0  0
    5.4210    0.9600   21.0930 C   0  0  0  0  0  0  0  0  0  0  0  0
    9.0720   -1.1280   24.8640 C   0  0  0  0  0  0  0  0  0  0  0  0
    9.7200   -2.2600   22.8630 C   0  0  0  0  0  0  0  0  0  0  0  0
    4.6890    1.6810   18.4640 C   0  0  0  0  0  0  0  0  0  0  0  0
    8.9960   -2.3380   25.5320 C   0  0  0  0  0  0  0  0  0  0  0  0
    9.6730   -3.4710   23.5300 C   0  0  0  0  0  0  0  0  0  0  0  0
   12.3398    0.5029   23.4216 C   0  0  0  0  0  0  0  0  0  0  0  0
    7.6390   -0.2680   18.5410 C   0  0  0  0  0  0  0  0  0  0  0  0
   13.6291    0.9844   23.3622 C   0  0  0  0  0  0  0  0  0  0  0  0
   11.9713    2.7968   23.4917 C   0  0  0  0  0  0  0  0  0  0  0  0
    6.1790    0.5730   19.9990 C   0  0  0  0  0  0  0  0  0  0  0  0
    9.3350   -1.0880   23.5010 C   0  0  0  0  0  0  0  0  0  0  0  0
   11.3794    1.5528   23.4964 C   0  0  0  0  0  0  0  0  0  0  0  0
    5.8300    0.9190   18.6970 C   0  0  0  0  0  0  0  0  0  0  0  0
    7.3170   -0.1610   19.8550 C   0  0  0  0  0  0  0  0  0  0  0  0
    9.3070   -3.5340   24.8780 C   0  0  0  0  0  0  0  0  0  0  0  0
    9.0420    0.3700   21.5280 C   0  0  0  0  0  0  0  0  0  0  0  0
    9.5904   -5.8808   24.7807 C   0  0  0  0  0  0  0  0  0  0  0  0
    9.8870    1.3260   23.5730 C   0  0  0  0  0  0  0  0  0  0  0  0
    9.4560    0.1560   22.8130 C   0  0  1  0  0  0  0  0  0  0  0  0
    6.7580    0.3810   17.8350 N   0  0  0  0  0  0  0  0  0  0  0  0
    8.1890   -0.7180   20.8700 N   0  0  0  0  0  0  0  0  0  0  0  0
    9.2690    1.4140   20.9380 O   0  0  0  0  0  0  0  0  0  0  0  0
    9.2567   -4.7121   25.5280 O   0  0  0  0  0  0  0  0  0  0  0  0
   13.6781    2.6957   23.3969 S   0  0  0  0  0  0  0  0  0  0  0  0
    3.6453    2.0152   21.6831 H   0  0  0  0  0  0  0  0  0  0  0  0
    3.0147    2.6520   19.3913 H   0  0  0  0  0  0  0  0  0  0  0  0
    5.6991    0.6995   22.1042 H   0  0  0  0  0  0  0  0  0  0  0  0
    8.9224   -0.1986   25.4209 H   0  0  0  0  0  0  0  0  0  0  0  0
   10.0638   -2.2321   21.8253 H   0  0  0  0  0  0  0  0  0  0  0  0
    4.4051    1.9733   17.4488 H   0  0  0  0  0  0  0  0  0  0  0  0
    8.6903   -2.3588   26.5807 H   0  0  0  0  0  0  0  0  0  0  0  0
    9.9258   -4.3917   22.9962 H   0  0  0  0  0  0  0  0  0  0  0  0
   12.1014   -0.5532   23.4119 H   0  0  0  0  0  0  0  0  0  0  0  0
    8.4825   -0.7940   18.0623 H   0  0  0  0  0  0  0  0  0  0  0  0
   14.5445    0.4131   23.3009 H   0  0  0  0  0  0  0  0  0  0  0  0
   11.4871    3.7623   23.5403 H   0  0  0  0  0  0  0  0  0  0  0  0
    9.5095   -6.7607   25.4235 H   0  0  0  0  0  0  0  0  0  0  0  0
   10.6094   -5.7898   24.3961 H   0  0  0  0  0  0  0  0  0  0  0  0
    8.8947   -5.9784   23.9439 H   0  0  0  0  0  0  0  0  0  0  0  0
    9.5854    1.2495   24.6258 H   0  0  0  0  0  0  0  0  0  0  0  0
    9.3886    2.2282   23.1920 H   0  0  0  0  0  0  0  0  0  0  0  0
    8.0686    0.4964   23.2745 H   0  0  0  0  0  0  0  0  0  0  0  0
    6.7266    0.4930   16.8305 H   0  0  0  0  0  0  0  0  0  0  0  0
    8.2408   -1.5631   21.0968 H   0  0  0  0  0  0  0  0  0  0  0  0
  1  2  1  0  0  0  0
  1  3  2  0  0  0  0
  2  6  2  0  0  0  0
  3 13  1  0  0  0  0
  4  7  2  0  0  0  0
  4 14  1  0  0  0  0
  5  8  1  0  0  0  0
  5 14  2  0  0  0  0
  6 16  1  0  0  0  0
  7 18  1  0  0  0  0
  8 18  2  0  0  0  0
  9 11  2  0  0  0  0
  9 15  1  0  0  0  0
 10 17  2  0  0  0  0
 10 23  1  0  0  0  0
 11 27  1  0  0  0  0
 12 15  2  0  0  0  0
 12 27  1  0  0  0  0
 13 16  2  0  0  0  0
 13 17  1  0  0  0  0
 14 22  1  0  0  0  0
 15 21  1  0  0  0  0
 16 23  1  0  0  0  0
 17 24  1  0  0  0  0
 18 26  1  0  0  0  0
 19 22  1  0  0  0  0
 19 24  1  0  0  0  0
 19 25  2  0  0  0  0
 20 26  1  0  0  0  0
 21 22  1  1  0  0  0
  1 28  1  0  0  0  0
  2 29  1  0  0  0  0
  3 30  1  0  0  0  0
  4 31  1  0  0  0  0
  5 32  1  0  0  0  0
  6 33  1  0  0  0  0
  7 34  1  0  0  0  0
  8 35  1  0  0  0  0
  9 36  1  0  0  0  0
 10 37  1  0  0  0  0
 11 38  1  0  0  0  0
 12 39  1  0  0  0  0
 20 40  1  0  0  0  0
 20 41  1  0  0  0  0
 20 42  1  0  0  0  0
 21 43  1  0  0  0  0
 21 44  1  0  0  0  0
 22 45  1  0  0  0  0
 23 46  1  0  0  0  0
 24 47  1  0  0  0  0
M  END
> <clash_score>
0

> <docking_score>
-8.91787338256836

> <overlap_score>
0.9702754616737366

$$$$
BENZO_297_1
  -OEChem-08222022193D

 50 53  0     1  0  0  0  0  0999 V2000
   14.1341    1.9700   23.3555 C   0  0  0  0  0  0  0  0  0  0  0  0
    4.2750    1.7050   20.8490 C   0  0  0  0  0  0  0  0  0  0  0  0
   13.2717    3.0548   23.5141 C   0  0  0  0  0  0  0  0  0  0  0  0
   13.6192    0.6767   23.2672 C   0  0  0  0  0  0  0  0  0  0  0  0
    3.9160    2.0630   19.5520 C   0  0  0  0  0  0  0  0  0  0  0  0
    5.4210    0.9600   21.0930 C   0  0  0  0  0  0  0  0  0  0  0  0
   11.8943    2.8462   23.5846 C   0  0  0  0  0  0  0  0  0  0  0  0
   12.2418    0.4681   23.3377 C   0  0  0  0  0  0  0  0  0  0  0  0
    9.0720   -1.1280   24.8640 C   0  0  0  0  0  0  0  0  0  0  0  0
    9.7200   -2.2600   22.8630 C   0  0  0  0  0  0  0  0  0  0  0  0
    4.6890    1.6810   18.4640 C   0  0  0  0  0  0  0  0  0  0  0  0
    8.9960   -2.3380   25.5320 C   0  0  0  0  0  0  0  0  0  0  0  0
    9.6730   -3.4710   23.5300 C   0  0  0  0  0  0  0  0  0  0  0  0
    7.6390   -0.2680   18.5410 C   0  0  0  0  0  0  0  0  0  0  0  0
    6.1790    0.5730   19.9990 C   0  0  0  0  0  0  0  0  0  0  0  0
   11.3794    1.5528   23.4964 C   0  0  0  0  0  0  0  0  0  0  0  0
    9.3350   -1.0880   23.5010 C   0  0  0  0  0  0  0  0  0  0  0  0
    5.8300    0.9190   18.6970 C   0  0  0  0  0  0  0  0  0  0  0  0
    7.3170   -0.1610   19.8550 C   0  0  0  0  0  0  0  0  0  0  0  0
    9.3070   -3.5340   24.8780 C   0  0  0  0  0  0  0  0  0  0  0  0
    9.0420    0.3700   21.5280 C   0  0  0  0  0  0  0  0  0  0  0  0
    8.8744   -4.6797   26.9022 C   0  0  0  0  0  0  0  0  0  0  0  0
    9.8870    1.3260   23.5730 C   0  0  0  0  0  0  0  0  0  0  0  0
    9.4560    0.1560   22.8130 C   0  0  1  0  0  0  0  0  0  0  0  0
    6.7580    0.3810   17.8350 N   0  0  0  0  0  0  0  0  0  0  0  0
    8.1890   -0.7180   20.8700 N   0  0  0  0  0  0  0  0  0  0  0  0
    9.2690    1.4140   20.9380 O   0  0  0  0  0  0  0  0  0  0  0  0
    9.2567   -4.7121   25.5280 O   0  0  0  0  0  0  0  0  0  0  0  0
   15.2065    2.1328   23.2992 H   0  0  0  0  0  0  0  0  0  0  0  0
    3.6453    2.0152   21.6831 H   0  0  0  0  0  0  0  0  0  0  0  0
   13.6724    4.0620   23.5817 H   0  0  0  0  0  0  0  0  0  0  0  0
   14.2903   -0.1680   23.1426 H   0  0  0  0  0  0  0  0  0  0  0  0
    3.0147    2.6520   19.3913 H   0  0  0  0  0  0  0  0  0  0  0  0
    5.6991    0.6995   22.1042 H   0  0  0  0  0  0  0  0  0  0  0  0
   11.2299    3.6973   23.7085 H   0  0  0  0  0  0  0  0  0  0  0  0
   11.8496   -0.5431   23.2682 H   0  0  0  0  0  0  0  0  0  0  0  0
    8.9224   -0.1986   25.4209 H   0  0  0  0  0  0  0  0  0  0  0  0
   10.0638   -2.2321   21.8253 H   0  0  0  0  0  0  0  0  0  0  0  0
    4.4051    1.9733   17.4488 H   0  0  0  0  0  0  0  0  0  0  0  0
    8.6903   -2.3588   26.5807 H   0  0  0  0  0  0  0  0  0  0  0  0
    9.9258   -4.3917   22.9962 H   0  0  0  0  0  0  0  0  0  0  0  0
    8.4825   -0.7940   18.0623 H   0  0  0  0  0  0  0  0  0  0  0  0
    8.8744   -5.6954   27.3053 H   0  0  0  0  0  0  0  0  0  0  0  0
    7.8781   -4.2399   26.9939 H   0  0  0  0  0  0  0  0  0  0  0  0
    9.5920   -4.0702   27.4565 H   0  0  0  0  0  0  0  0  0  0  0  0
    9.5854    1.2495   24.6258 H   0  0  0  0  0  0  0  0  0  0  0  0
    9.3886    2.2282   23.1920 H   0  0  0  0  0  0  0  0  0  0  0  0
    8.0686    0.4964   23.2745 H   0  0  0  0  0  0  0  0  0  0  0  0
    6.7266    0.4930   16.8305 H   0  0  0  0  0  0  0  0  0  0  0  0
    8.2408   -1.5631   21.0968 H   0  0  0  0  0  0  0  0  0  0  0  0
  1  3  1  0  0  0  0
  1  4  2  0  0  0  0
  2  5  1  0  0  0  0
  2  6  2  0  0  0  0
  3  7  2  0  0  0  0
  4  8  1  0  0  0  0
  5 11  2  0  0  0  0
  6 15  1  0  0  0  0
  7 16  1  0  0  0  0
  8 16  2  0  0  0  0
  9 12  2  0  0  0  0
  9 17  1  0  0  0  0
 10 13  1  0  0  0  0
 10 17  2  0  0  0  0
 11 18  1  0  0  0  0
 12 20  1  0  0  0  0
 13 20  2  0  0  0  0
 14 19  2  0  0  0  0
 14 25  1  0  0  0  0
 15 18  2  0  0  0  0
 15 19  1  0  0  0  0
 16 23  1  0  0  0  0
 17 24  1  0  0  0  0
 18 25  1  0  0  0  0
 19 26  1  0  0  0  0
 20 28  1  0  0  0  0
 21 24  1  0  0  0  0
 21 26  1  0  0  0  0
 21 27  2  0  0  0  0
 22 28  1  0  0  0  0
 23 24  1  1  0  0  0
  1 29  1  0  0  0  0
  2 30  1  0  0  0  0
  3 31  1  0  0  0  0
  4 32  1  0  0  0  0
  5 33  1  0  0  0  0
  6 34  1  0  0  0  0
  7 35  1  0  0  0  0
  8 36  1  0  0  0  0
  9 37  1  0  0  0  0
 10 38  1  0  0  0  0
 11 39  1  0  0  0  0
 12 40  1  0  0  0  0
 13 41  1  0  0  0  0
 14 42  1  0  0  0  0
 22 43  1  0  0  0  0
 22 44  1  0  0  0  0
 22 45  1  0  0  0  0
 23 46  1  0  0  0  0
 23 47  1  0  0  0  0
 24 48  1  0  0  0  0
 25 49  1  0  0  0  0
 26 50  1  0  0  0  0
M  END
> <clash_score>
0

> <docking_score>
-8.48118782043457

> <overlap_score>
0.9831551909446716

$$$$
BENZO_297_2
  -OEChem-08222022193D

 50 53  0     1  0  0  0  0  0999 V2000
   12.9427    3.5803   21.5528 C   0  0  0  0  0  0  0  0  0  0  0  0
    4.2750    1.7050   20.8490 C   0  0  0  0  0  0  0  0  0  0  0  0
   13.2971    2.5494   22.4231 C   0  0  0  0  0  0  0  0  0  0  0  0
   11.5975    3.8801   21.3380 C   0  0  0  0  0  0  0  0  0  0  0  0
    3.9160    2.0630   19.5520 C   0  0  0  0  0  0  0  0  0  0  0  0
    5.4210    0.9600   21.0930 C   0  0  0  0  0  0  0  0  0  0  0  0
   12.3064    1.8183   23.0784 C   0  0  0  0  0  0  0  0  0  0  0  0
   10.6067    3.1489   21.9933 C   0  0  0  0  0  0  0  0  0  0  0  0
    9.0720   -1.1280   24.8640 C   0  0  0  0  0  0  0  0  0  0  0  0
    9.7200   -2.2600   22.8630 C   0  0  0  0  0  0  0  0  0  0  0  0
    4.6890    1.6810   18.4640 C   0  0  0  0  0  0  0  0  0  0  0  0
    8.9960   -2.3380   25.5320 C   0  0  0  0  0  0  0  0  0  0  0  0
    9.6730   -3.4710   23.5300 C   0  0  0  0  0  0  0  0  0  0  0  0
    7.6390   -0.2680   18.5410 C   0  0  0  0  0  0  0  0  0  0  0  0
    6.1790    0.5730   19.9990 C   0  0  0  0  0  0  0  0  0  0  0  0
   10.9611    2.1180   22.8635 C   0  0  0  0  0  0  0  0  0  0  0  0
    9.3350   -1.0880   23.5010 C   0  0  0  0  0  0  0  0  0  0  0  0
    5.8300    0.9190   18.6970 C   0  0  0  0  0  0  0  0  0  0  0  0
    7.3170   -0.1610   19.8550 C   0  0  0  0  0  0  0  0  0  0  0  0
    9.3070   -3.5340   24.8780 C   0  0  0  0  0  0  0  0  0  0  0  0
    9.0420    0.3700   21.5280 C   0  0  0  0  0  0  0  0  0  0  0  0
    8.8744   -4.6797   26.9022 C   0  0  0  0  0  0  0  0  0  0  0  0
    9.8870    1.3260   23.5730 C   0  0  0  0  0  0  0  0  0  0  0  0
    9.4560    0.1560   22.8130 C   0  0  2  0  0  0  0  0  0  0  0  0
    6.7580    0.3810   17.8350 N   0  0  0  0  0  0  0  0  0  0  0  0
    8.1890   -0.7180   20.8700 N   0  0  0  0  0  0  0  0  0  0  0  0
    9.2690    1.4140   20.9380 O   0  0  0  0  0  0  0  0  0  0  0  0
    9.2567   -4.7121   25.5280 O   0  0  0  0  0  0  0  0  0  0  0  0
   13.7143    4.1504   21.0437 H   0  0  0  0  0  0  0  0  0  0  0  0
    3.6453    2.0152   21.6831 H   0  0  0  0  0  0  0  0  0  0  0  0
   14.3446    2.3166   22.5913 H   0  0  0  0  0  0  0  0  0  0  0  0
   11.3212    4.6833   20.6614 H   0  0  0  0  0  0  0  0  0  0  0  0
    3.0147    2.6520   19.3913 H   0  0  0  0  0  0  0  0  0  0  0  0
    5.6991    0.6995   22.1042 H   0  0  0  0  0  0  0  0  0  0  0  0
   12.5919    1.0166   23.7545 H   0  0  0  0  0  0  0  0  0  0  0  0
    9.5612    3.3895   21.8196 H   0  0  0  0  0  0  0  0  0  0  0  0
    8.9224   -0.1986   25.4209 H   0  0  0  0  0  0  0  0  0  0  0  0
   10.0638   -2.2321   21.8253 H   0  0  0  0  0  0  0  0  0  0  0  0
    4.4051    1.9733   17.4488 H   0  0  0  0  0  0  0  0  0  0  0  0
    8.6903   -2.3588   26.5807 H   0  0  0  0  0  0  0  0  0  0  0  0
    9.9258   -4.3917   22.9962 H   0  0  0  0  0  0  0  0  0  0  0  0
    8.4825   -0.7940   18.0623 H   0  0  0  0  0  0  0  0  0  0  0  0
    8.8744   -5.6954   27.3053 H   0  0  0  0  0  0  0  0  0  0  0  0
    7.8781   -4.2399   26.9939 H   0  0  0  0  0  0  0  0  0  0  0  0
    9.5920   -4.0702   27.4565 H   0  0  0  0  0  0  0  0  0  0  0  0
   10.2455    1.0419   24.5710 H   0  0  0  0  0  0  0  0  0  0  0  0
    9.0345    1.9965   23.7496 H   0  0  0  0  0  0  0  0  0  0  0  0
   10.7927   -0.1029   22.4279 H   0  0  0  0  0  0  0  0  0  0  0  0
    6.7266    0.4930   16.8305 H   0  0  0  0  0  0  0  0  0  0  0  0
    8.2408   -1.5631   21.0968 H   0  0  0  0  0  0  0  0  0  0  0  0
  1  3  1  0  0  0  0
  1  4  2  0  0  0  0
  2  5  1  0  0  0  0
  2  6  2  0  0  0  0
  3  7  2  0  0  0  0
  4  8  1  0  0  0  0
  5 11  2  0  0  0  0
  6 15  1  0  0  0  0
  7 16  1  0  0  0  0
  8 16  2  0  0  0  0
  9 12  2  0  0  0  0
  9 17  1  0  0  0  0
 10 13  1  0  0  0  0
 10 17  2  0  0  0  0
 11 18  1  0  0  0  0
 12 20  1  0  0  0  0
 13 20  2  0  0  0  0
 14 19  2  0  0  0  0
 14 25  1  0  0  0  0
 15 18  2  0  0  0  0
 15 19  1  0  0  0  0
 16 23  1  0  0  0  0
 17 24  1  0  0  0  0
 18 25  1  0  0  0  0
 19 26  1  0  0  0  0
 20 28  1  0  0  0  0
 21 24  1  0  0  0  0
 21 26  1  0  0  0  0
 21 27  2  0  0  0  0
 22 28  1  0  0  0  0
 23 24  1  6  0  0  0
  1 29  1  0  0  0  0
  2 30  1  0  0  0  0
  3 31  1  0  0  0  0
  4 32  1  0  0  0  0
  5 33  1  0  0  0  0
  6 34  1  0  0  0  0
  7 35  1  0  0  0  0
  8 36  1  0  0  0  0
  9 37  1  0  0  0  0
 10 38  1  0  0  0  0
 11 39  1  0  0  0  0
 12 40  1  0  0  0  0
 13 41  1  0  0  0  0
 14 42  1  0  0  0  0
 22 43  1  0  0  0  0
 22 44  1  0  0  0  0
 22 45  1  0  0  0  0
 23 46  1  0  0  0  0
 23 47  1  0  0  0  0
 24 48  1  0  0  0  0
 25 49  1  0  0  0  0
 26 50  1  0  0  0  0
M  END
> <clash_score>
0.6163868389900387

> <docking_score>
-8.401396751403809

> <overlap_score>
0.9387645721435547

$$$$
BENZO_296_2
  -OEChem-08222022193D

 47 50  0     1  0  0  0  0  0999 V2000
    4.2750    1.7050   20.8490 C   0  0  0  0  0  0  0  0  0  0  0  0
    3.9160    2.0630   19.5520 C   0  0  0  0  0  0  0  0  0  0  0  0
    5.4210    0.9600   21.0930 C   0  0  0  0  0  0  0  0  0  0  0  0
    9.0720   -1.1280   24.8640 C   0  0  0  0  0  0  0  0  0  0  0  0
    9.7200   -2.2600   22.8630 C   0  0  0  0  0  0  0  0  0  0  0  0
    4.6890    1.6810   18.4640 C   0  0  0  0  0  0  0  0  0  0  0  0
    8.9960   -2.3380   25.5320 C   0  0  0  0  0  0  0  0  0  0  0  0
    9.6730   -3.4710   23.5300 C   0  0  0  0  0  0  0  0  0  0  0  0
   12.3907    0.6679   23.6950 C   0  0  0  0  0  0  0  0  0  0  0  0
    7.6390   -0.2680   18.5410 C   0  0  0  0  0  0  0  0  0  0  0  0
   13.4189    0.5308   24.6014 C   0  0  0  0  0  0  0  0  0  0  0  0
   11.3314    1.2632   25.6764 C   0  0  0  0  0  0  0  0  0  0  0  0
    6.1790    0.5730   19.9990 C   0  0  0  0  0  0  0  0  0  0  0  0
    9.3350   -1.0880   23.5010 C   0  0  0  0  0  0  0  0  0  0  0  0
   11.1814    1.0923   24.3176 C   0  0  0  0  0  0  0  0  0  0  0  0
    5.8300    0.9190   18.6970 C   0  0  0  0  0  0  0  0  0  0  0  0
    7.3170   -0.1610   19.8550 C   0  0  0  0  0  0  0  0  0  0  0  0
    9.3070   -3.5340   24.8780 C   0  0  0  0  0  0  0  0  0  0  0  0
    9.0420    0.3700   21.5280 C   0  0  0  0  0  0  0  0  0  0  0  0
    8.8744   -4.6797   26.9022 C   0  0  0  0  0  0  0  0  0  0  0  0
    9.8870    1.3260   23.5730 C   0  0  0  0  0  0  0  0  0  0  0  0
    9.4560    0.1560   22.8130 C   0  0  2  0  0  0  0  0  0  0  0  0
    6.7580    0.3810   17.8350 N   0  0  0  0  0  0  0  0  0  0  0  0
    8.1890   -0.7180   20.8700 N   0  0  0  0  0  0  0  0  0  0  0  0
    9.2690    1.4140   20.9380 O   0  0  0  0  0  0  0  0  0  0  0  0
    9.2567   -4.7121   25.5280 O   0  0  0  0  0  0  0  0  0  0  0  0
   12.9250    0.9128   26.1959 S   0  0  0  0  0  0  0  0  0  0  0  0
    3.6453    2.0152   21.6831 H   0  0  0  0  0  0  0  0  0  0  0  0
    3.0147    2.6520   19.3913 H   0  0  0  0  0  0  0  0  0  0  0  0
    5.6991    0.6995   22.1042 H   0  0  0  0  0  0  0  0  0  0  0  0
    8.9224   -0.1986   25.4209 H   0  0  0  0  0  0  0  0  0  0  0  0
   10.0638   -2.2321   21.8253 H   0  0  0  0  0  0  0  0  0  0  0  0
    4.4051    1.9733   17.4488 H   0  0  0  0  0  0  0  0  0  0  0  0
    8.6903   -2.3588   26.5807 H   0  0  0  0  0  0  0  0  0  0  0  0
    9.9258   -4.3917   22.9962 H   0  0  0  0  0  0  0  0  0  0  0  0
   12.5049    0.4716   22.6364 H   0  0  0  0  0  0  0  0  0  0  0  0
    8.4825   -0.7940   18.0623 H   0  0  0  0  0  0  0  0  0  0  0  0
   14.4362    0.2239   24.4037 H   0  0  0  0  0  0  0  0  0  0  0  0
   10.5839    1.5756   26.3924 H   0  0  0  0  0  0  0  0  0  0  0  0
    8.8744   -5.6954   27.3053 H   0  0  0  0  0  0  0  0  0  0  0  0
    7.8781   -4.2399   26.9939 H   0  0  0  0  0  0  0  0  0  0  0  0
    9.5920   -4.0702   27.4565 H   0  0  0  0  0  0  0  0  0  0  0  0
    9.1131    1.6463   24.2828 H   0  0  0  0  0  0  0  0  0  0  0  0
   10.0354    2.1807   22.8984 H   0  0  0  0  0  0  0  0  0  0  0  0
   10.7927   -0.1029   22.4279 H   0  0  0  0  0  0  0  0  0  0  0  0
    6.7266    0.4930   16.8305 H   0  0  0  0  0  0  0  0  0  0  0  0
    8.2408   -1.5631   21.0968 H   0  0  0  0  0  0  0  0  0  0  0  0
  1  2  1  0  0  0  0
  1  3  2  0  0  0  0
  2  6  2  0  0  0  0
  3 13  1  0  0  0  0
  4  7  2  0  0  0  0
  4 14  1  0  0  0  0
  5  8  1  0  0  0  0
  5 14  2  0  0  0  0
  6 16  1  0  0  0  0
  7 18  1  0  0  0  0
  8 18  2  0  0  0  0
  9 11  2  0  0  0  0
  9 15  1  0  0  0  0
 10 17  2  0  0  0  0
 10 23  1  0  0  0  0
 11 27  1  0  0  0  0
 12 15  2  0  0  0  0
 12 27  1  0  0  0  0
 13 16  2  0  0  0  0
 13 17  1  0  0  0  0
 14 22  1  0  0  0  0
 15 21  1  0  0  0  0
 16 23  1  0  0  0  0
 17 24  1  0  0  0  0
 18 26  1  0  0  0  0
 19 22  1  0  0  0  0
 19 24  1  0  0  0  0
 19 25  2  0  0  0  0
 20 26  1  0  0  0  0
 21 22  1  6  0  0  0
  1 28  1  0  0  0  0
  2 29  1  0  0  0  0
  3 30  1  0  0  0  0
  4 31  1  0  0  0  0
  5 32  1  0  0  0  0
  6 33  1  0  0  0  0
  7 34  1  0  0  0  0
  8 35  1  0  0  0  0
  9 36  1  0  0  0  0
 10 37  1  0  0  0  0
 11 38  1  0  0  0  0
 12 39  1  0  0  0  0
 20 40  1  0  0  0  0
 20 41  1  0  0  0  0
 20 42  1  0  0  0  0
 21 43  1  0  0  0  0
 21 44  1  0  0  0  0
 22 45  1  0  0  0  0
 23 46  1  0  0  0  0
 24 47  1  0  0  0  0
M  END
> <clash_score>
0.6216861097175569

> <docking_score>
-6.831218719482422

> <overlap_score>
0.8906732797622681

$$$$
BENZO_298_2
  -OEChem-08222022193D

 50 53  0     1  0  0  0  0  0999 V2000
    4.2750    1.7050   20.8490 C   0  0  0  0  0  0  0  0  0  0  0  0
    3.9160    2.0630   19.5520 C   0  0  0  0  0  0  0  0  0  0  0  0
   13.2976    2.5464   22.4232 C   0  0  0  0  0  0  0  0  0  0  0  0
    5.4210    0.9600   21.0930 C   0  0  0  0  0  0  0  0  0  0  0  0
   12.3059    1.8167   23.0786 C   0  0  0  0  0  0  0  0  0  0  0  0
    9.0720   -1.1280   24.8640 C   0  0  0  0  0  0  0  0  0  0  0  0
    9.7200   -2.2600   22.8630 C   0  0  0  0  0  0  0  0  0  0  0  0
    4.6890    1.6810   18.4640 C   0  0  0  0  0  0  0  0  0  0  0  0
    8.9960   -2.3380   25.5320 C   0  0  0  0  0  0  0  0  0  0  0  0
    9.6730   -3.4710   23.5300 C   0  0  0  0  0  0  0  0  0  0  0  0
   12.9446    3.5776   21.5528 C   0  0  0  0  0  0  0  0  0  0  0  0
   10.6080    3.1492   21.9930 C   0  0  0  0  0  0  0  0  0  0  0  0
    7.6390   -0.2680   18.5410 C   0  0  0  0  0  0  0  0  0  0  0  0
    6.1790    0.5730   19.9990 C   0  0  0  0  0  0  0  0  0  0  0  0
    9.3350   -1.0880   23.5010 C   0  0  0  0  0  0  0  0  0  0  0  0
   10.9611    2.1180   22.8635 C   0  0  0  0  0  0  0  0  0  0  0  0
    5.8300    0.9190   18.6970 C   0  0  0  0  0  0  0  0  0  0  0  0
    7.3170   -0.1610   19.8550 C   0  0  0  0  0  0  0  0  0  0  0  0
    9.3070   -3.5340   24.8780 C   0  0  0  0  0  0  0  0  0  0  0  0
   11.5998    3.8790   21.3377 C   0  0  0  0  0  0  0  0  0  0  0  0
    9.0420    0.3700   21.5280 C   0  0  0  0  0  0  0  0  0  0  0  0
    9.5904   -5.8808   24.7807 C   0  0  0  0  0  0  0  0  0  0  0  0
    9.8870    1.3260   23.5730 C   0  0  0  0  0  0  0  0  0  0  0  0
    9.4560    0.1560   22.8130 C   0  0  2  0  0  0  0  0  0  0  0  0
    6.7580    0.3810   17.8350 N   0  0  0  0  0  0  0  0  0  0  0  0
    8.1890   -0.7180   20.8700 N   0  0  0  0  0  0  0  0  0  0  0  0
    9.2690    1.4140   20.9380 O   0  0  0  0  0  0  0  0  0  0  0  0
    9.2567   -4.7121   25.5280 O   0  0  0  0  0  0  0  0  0  0  0  0
   11.1647    5.1506   20.2627 Cl  0  0  0  0  0  0  0  0  0  0  0  0
    3.6453    2.0152   21.6831 H   0  0  0  0  0  0  0  0  0  0  0  0
    3.0147    2.6520   19.3913 H   0  0  0  0  0  0  0  0  0  0  0  0
   14.3448    2.3113   22.5909 H   0  0  0  0  0  0  0  0  0  0  0  0
    5.6991    0.6995   22.1042 H   0  0  0  0  0  0  0  0  0  0  0  0
   12.5902    1.0148   23.7550 H   0  0  0  0  0  0  0  0  0  0  0  0
    8.9224   -0.1986   25.4209 H   0  0  0  0  0  0  0  0  0  0  0  0
   10.0638   -2.2321   21.8253 H   0  0  0  0  0  0  0  0  0  0  0  0
    4.4051    1.9733   17.4488 H   0  0  0  0  0  0  0  0  0  0  0  0
    8.6903   -2.3588   26.5807 H   0  0  0  0  0  0  0  0  0  0  0  0
    9.9258   -4.3917   22.9962 H   0  0  0  0  0  0  0  0  0  0  0  0
   13.7282    4.1378   21.0487 H   0  0  0  0  0  0  0  0  0  0  0  0
    9.5581    3.3806   21.8290 H   0  0  0  0  0  0  0  0  0  0  0  0
    8.4825   -0.7940   18.0623 H   0  0  0  0  0  0  0  0  0  0  0  0
    9.5095   -6.7607   25.4235 H   0  0  0  0  0  0  0  0  0  0  0  0
   10.6094   -5.7898   24.3961 H   0  0  0  0  0  0  0  0  0  0  0  0
    8.8947   -5.9784   23.9439 H   0  0  0  0  0  0  0  0  0  0  0  0
   10.2455    1.0419   24.5710 H   0  0  0  0  0  0  0  0  0  0  0  0
    9.0345    1.9965   23.7496 H   0  0  0  0  0  0  0  0  0  0  0  0
   10.7927   -0.1029   22.4279 H   0  0  0  0  0  0  0  0  0  0  0  0
    6.7266    0.4930   16.8305 H   0  0  0  0  0  0  0  0  0  0  0  0
    8.2408   -1.5631   21.0968 H   0  0  0  0  0  0  0  0  0  0  0  0
  1  2  1  0  0  0  0
  1  4  2  0  0  0  0
  2  8  2  0  0  0  0
  3  5  2  0  0  0  0
  3 11  1  0  0  0  0
  4 14  1  0  0  0  0
  5 16  1  0  0  0  0
  6  9  2  0  0  0  0
  6 15  1  0  0  0  0
  7 10  1  0  0  0  0
  7 15  2  0  0  0  0
  8 17  1  0  0  0  0
  9 19  1  0  0  0  0
 10 19  2  0  0  0  0
 11 20  2  0  0  0  0
 12 16  2  0  0  0  0
 12 20  1  0  0  0  0
 13 18  2  0  0  0  0
 13 25  1  0  0  0  0
 14 17  2  0  0  0  0
 14 18  1  0  0  0  0
 15 24  1  0  0  0  0
 16 23  1  0  0  0  0
 17 25  1  0  0  0  0
 18 26  1  0  0  0  0
 19 28  1  0  0  0  0
 20 29  1  0  0  0  0
 21 24  1  0  0  0  0
 21 26  1  0  0  0  0
 21 27  2  0  0  0  0
 22 28  1  0  0  0  0
 23 24  1  6  0  0  0
  1 30  1  0  0  0  0
  2 31  1  0  0  0  0
  3 32  1  0  0  0  0
  4 33  1  0  0  0  0
  5 34  1  0  0  0  0
  6 35  1  0  0  0  0
  7 36  1  0  0  0  0
  8 37  1  0  0  0  0
  9 38  1  0  0  0  0
 10 39  1  0  0  0  0
 11 40  1  0  0  0  0
 12 41  1  0  0  0  0
 13 42  1  0  0  0  0
 22 43  1  0  0  0  0
 22 44  1  0  0  0  0
 22 45  1  0  0  0  0
 23 46  1  0  0  0  0
 23 47  1  0  0  0  0
 24 48  1  0  0  0  0
 25 49  1  0  0  0  0
 26 50  1  0  0  0  0
M  END
> <clash_score>
2.21029397887869

> <docking_score>
-7.6649169921875

> <overlap_score>
0.940075159072876

$$$$
BENZO_298_1
  -OEChem-08222022193D

 50 53  0     1  0  0  0  0  0999 V2000
    4.2750    1.7050   20.8490 C   0  0  0  0  0  0  0  0  0  0  0  0
    3.9160    2.0630   19.5520 C   0  0  0  0  0  0  0  0  0  0  0  0
   13.6189    0.6768   23.2648 C   0  0  0  0  0  0  0  0  0  0  0  0
    5.4210    0.9600   21.0930 C   0  0  0  0  0  0  0  0  0  0  0  0
   12.2417    0.4681   23.3367 C   0  0  0  0  0  0  0  0  0  0  0  0
    9.0720   -1.1280   24.8640 C   0  0  0  0  0  0  0  0  0  0  0  0
    9.7200   -2.2600   22.8630 C   0  0  0  0  0  0  0  0  0  0  0  0
    4.6890    1.6810   18.4640 C   0  0  0  0  0  0  0  0  0  0  0  0
    8.9960   -2.3380   25.5320 C   0  0  0  0  0  0  0  0  0  0  0  0
    9.6730   -3.4710   23.5300 C   0  0  0  0  0  0  0  0  0  0  0  0
   14.1339    1.9702   23.3527 C   0  0  0  0  0  0  0  0  0  0  0  0
   11.8943    2.8462   23.5844 C   0  0  0  0  0  0  0  0  0  0  0  0
    7.6390   -0.2680   18.5410 C   0  0  0  0  0  0  0  0  0  0  0  0
    6.1790    0.5730   19.9990 C   0  0  0  0  0  0  0  0  0  0  0  0
    9.3350   -1.0880   23.5010 C   0  0  0  0  0  0  0  0  0  0  0  0
   11.3794    1.5528   23.4964 C   0  0  0  0  0  0  0  0  0  0  0  0
    5.8300    0.9190   18.6970 C   0  0  0  0  0  0  0  0  0  0  0  0
    7.3170   -0.1610   19.8550 C   0  0  0  0  0  0  0  0  0  0  0  0
    9.3070   -3.5340   24.8780 C   0  0  0  0  0  0  0  0  0  0  0  0
   13.2716    3.0548   23.5125 C   0  0  0  0  0  0  0  0  0  0  0  0
    9.0420    0.3700   21.5280 C   0  0  0  0  0  0  0  0  0  0  0  0
    8.8744   -4.6797   26.9022 C   0  0  0  0  0  0  0  0  0  0  0  0
    9.8870    1.3260   23.5730 C   0  0  0  0  0  0  0  0  0  0  0  0
    9.4560    0.1560   22.8130 C   0  0  1  0  0  0  0  0  0  0  0  0
    6.7580    0.3810   17.8350 N   0  0  0  0  0  0  0  0  0  0  0  0
    8.1890   -0.7180   20.8700 N   0  0  0  0  0  0  0  0  0  0  0  0
    9.2690    1.4140   20.9380 O   0  0  0  0  0  0  0  0  0  0  0  0
    9.2567   -4.7121   25.5280 O   0  0  0  0  0  0  0  0  0  0  0  0
   13.9075    4.6504   23.6198 Cl  0  0  0  0  0  0  0  0  0  0  0  0
    3.6453    2.0152   21.6831 H   0  0  0  0  0  0  0  0  0  0  0  0
    3.0147    2.6520   19.3913 H   0  0  0  0  0  0  0  0  0  0  0  0
   14.2901   -0.1681   23.1402 H   0  0  0  0  0  0  0  0  0  0  0  0
    5.6991    0.6995   22.1042 H   0  0  0  0  0  0  0  0  0  0  0  0
   11.8492   -0.5431   23.2671 H   0  0  0  0  0  0  0  0  0  0  0  0
    8.9224   -0.1986   25.4209 H   0  0  0  0  0  0  0  0  0  0  0  0
   10.0638   -2.2321   21.8253 H   0  0  0  0  0  0  0  0  0  0  0  0
    4.4051    1.9733   17.4488 H   0  0  0  0  0  0  0  0  0  0  0  0
    8.6903   -2.3588   26.5807 H   0  0  0  0  0  0  0  0  0  0  0  0
    9.9258   -4.3917   22.9962 H   0  0  0  0  0  0  0  0  0  0  0  0
   15.2095    2.1179   23.2949 H   0  0  0  0  0  0  0  0  0  0  0  0
   11.2178    3.6885   23.7094 H   0  0  0  0  0  0  0  0  0  0  0  0
    8.4825   -0.7940   18.0623 H   0  0  0  0  0  0  0  0  0  0  0  0
    8.8744   -5.6954   27.3053 H   0  0  0  0  0  0  0  0  0  0  0  0
    7.8781   -4.2399   26.9939 H   0  0  0  0  0  0  0  0  0  0  0  0
    9.5920   -4.0702   27.4565 H   0  0  0  0  0  0  0  0  0  0  0  0
    9.5854    1.2495   24.6258 H   0  0  0  0  0  0  0  0  0  0  0  0
    9.3886    2.2282   23.1920 H   0  0  0  0  0  0  0  0  0  0  0  0
    8.0686    0.4964   23.2745 H   0  0  0  0  0  0  0  0  0  0  0  0
    6.7266    0.4930   16.8305 H   0  0  0  0  0  0  0  0  0  0  0  0
    8.2408   -1.5631   21.0968 H   0  0  0  0  0  0  0  0  0  0  0  0
  1  2  1  0  0  0  0
  1  4  2  0  0  0  0
  2  8  2  0  0  0  0
  3  5  2  0  0  0  0
  3 11  1  0  0  0  0
  4 14  1  0  0  0  0
  5 16  1  0  0  0  0
  6  9  2  0  0  0  0
  6 15  1  0  0  0  0
  7 10  1  0  0  0  0
  7 15  2  0  0  0  0
  8 17  1  0  0  0  0
  9 19  1  0  0  0  0
 10 19  2  0  0  0  0
 11 20  2  0  0  0  0
 12 16  2  0  0  0  0
 12 20  1  0  0  0  0
 13 18  2  0  0  0  0
 13 25  1  0  0  0  0
 14 17  2  0  0  0  0
 14 18  1  0  0  0  0
 15 24  1  0  0  0  0
 16 23  1  0  0  0  0
 17 25  1  0  0  0  0
 18 26  1  0  0  0  0
 19 28  1  0  0  0  0
 20 29  1  0  0  0  0
 21 24  1  0  0  0  0
 21 26  1  0  0  0  0
 21 27  2  0  0  0  0
 22 28  1  0  0  0  0
 23 24  1  1  0  0  0
  1 30  1  0  0  0  0
  2 31  1  0  0  0  0
  3 32  1  0  0  0  0
  4 33  1  0  0  0  0
  5 34  1  0  0  0  0
  6 35  1  0  0  0  0
  7 36  1  0  0  0  0
  8 37  1  0  0  0  0
  9 38  1  0  0  0  0
 10 39  1  0  0  0  0
 11 40  1  0  0  0  0
 12 41  1  0  0  0  0
 13 42  1  0  0  0  0
 22 43  1  0  0  0  0
 22 44  1  0  0  0  0
 22 45  1  0  0  0  0
 23 46  1  0  0  0  0
 23 47  1  0  0  0  0
 24 48  1  0  0  0  0
 25 49  1  0  0  0  0
 26 50  1  0  0  0  0
M  END
> <clash_score>
0

> <docking_score>
-8.190523147583008

> <overlap_score>
0.9852194786071777

$$$$
BENZO_299_1
  -OEChem-08222022193D

 50 53  0     1  0  0  0  0  0999 V2000
    4.2750    1.7050   20.8490 C   0  0  0  0  0  0  0  0  0  0  0  0
    3.9160    2.0630   19.5520 C   0  0  0  0  0  0  0  0  0  0  0  0
    5.4210    0.9600   21.0930 C   0  0  0  0  0  0  0  0  0  0  0  0
    9.0720   -1.1280   24.8640 C   0  0  0  0  0  0  0  0  0  0  0  0
    9.7200   -2.2600   22.8630 C   0  0  0  0  0  0  0  0  0  0  0  0
    4.6890    1.6810   18.4640 C   0  0  0  0  0  0  0  0  0  0  0  0
    8.9960   -2.3380   25.5320 C   0  0  0  0  0  0  0  0  0  0  0  0
    9.6730   -3.4710   23.5300 C   0  0  0  0  0  0  0  0  0  0  0  0
   12.0720    2.7762   23.5689 C   0  0  0  0  0  0  0  0  0  0  0  0
   12.3651    0.6087   23.3429 C   0  0  0  0  0  0  0  0  0  0  0  0
    7.6390   -0.2680   18.5410 C   0  0  0  0  0  0  0  0  0  0  0  0
    6.1790    0.5730   19.9990 C   0  0  0  0  0  0  0  0  0  0  0  0
    9.3350   -1.0880   23.5010 C   0  0  0  0  0  0  0  0  0  0  0  0
   11.3794    1.5528   23.4964 C   0  0  0  0  0  0  0  0  0  0  0  0
    5.8300    0.9190   18.6970 C   0  0  0  0  0  0  0  0  0  0  0  0
    7.3170   -0.1610   19.8550 C   0  0  0  0  0  0  0  0  0  0  0  0
    9.3070   -3.5340   24.8780 C   0  0  0  0  0  0  0  0  0  0  0  0
    9.0420    0.3700   21.5280 C   0  0  0  0  0  0  0  0  0  0  0  0
   14.8634    0.7326   23.1949 C   0  0  0  0  0  0  0  0  0  0  0  0
    8.8744   -4.6797   26.9022 C   0  0  0  0  0  0  0  0  0  0  0  0
    9.8870    1.3260   23.5730 C   0  0  0  0  0  0  0  0  0  0  0  0
    9.4560    0.1560   22.8130 C   0  0  1  0  0  0  0  0  0  0  0  0
   13.3955    2.6261   23.4698 N   0  0  0  0  0  0  0  0  0  0  0  0
    6.7580    0.3810   17.8350 N   0  0  0  0  0  0  0  0  0  0  0  0
   13.5424    1.2972   23.3335 N   0  0  0  0  0  0  0  0  0  0  0  0
    8.1890   -0.7180   20.8700 N   0  0  0  0  0  0  0  0  0  0  0  0
    9.2690    1.4140   20.9380 O   0  0  0  0  0  0  0  0  0  0  0  0
    9.2567   -4.7121   25.5280 O   0  0  0  0  0  0  0  0  0  0  0  0
    3.6453    2.0152   21.6831 H   0  0  0  0  0  0  0  0  0  0  0  0
    3.0147    2.6520   19.3913 H   0  0  0  0  0  0  0  0  0  0  0  0
    5.6991    0.6995   22.1042 H   0  0  0  0  0  0  0  0  0  0  0  0
    8.9224   -0.1986   25.4209 H   0  0  0  0  0  0  0  0  0  0  0  0
   10.0638   -2.2321   21.8253 H   0  0  0  0  0  0  0  0  0  0  0  0
    4.4051    1.9733   17.4488 H   0  0  0  0  0  0  0  0  0  0  0  0
    8.6903   -2.3588   26.5807 H   0  0  0  0  0  0  0  0  0  0  0  0
    9.9258   -4.3917   22.9962 H   0  0  0  0  0  0  0  0  0  0  0  0
   11.6698    3.7720   23.6907 H   0  0  0  0  0  0  0  0  0  0  0  0
   12.3300   -0.4677   23.2433 H   0  0  0  0  0  0  0  0  0  0  0  0
    8.4825   -0.7940   18.0623 H   0  0  0  0  0  0  0  0  0  0  0  0
   15.1060    0.6995   22.1295 H   0  0  0  0  0  0  0  0  0  0  0  0
   15.5839    1.3558   23.7319 H   0  0  0  0  0  0  0  0  0  0  0  0
   14.8726   -0.2742   23.6217 H   0  0  0  0  0  0  0  0  0  0  0  0
    8.8744   -5.6954   27.3053 H   0  0  0  0  0  0  0  0  0  0  0  0
    7.8781   -4.2399   26.9939 H   0  0  0  0  0  0  0  0  0  0  0  0
    9.5920   -4.0702   27.4565 H   0  0  0  0  0  0  0  0  0  0  0  0
    9.5854    1.2495   24.6258 H   0  0  0  0  0  0  0  0  0  0  0  0
    9.3886    2.2282   23.1920 H   0  0  0  0  0  0  0  0  0  0  0  0
    8.0686    0.4964   23.2745 H   0  0  0  0  0  0  0  0  0  0  0  0
    6.7266    0.4930   16.8305 H   0  0  0  0  0  0  0  0  0  0  0  0
    8.2408   -1.5631   21.0968 H   0  0  0  0  0  0  0  0  0  0  0  0
  1  2  1  0  0  0  0
  1  3  2  0  0  0  0
  2  6  2  0  0  0  0
  3 12  1  0  0  0  0
  4  7  2  0  0  0  0
  4 13  1  0  0  0  0
  5  8  1  0  0  0  0
  5 13  2  0  0  0  0
  6 15  1  0  0  0  0
  7 17  1  0  0  0  0
  8 17  2  0  0  0  0
  9 14  1  0  0  0  0
  9 23  2  0  0  0  0
 10 14  2  0  0  0  0
 10 25  1  0  0  0  0
 11 16  2  0  0  0  0
 11 24  1  0  0  0  0
 12 15  2  0  0  0  0
 12 16  1  0  0  0  0
 13 22  1  0  0  0  0
 14 21  1  0  0  0  0
 15 24  1  0  0  0  0
 16 26  1  0  0  0  0
 17 28  1  0  0  0  0
 18 22  1  0  0  0  0
 18 26  1  0  0  0  0
 18 27  2  0  0  0  0
 19 25  1  0  0  0  0
 20 28  1  0  0  0  0
 21 22  1  1  0  0  0
 23 25  1  0  0  0  0
  1 29  1  0  0  0  0
  2 30  1  0  0  0  0
  3 31  1  0  0  0  0
  4 32  1  0  0  0  0
  5 33  1  0  0  0  0
  6 34  1  0  0  0  0
  7 35  1  0  0  0  0
  8 36  1  0  0  0  0
  9 37  1  0  0  0  0
 10 38  1  0  0  0  0
 11 39  1  0  0  0  0
 19 40  1  0  0  0  0
 19 41  1  0  0  0  0
 19 42  1  0  0  0  0
 20 43  1  0  0  0  0
 20 44  1  0  0  0  0
 20 45  1  0  0  0  0
 21 46  1  0  0  0  0
 21 47  1  0  0  0  0
 22 48  1  0  0  0  0
 24 49  1  0  0  0  0
 26 50  1  0  0  0  0
M  END
> <clash_score>
0

> <docking_score>
-8.521795272827148

> <overlap_score>
0.984004020690918

$$$$
BENZO_299_2
  -OEChem-08222022193D

 50 53  0     1  0  0  0  0  0999 V2000
    4.2750    1.7050   20.8490 C   0  0  0  0  0  0  0  0  0  0  0  0
    3.9160    2.0630   19.5520 C   0  0  0  0  0  0  0  0  0  0  0  0
    5.4210    0.9600   21.0930 C   0  0  0  0  0  0  0  0  0  0  0  0
    9.0720   -1.1280   24.8640 C   0  0  0  0  0  0  0  0  0  0  0  0
    9.7200   -2.2600   22.8630 C   0  0  0  0  0  0  0  0  0  0  0  0
    4.6890    1.6810   18.4640 C   0  0  0  0  0  0  0  0  0  0  0  0
    8.9960   -2.3380   25.5320 C   0  0  0  0  0  0  0  0  0  0  0  0
    9.6730   -3.4710   23.5300 C   0  0  0  0  0  0  0  0  0  0  0  0
   12.3565    1.9564   22.9554 C   0  0  0  0  0  0  0  0  0  0  0  0
   10.7932    3.1569   21.9808 C   0  0  0  0  0  0  0  0  0  0  0  0
    7.6390   -0.2680   18.5410 C   0  0  0  0  0  0  0  0  0  0  0  0
    6.1790    0.5730   19.9990 C   0  0  0  0  0  0  0  0  0  0  0  0
    9.3350   -1.0880   23.5010 C   0  0  0  0  0  0  0  0  0  0  0  0
   10.9611    2.1180   22.8635 C   0  0  0  0  0  0  0  0  0  0  0  0
    5.8300    0.9190   18.6970 C   0  0  0  0  0  0  0  0  0  0  0  0
    7.3170   -0.1610   19.8550 C   0  0  0  0  0  0  0  0  0  0  0  0
    9.3070   -3.5340   24.8780 C   0  0  0  0  0  0  0  0  0  0  0  0
    9.0420    0.3700   21.5280 C   0  0  0  0  0  0  0  0  0  0  0  0
   12.3862    4.6002   20.6932 C   0  0  0  0  0  0  0  0  0  0  0  0
    8.8744   -4.6797   26.9022 C   0  0  0  0  0  0  0  0  0  0  0  0
    9.8870    1.3260   23.5730 C   0  0  0  0  0  0  0  0  0  0  0  0
    9.4560    0.1560   22.8130 C   0  0  2  0  0  0  0  0  0  0  0  0
   13.0274    2.8231   22.1920 N   0  0  0  0  0  0  0  0  0  0  0  0
    6.7580    0.3810   17.8350 N   0  0  0  0  0  0  0  0  0  0  0  0
   12.0493    3.5392   21.6118 N   0  0  0  0  0  0  0  0  0  0  0  0
    8.1890   -0.7180   20.8700 N   0  0  0  0  0  0  0  0  0  0  0  0
    9.2690    1.4140   20.9380 O   0  0  0  0  0  0  0  0  0  0  0  0
    9.2567   -4.7121   25.5280 O   0  0  0  0  0  0  0  0  0  0  0  0
    3.6453    2.0152   21.6831 H   0  0  0  0  0  0  0  0  0  0  0  0
    3.0147    2.6520   19.3913 H   0  0  0  0  0  0  0  0  0  0  0  0
    5.6991    0.6995   22.1042 H   0  0  0  0  0  0  0  0  0  0  0  0
    8.9224   -0.1986   25.4209 H   0  0  0  0  0  0  0  0  0  0  0  0
   10.0638   -2.2321   21.8253 H   0  0  0  0  0  0  0  0  0  0  0  0
    4.4051    1.9733   17.4488 H   0  0  0  0  0  0  0  0  0  0  0  0
    8.6903   -2.3588   26.5807 H   0  0  0  0  0  0  0  0  0  0  0  0
    9.9258   -4.3917   22.9962 H   0  0  0  0  0  0  0  0  0  0  0  0
   12.9148    1.2434   23.5455 H   0  0  0  0  0  0  0  0  0  0  0  0
    9.9088    3.6436   21.5925 H   0  0  0  0  0  0  0  0  0  0  0  0
    8.4825   -0.7940   18.0623 H   0  0  0  0  0  0  0  0  0  0  0  0
   12.4913    5.5238   21.2686 H   0  0  0  0  0  0  0  0  0  0  0  0
   13.3235    4.3577   20.1848 H   0  0  0  0  0  0  0  0  0  0  0  0
   11.5908    4.7003   19.9494 H   0  0  0  0  0  0  0  0  0  0  0  0
    8.8744   -5.6954   27.3053 H   0  0  0  0  0  0  0  0  0  0  0  0
    7.8781   -4.2399   26.9939 H   0  0  0  0  0  0  0  0  0  0  0  0
    9.5920   -4.0702   27.4565 H   0  0  0  0  0  0  0  0  0  0  0  0
   10.2455    1.0419   24.5710 H   0  0  0  0  0  0  0  0  0  0  0  0
    9.0345    1.9965   23.7496 H   0  0  0  0  0  0  0  0  0  0  0  0
   10.7927   -0.1029   22.4279 H   0  0  0  0  0  0  0  0  0  0  0  0
    6.7266    0.4930   16.8305 H   0  0  0  0  0  0  0  0  0  0  0  0
    8.2408   -1.5631   21.0968 H   0  0  0  0  0  0  0  0  0  0  0  0
  1  2  1  0  0  0  0
  1  3  2  0  0  0  0
  2  6  2  0  0  0  0
  3 12  1  0  0  0  0
  4  7  2  0  0  0  0
  4 13  1  0  0  0  0
  5  8  1  0  0  0  0
  5 13  2  0  0  0  0
  6 15  1  0  0  0  0
  7 17  1  0  0  0  0
  8 17  2  0  0  0  0
  9 14  1  0  0  0  0
  9 23  2  0  0  0  0
 10 14  2  0  0  0  0
 10 25  1  0  0  0  0
 11 16  2  0  0  0  0
 11 24  1  0  0  0  0
 12 15  2  0  0  0  0
 12 16  1  0  0  0  0
 13 22  1  0  0  0  0
 14 21  1  0  0  0  0
 15 24  1  0  0  0  0
 16 26  1  0  0  0  0
 17 28  1  0  0  0  0
 18 22  1  0  0  0  0
 18 26  1  0  0  0  0
 18 27  2  0  0  0  0
 19 25  1  0  0  0  0
 20 28  1  0  0  0  0
 21 22  1  6  0  0  0
 23 25  1  0  0  0  0
  1 29  1  0  0  0  0
  2 30  1  0  0  0  0
  3 31  1  0  0  0  0
  4 32  1  0  0  0  0
  5 33  1  0  0  0  0
  6 34  1  0  0  0  0
  7 35  1  0  0  0  0
  8 36  1  0  0  0  0
  9 37  1  0  0  0  0
 10 38  1  0  0  0  0
 11 39  1  0  0  0  0
 19 40  1  0  0  0  0
 19 41  1  0  0  0  0
 19 42  1  0  0  0  0
 20 43  1  0  0  0  0
 20 44  1  0  0  0  0
 20 45  1  0  0  0  0
 21 46  1  0  0  0  0
 21 47  1  0  0  0  0
 22 48  1  0  0  0  0
 24 49  1  0  0  0  0
 26 50  1  0  0  0  0
M  END
> <clash_score>
0

> <docking_score>
-7.157233715057373

> <overlap_score>
0.932023286819458

$$$$
BENZO_301_1
  -OEChem-08222022193D

 60 64  0     1  0  0  0  0  0999 V2000
   12.9362    3.6201   21.5881 C   0  0  0  0  0  0  0  0  0  0  0  0
    4.2750    1.7050   20.8490 C   0  0  0  0  0  0  0  0  0  0  0  0
   13.2938    2.5836   22.4503 C   0  0  0  0  0  0  0  0  0  0  0  0
   11.5899    3.9127   21.3699 C   0  0  0  0  0  0  0  0  0  0  0  0
    3.9160    2.0630   19.5520 C   0  0  0  0  0  0  0  0  0  0  0  0
    5.4210    0.9600   21.0930 C   0  0  0  0  0  0  0  0  0  0  0  0
   12.3051    1.8395   23.0941 C   0  0  0  0  0  0  0  0  0  0  0  0
   10.6012    3.1686   22.0138 C   0  0  0  0  0  0  0  0  0  0  0  0
    9.0720   -1.1280   24.8640 C   0  0  0  0  0  0  0  0  0  0  0  0
    9.7200   -2.2600   22.8630 C   0  0  0  0  0  0  0  0  0  0  0  0
    4.6890    1.6810   18.4640 C   0  0  0  0  0  0  0  0  0  0  0  0
    8.9960   -2.3380   25.5320 C   0  0  0  0  0  0  0  0  0  0  0  0
    9.6730   -3.4710   23.5300 C   0  0  0  0  0  0  0  0  0  0  0  0
    7.6390   -0.2680   18.5410 C   0  0  0  0  0  0  0  0  0  0  0  0
    6.1790    0.5730   19.9990 C   0  0  0  0  0  0  0  0  0  0  0  0
   10.9588    2.1320   22.8759 C   0  0  0  0  0  0  0  0  0  0  0  0
    9.3350   -1.0880   23.5010 C   0  0  0  0  0  0  0  0  0  0  0  0
    5.8300    0.9190   18.6970 C   0  0  0  0  0  0  0  0  0  0  0  0
    9.3070   -3.5340   24.8780 C   0  0  0  0  0  0  0  0  0  0  0  0
    7.3170   -0.1610   19.8550 C   0  0  0  0  0  0  0  0  0  0  0  0
    8.3596   -5.0074   26.6306 C   0  0  0  0  0  0  0  0  0  0  0  0
    9.0420    0.3700   21.5280 C   0  0  0  0  0  0  0  0  0  0  0  0
    8.4719   -6.3982   27.2294 C   0  0  0  0  0  0  0  0  0  0  0  0
    9.9251   -6.7607   27.4801 C   0  0  0  0  0  0  0  0  0  0  0  0
   10.7833   -6.6095   26.2280 C   0  0  0  0  0  0  0  0  0  0  0  0
   10.0539   -5.9100   25.0821 C   0  0  0  0  0  0  0  0  0  0  0  0
    9.8870    1.3260   23.5730 C   0  0  0  0  0  0  0  0  0  0  0  0
    9.4560    0.1560   22.8130 C   0  0  1  0  0  0  0  0  0  0  0  0
    6.7580    0.3810   17.8350 N   0  0  0  0  0  0  0  0  0  0  0  0
    9.2529   -4.7797   25.5643 N   0  0  0  0  0  0  0  0  0  0  0  0
    8.1890   -0.7180   20.8700 N   0  0  0  0  0  0  0  0  0  0  0  0
    7.4954   -4.2357   27.0448 O   0  0  0  0  0  0  0  0  0  0  0  0
    9.2690    1.4140   20.9380 O   0  0  0  0  0  0  0  0  0  0  0  0
   13.7061    4.2003   21.0880 H   0  0  0  0  0  0  0  0  0  0  0  0
    3.6453    2.0152   21.6831 H   0  0  0  0  0  0  0  0  0  0  0  0
   14.3420    2.3564   22.6212 H   0  0  0  0  0  0  0  0  0  0  0  0
   11.3111    4.7204   20.6996 H   0  0  0  0  0  0  0  0  0  0  0  0
    3.0147    2.6520   19.3913 H   0  0  0  0  0  0  0  0  0  0  0  0
    5.6991    0.6995   22.1042 H   0  0  0  0  0  0  0  0  0  0  0  0
   12.5931    1.0335   23.7640 H   0  0  0  0  0  0  0  0  0  0  0  0
    9.5548    3.4036   21.8376 H   0  0  0  0  0  0  0  0  0  0  0  0
    8.9202   -0.1986   25.4206 H   0  0  0  0  0  0  0  0  0  0  0  0
   10.0631   -2.2319   21.8252 H   0  0  0  0  0  0  0  0  0  0  0  0
    4.4051    1.9733   17.4488 H   0  0  0  0  0  0  0  0  0  0  0  0
    8.6898   -2.3534   26.5810 H   0  0  0  0  0  0  0  0  0  0  0  0
    9.9254   -4.3899   22.9914 H   0  0  0  0  0  0  0  0  0  0  0  0
    8.4825   -0.7940   18.0623 H   0  0  0  0  0  0  0  0  0  0  0  0
    7.9324   -6.4149   28.1639 H   0  0  0  0  0  0  0  0  0  0  0  0
    8.0254   -7.0921   26.5330 H   0  0  0  0  0  0  0  0  0  0  0  0
   10.3386   -6.1268   28.2921 H   0  0  0  0  0  0  0  0  0  0  0  0
    9.9903   -7.8025   27.8535 H   0  0  0  0  0  0  0  0  0  0  0  0
   11.7036   -6.0405   26.4770 H   0  0  0  0  0  0  0  0  0  0  0  0
   11.1411   -7.6069   25.8917 H   0  0  0  0  0  0  0  0  0  0  0  0
   10.7783   -5.5162   24.3756 H   0  0  0  0  0  0  0  0  0  0  0  0
    9.4042   -6.6189   24.5805 H   0  0  0  0  0  0  0  0  0  0  0  0
   10.2417    1.0375   24.5711 H   0  0  0  0  0  0  0  0  0  0  0  0
    9.0279    1.9881   23.7492 H   0  0  0  0  0  0  0  0  0  0  0  0
   10.7949   -0.0994   22.4253 H   0  0  0  0  0  0  0  0  0  0  0  0
    6.7266    0.4930   16.8305 H   0  0  0  0  0  0  0  0  0  0  0  0
    8.2585   -1.5522   21.1129 H   0  0  0  0  0  0  0  0  0  0  0  0
  1  3  1  0  0  0  0
  1  4  2  0  0  0  0
  2  5  1  0  0  0  0
  2  6  2  0  0  0  0
  3  7  2  0  0  0  0
  4  8  1  0  0  0  0
  5 11  2  0  0  0  0
  6 15  1  0  0  0  0
  7 16  1  0  0  0  0
  8 16  2  0  0  0  0
  9 12  2  0  0  0  0
  9 17  1  0  0  0  0
 10 13  1  0  0  0  0
 10 17  2  0  0  0  0
 11 18  1  0  0  0  0
 12 19  1  0  0  0  0
 13 19  2  0  0  0  0
 14 20  2  0  0  0  0
 14 29  1  0  0  0  0
 15 18  2  0  0  0  0
 15 20  1  0  0  0  0
 16 27  1  0  0  0  0
 17 28  1  0  0  0  0
 18 29  1  0  0  0  0
 19 30  1  0  0  0  0
 20 31  1  0  0  0  0
 21 23  1  0  0  0  0
 21 30  1  0  0  0  0
 21 32  2  0  0  0  0
 22 28  1  1  0  0  0
 22 31  1  0  0  0  0
 22 33  2  0  0  0  0
 23 24  1  0  0  0  0
 24 25  1  0  0  0  0
 25 26  1  0  0  0  0
 26 30  1  0  0  0  0
 27 28  1  0  0  0  0
  1 34  1  0  0  0  0
  2 35  1  0  0  0  0
  3 36  1  0  0  0  0
  4 37  1  0  0  0  0
  5 38  1  0  0  0  0
  6 39  1  0  0  0  0
  7 40  1  0  0  0  0
  8 41  1  0  0  0  0
  9 42  1  0  0  0  0
 10 43  1  0  0  0  0
 11 44  1  0  0  0  0
 12 45  1  0  0  0  0
 13 46  1  0  0  0  0
 14 47  1  0  0  0  0
 23 48  1  0  0  0  0
 23 49  1  0  0  0  0
 24 50  1  0  0  0  0
 24 51  1  0  0  0  0
 25 52  1  0  0  0  0
 25 53  1  0  0  0  0
 26 54  1  0  0  0  0
 26 55  1  0  0  0  0
 27 56  1  0  0  0  0
 27 57  1  0  0  0  0
 28 58  1  0  0  0  0
 29 59  1  0  0  0  0
 31 60  1  0  0  0  0
M  END
> <clash_score>
1.3959141479736985

> <docking_score>
-7.786895751953125

> <overlap_score>
0.9816223978996277

$$$$
BENZO_300_1
  -OEChem-08222022193D

 57 61  0     1  0  0  0  0  0999 V2000
    4.2750    1.7050   20.8490 C   0  0  0  0  0  0  0  0  0  0  0  0
    3.9160    2.0630   19.5520 C   0  0  0  0  0  0  0  0  0  0  0  0
    5.4210    0.9600   21.0930 C   0  0  0  0  0  0  0  0  0  0  0  0
    9.0720   -1.1280   24.8640 C   0  0  0  0  0  0  0  0  0  0  0  0
    9.7200   -2.2600   22.8630 C   0  0  0  0  0  0  0  0  0  0  0  0
    4.6890    1.6810   18.4640 C   0  0  0  0  0  0  0  0  0  0  0  0
    8.9960   -2.3380   25.5320 C   0  0  0  0  0  0  0  0  0  0  0  0
    9.6730   -3.4710   23.5300 C   0  0  0  0  0  0  0  0  0  0  0  0
   12.3967    0.6931   23.7036 C   0  0  0  0  0  0  0  0  0  0  0  0
    7.6390   -0.2680   18.5410 C   0  0  0  0  0  0  0  0  0  0  0  0
   13.4249    0.5732   24.6125 C   0  0  0  0  0  0  0  0  0  0  0  0
   11.3289    1.2940   25.6787 C   0  0  0  0  0  0  0  0  0  0  0  0
    6.1790    0.5730   19.9990 C   0  0  0  0  0  0  0  0  0  0  0  0
    9.3350   -1.0880   23.5010 C   0  0  0  0  0  0  0  0  0  0  0  0
   11.1825    1.1108   24.3212 C   0  0  0  0  0  0  0  0  0  0  0  0
    5.8300    0.9190   18.6970 C   0  0  0  0  0  0  0  0  0  0  0  0
    9.3070   -3.5340   24.8780 C   0  0  0  0  0  0  0  0  0  0  0  0
    7.3170   -0.1610   19.8550 C   0  0  0  0  0  0  0  0  0  0  0  0
    8.3596   -5.0074   26.6306 C   0  0  0  0  0  0  0  0  0  0  0  0
    9.0420    0.3700   21.5280 C   0  0  0  0  0  0  0  0  0  0  0  0
    8.4719   -6.3982   27.2294 C   0  0  0  0  0  0  0  0  0  0  0  0
    9.9251   -6.7607   27.4801 C   0  0  0  0  0  0  0  0  0  0  0  0
   10.7833   -6.6095   26.2280 C   0  0  0  0  0  0  0  0  0  0  0  0
   10.0539   -5.9100   25.0821 C   0  0  0  0  0  0  0  0  0  0  0  0
    9.8870    1.3260   23.5730 C   0  0  0  0  0  0  0  0  0  0  0  0
    9.4560    0.1560   22.8130 C   0  0  1  0  0  0  0  0  0  0  0  0
    6.7580    0.3810   17.8350 N   0  0  0  0  0  0  0  0  0  0  0  0
    9.2529   -4.7797   25.5643 N   0  0  0  0  0  0  0  0  0  0  0  0
    8.1890   -0.7180   20.8700 N   0  0  0  0  0  0  0  0  0  0  0  0
    7.4954   -4.2357   27.0448 O   0  0  0  0  0  0  0  0  0  0  0  0
    9.2690    1.4140   20.9380 O   0  0  0  0  0  0  0  0  0  0  0  0
   12.9251    0.9632   26.2032 S   0  0  0  0  0  0  0  0  0  0  0  0
    3.6453    2.0152   21.6831 H   0  0  0  0  0  0  0  0  0  0  0  0
    3.0147    2.6520   19.3913 H   0  0  0  0  0  0  0  0  0  0  0  0
    5.6991    0.6995   22.1042 H   0  0  0  0  0  0  0  0  0  0  0  0
    8.9202   -0.1986   25.4206 H   0  0  0  0  0  0  0  0  0  0  0  0
   10.0631   -2.2319   21.8252 H   0  0  0  0  0  0  0  0  0  0  0  0
    4.4051    1.9733   17.4488 H   0  0  0  0  0  0  0  0  0  0  0  0
    8.6898   -2.3534   26.5810 H   0  0  0  0  0  0  0  0  0  0  0  0
    9.9254   -4.3899   22.9914 H   0  0  0  0  0  0  0  0  0  0  0  0
   12.5144    0.4894   22.6467 H   0  0  0  0  0  0  0  0  0  0  0  0
    8.4825   -0.7940   18.0623 H   0  0  0  0  0  0  0  0  0  0  0  0
   14.4454    0.2745   24.4187 H   0  0  0  0  0  0  0  0  0  0  0  0
   10.5774    1.6049   26.3912 H   0  0  0  0  0  0  0  0  0  0  0  0
    7.9324   -6.4149   28.1639 H   0  0  0  0  0  0  0  0  0  0  0  0
    8.0254   -7.0921   26.5330 H   0  0  0  0  0  0  0  0  0  0  0  0
   10.3386   -6.1268   28.2921 H   0  0  0  0  0  0  0  0  0  0  0  0
    9.9903   -7.8025   27.8535 H   0  0  0  0  0  0  0  0  0  0  0  0
   11.7036   -6.0405   26.4770 H   0  0  0  0  0  0  0  0  0  0  0  0
   11.1411   -7.6069   25.8917 H   0  0  0  0  0  0  0  0  0  0  0  0
   10.7783   -5.5162   24.3756 H   0  0  0  0  0  0  0  0  0  0  0  0
    9.4042   -6.6189   24.5805 H   0  0  0  0  0  0  0  0  0  0  0  0
    9.1090    1.6445   24.2791 H   0  0  0  0  0  0  0  0  0  0  0  0
   10.0281    2.1767   22.8918 H   0  0  0  0  0  0  0  0  0  0  0  0
   10.7949   -0.0994   22.4253 H   0  0  0  0  0  0  0  0  0  0  0  0
    6.7266    0.4930   16.8305 H   0  0  0  0  0  0  0  0  0  0  0  0
    8.2585   -1.5522   21.1129 H   0  0  0  0  0  0  0  0  0  0  0  0
  1  2  1  0  0  0  0
  1  3  2  0  0  0  0
  2  6  2  0  0  0  0
  3 13  1  0  0  0  0
  4  7  2  0  0  0  0
  4 14  1  0  0  0  0
  5  8  1  0  0  0  0
  5 14  2  0  0  0  0
  6 16  1  0  0  0  0
  7 17  1  0  0  0  0
  8 17  2  0  0  0  0
  9 11  2  0  0  0  0
  9 15  1  0  0  0  0
 10 18  2  0  0  0  0
 10 27  1  0  0  0  0
 11 32  1  0  0  0  0
 12 15  2  0  0  0  0
 12 32  1  0  0  0  0
 13 16  2  0  0  0  0
 13 18  1  0  0  0  0
 14 26  1  0  0  0  0
 15 25  1  0  0  0  0
 16 27  1  0  0  0  0
 17 28  1  0  0  0  0
 18 29  1  0  0  0  0
 19 21  1  0  0  0  0
 19 28  1  0  0  0  0
 19 30  2  0  0  0  0
 20 26  1  1  0  0  0
 20 29  1  0  0  0  0
 20 31  2  0  0  0  0
 21 22  1  0  0  0  0
 22 23  1  0  0  0  0
 23 24  1  0  0  0  0
 24 28  1  0  0  0  0
 25 26  1  0  0  0  0
  1 33  1  0  0  0  0
  2 34  1  0  0  0  0
  3 35  1  0  0  0  0
  4 36  1  0  0  0  0
  5 37  1  0  0  0  0
  6 38  1  0  0  0  0
  7 39  1  0  0  0  0
  8 40  1  0  0  0  0
  9 41  1  0  0  0  0
 10 42  1  0  0  0  0
 11 43  1  0  0  0  0
 12 44  1  0  0  0  0
 21 45  1  0  0  0  0
 21 46  1  0  0  0  0
 22 47  1  0  0  0  0
 22 48  1  0  0  0  0
 23 49  1  0  0  0  0
 23 50  1  0  0  0  0
 24 51  1  0  0  0  0
 24 52  1  0  0  0  0
 25 53  1  0  0  0  0
 25 54  1  0  0  0  0
 26 55  1  0  0  0  0
 27 56  1  0  0  0  0
 29 57  1  0  0  0  0
M  END
> <clash_score>
1.4148822703907502

> <docking_score>
-6.213534355163574

> <overlap_score>
0.9339728951454163

$$$$
BENZO_301_2
  -OEChem-08222022193D

 60 64  0     1  0  0  0  0  0999 V2000
   14.1299    2.0083   23.3926 C   0  0  0  0  0  0  0  0  0  0  0  0
    4.2750    1.7050   20.8490 C   0  0  0  0  0  0  0  0  0  0  0  0
   13.5950    1.2059   24.4004 C   0  0  0  0  0  0  0  0  0  0  0  0
   13.2889    2.5894   22.4436 C   0  0  0  0  0  0  0  0  0  0  0  0
    3.9160    2.0630   19.5520 C   0  0  0  0  0  0  0  0  0  0  0  0
    5.4210    0.9600   21.0930 C   0  0  0  0  0  0  0  0  0  0  0  0
   12.2191    0.9845   24.4591 C   0  0  0  0  0  0  0  0  0  0  0  0
   11.9129    2.3681   22.5023 C   0  0  0  0  0  0  0  0  0  0  0  0
    9.0720   -1.1280   24.8640 C   0  0  0  0  0  0  0  0  0  0  0  0
    9.7200   -2.2600   22.8630 C   0  0  0  0  0  0  0  0  0  0  0  0
    4.6890    1.6810   18.4640 C   0  0  0  0  0  0  0  0  0  0  0  0
    8.9960   -2.3380   25.5320 C   0  0  0  0  0  0  0  0  0  0  0  0
    9.6730   -3.4710   23.5300 C   0  0  0  0  0  0  0  0  0  0  0  0
    7.6390   -0.2680   18.5410 C   0  0  0  0  0  0  0  0  0  0  0  0
    6.1790    0.5730   19.9990 C   0  0  0  0  0  0  0  0  0  0  0  0
   11.3780    1.5656   23.5101 C   0  0  0  0  0  0  0  0  0  0  0  0
    9.3350   -1.0880   23.5010 C   0  0  0  0  0  0  0  0  0  0  0  0
    5.8300    0.9190   18.6970 C   0  0  0  0  0  0  0  0  0  0  0  0
    9.3070   -3.5340   24.8780 C   0  0  0  0  0  0  0  0  0  0  0  0
    7.3170   -0.1610   19.8550 C   0  0  0  0  0  0  0  0  0  0  0  0
    8.3596   -5.0074   26.6306 C   0  0  0  0  0  0  0  0  0  0  0  0
    9.0420    0.3700   21.5280 C   0  0  0  0  0  0  0  0  0  0  0  0
    8.4719   -6.3982   27.2294 C   0  0  0  0  0  0  0  0  0  0  0  0
    9.9251   -6.7607   27.4801 C   0  0  0  0  0  0  0  0  0  0  0  0
   10.7833   -6.6095   26.2280 C   0  0  0  0  0  0  0  0  0  0  0  0
   10.0539   -5.9100   25.0821 C   0  0  0  0  0  0  0  0  0  0  0  0
    9.8870    1.3260   23.5730 C   0  0  0  0  0  0  0  0  0  0  0  0
    9.4560    0.1560   22.8130 C   0  0  2  0  0  0  0  0  0  0  0  0
    6.7580    0.3810   17.8350 N   0  0  0  0  0  0  0  0  0  0  0  0
    9.2529   -4.7797   25.5643 N   0  0  0  0  0  0  0  0  0  0  0  0
    8.1890   -0.7180   20.8700 N   0  0  0  0  0  0  0  0  0  0  0  0
    7.4954   -4.2357   27.0448 O   0  0  0  0  0  0  0  0  0  0  0  0
    9.2690    1.4140   20.9380 O   0  0  0  0  0  0  0  0  0  0  0  0
   15.2011    2.1816   23.3478 H   0  0  0  0  0  0  0  0  0  0  0  0
    3.6453    2.0152   21.6831 H   0  0  0  0  0  0  0  0  0  0  0  0
   14.2496    0.7542   25.1401 H   0  0  0  0  0  0  0  0  0  0  0  0
   13.7049    3.2151   21.6595 H   0  0  0  0  0  0  0  0  0  0  0  0
    3.0147    2.6520   19.3913 H   0  0  0  0  0  0  0  0  0  0  0  0
    5.6991    0.6995   22.1042 H   0  0  0  0  0  0  0  0  0  0  0  0
   11.8112    0.3577   25.2478 H   0  0  0  0  0  0  0  0  0  0  0  0
   11.2654    2.8248   21.7586 H   0  0  0  0  0  0  0  0  0  0  0  0
    8.9202   -0.1986   25.4206 H   0  0  0  0  0  0  0  0  0  0  0  0
   10.0631   -2.2319   21.8252 H   0  0  0  0  0  0  0  0  0  0  0  0
    4.4051    1.9733   17.4488 H   0  0  0  0  0  0  0  0  0  0  0  0
    8.6898   -2.3534   26.5810 H   0  0  0  0  0  0  0  0  0  0  0  0
    9.9254   -4.3899   22.9914 H   0  0  0  0  0  0  0  0  0  0  0  0
    8.4825   -0.7940   18.0623 H   0  0  0  0  0  0  0  0  0  0  0  0
    7.9324   -6.4149   28.1639 H   0  0  0  0  0  0  0  0  0  0  0  0
    8.0254   -7.0921   26.5330 H   0  0  0  0  0  0  0  0  0  0  0  0
   10.3386   -6.1268   28.2921 H   0  0  0  0  0  0  0  0  0  0  0  0
    9.9903   -7.8025   27.8535 H   0  0  0  0  0  0  0  0  0  0  0  0
   11.7036   -6.0405   26.4770 H   0  0  0  0  0  0  0  0  0  0  0  0
   11.1411   -7.6069   25.8917 H   0  0  0  0  0  0  0  0  0  0  0  0
   10.7783   -5.5162   24.3756 H   0  0  0  0  0  0  0  0  0  0  0  0
    9.4042   -6.6189   24.5805 H   0  0  0  0  0  0  0  0  0  0  0  0
    9.5761    1.2490   24.6231 H   0  0  0  0  0  0  0  0  0  0  0  0
    9.3845    2.2231   23.1854 H   0  0  0  0  0  0  0  0  0  0  0  0
    8.0674    0.5009   23.2732 H   0  0  0  0  0  0  0  0  0  0  0  0
    6.7266    0.4930   16.8305 H   0  0  0  0  0  0  0  0  0  0  0  0
    8.2585   -1.5522   21.1129 H   0  0  0  0  0  0  0  0  0  0  0  0
  1  3  1  0  0  0  0
  1  4  2  0  0  0  0
  2  5  1  0  0  0  0
  2  6  2  0  0  0  0
  3  7  2  0  0  0  0
  4  8  1  0  0  0  0
  5 11  2  0  0  0  0
  6 15  1  0  0  0  0
  7 16  1  0  0  0  0
  8 16  2  0  0  0  0
  9 12  2  0  0  0  0
  9 17  1  0  0  0  0
 10 13  1  0  0  0  0
 10 17  2  0  0  0  0
 11 18  1  0  0  0  0
 12 19  1  0  0  0  0
 13 19  2  0  0  0  0
 14 20  2  0  0  0  0
 14 29  1  0  0  0  0
 15 18  2  0  0  0  0
 15 20  1  0  0  0  0
 16 27  1  0  0  0  0
 17 28  1  0  0  0  0
 18 29  1  0  0  0  0
 19 30  1  0  0  0  0
 20 31  1  0  0  0  0
 21 23  1  0  0  0  0
 21 30  1  0  0  0  0
 21 32  2  0  0  0  0
 22 28  1  6  0  0  0
 22 31  1  0  0  0  0
 22 33  2  0  0  0  0
 23 24  1  0  0  0  0
 24 25  1  0  0  0  0
 25 26  1  0  0  0  0
 26 30  1  0  0  0  0
 27 28  1  0  0  0  0
  1 34  1  0  0  0  0
  2 35  1  0  0  0  0
  3 36  1  0  0  0  0
  4 37  1  0  0  0  0
  5 38  1  0  0  0  0
  6 39  1  0  0  0  0
  7 40  1  0  0  0  0
  8 41  1  0  0  0  0
  9 42  1  0  0  0  0
 10 43  1  0  0  0  0
 11 44  1  0  0  0  0
 12 45  1  0  0  0  0
 13 46  1  0  0  0  0
 14 47  1  0  0  0  0
 23 48  1  0  0  0  0
 23 49  1  0  0  0  0
 24 50  1  0  0  0  0
 24 51  1  0  0  0  0
 25 52  1  0  0  0  0
 25 53  1  0  0  0  0
 26 54  1  0  0  0  0
 26 55  1  0  0  0  0
 27 56  1  0  0  0  0
 27 57  1  0  0  0  0
 28 58  1  0  0  0  0
 29 59  1  0  0  0  0
 31 60  1  0  0  0  0
M  END
> <clash_score>
0.7790931276820443

> <docking_score>
-7.881941795349121

> <overlap_score>
1.018000602722168

$$$$
BENZO_300_2
  -OEChem-08222022193D

 57 61  0     1  0  0  0  0  0999 V2000
    4.2750    1.7050   20.8490 C   0  0  0  0  0  0  0  0  0  0  0  0
    3.9160    2.0630   19.5520 C   0  0  0  0  0  0  0  0  0  0  0  0
    5.4210    0.9600   21.0930 C   0  0  0  0  0  0  0  0  0  0  0  0
    9.0720   -1.1280   24.8640 C   0  0  0  0  0  0  0  0  0  0  0  0
    9.7200   -2.2600   22.8630 C   0  0  0  0  0  0  0  0  0  0  0  0
    4.6890    1.6810   18.4640 C   0  0  0  0  0  0  0  0  0  0  0  0
    8.9960   -2.3380   25.5320 C   0  0  0  0  0  0  0  0  0  0  0  0
    9.6730   -3.4710   23.5300 C   0  0  0  0  0  0  0  0  0  0  0  0
   12.3482    0.5240   23.4466 C   0  0  0  0  0  0  0  0  0  0  0  0
    7.6390   -0.2680   18.5410 C   0  0  0  0  0  0  0  0  0  0  0  0
   13.6337    1.0165   23.3985 C   0  0  0  0  0  0  0  0  0  0  0  0
   11.9591    2.8147   23.5083 C   0  0  0  0  0  0  0  0  0  0  0  0
    6.1790    0.5730   19.9990 C   0  0  0  0  0  0  0  0  0  0  0  0
    9.3350   -1.0880   23.5010 C   0  0  0  0  0  0  0  0  0  0  0  0
   11.3780    1.5656   23.5101 C   0  0  0  0  0  0  0  0  0  0  0  0
    5.8300    0.9190   18.6970 C   0  0  0  0  0  0  0  0  0  0  0  0
    9.3070   -3.5340   24.8780 C   0  0  0  0  0  0  0  0  0  0  0  0
    7.3170   -0.1610   19.8550 C   0  0  0  0  0  0  0  0  0  0  0  0
    8.3596   -5.0074   26.6306 C   0  0  0  0  0  0  0  0  0  0  0  0
    9.0420    0.3700   21.5280 C   0  0  0  0  0  0  0  0  0  0  0  0
    8.4719   -6.3982   27.2294 C   0  0  0  0  0  0  0  0  0  0  0  0
    9.9251   -6.7607   27.4801 C   0  0  0  0  0  0  0  0  0  0  0  0
   10.7833   -6.6095   26.2280 C   0  0  0  0  0  0  0  0  0  0  0  0
   10.0539   -5.9100   25.0821 C   0  0  0  0  0  0  0  0  0  0  0  0
    9.8870    1.3260   23.5730 C   0  0  0  0  0  0  0  0  0  0  0  0
    9.4560    0.1560   22.8130 C   0  0  2  0  0  0  0  0  0  0  0  0
    6.7580    0.3810   17.8350 N   0  0  0  0  0  0  0  0  0  0  0  0
    9.2529   -4.7797   25.5643 N   0  0  0  0  0  0  0  0  0  0  0  0
    8.1890   -0.7180   20.8700 N   0  0  0  0  0  0  0  0  0  0  0  0
    7.4954   -4.2357   27.0448 O   0  0  0  0  0  0  0  0  0  0  0  0
    9.2690    1.4140   20.9380 O   0  0  0  0  0  0  0  0  0  0  0  0
   13.6675    2.7283   23.4300 S   0  0  0  0  0  0  0  0  0  0  0  0
    3.6453    2.0152   21.6831 H   0  0  0  0  0  0  0  0  0  0  0  0
    3.0147    2.6520   19.3913 H   0  0  0  0  0  0  0  0  0  0  0  0
    5.6991    0.6995   22.1042 H   0  0  0  0  0  0  0  0  0  0  0  0
    8.9202   -0.1986   25.4206 H   0  0  0  0  0  0  0  0  0  0  0  0
   10.0631   -2.2319   21.8252 H   0  0  0  0  0  0  0  0  0  0  0  0
    4.4051    1.9733   17.4488 H   0  0  0  0  0  0  0  0  0  0  0  0
    8.6898   -2.3534   26.5810 H   0  0  0  0  0  0  0  0  0  0  0  0
    9.9254   -4.3899   22.9914 H   0  0  0  0  0  0  0  0  0  0  0  0
   12.1191   -0.5341   23.4370 H   0  0  0  0  0  0  0  0  0  0  0  0
    8.4825   -0.7940   18.0623 H   0  0  0  0  0  0  0  0  0  0  0  0
   14.5547    0.4532   23.3470 H   0  0  0  0  0  0  0  0  0  0  0  0
   11.4661    3.7761   23.5503 H   0  0  0  0  0  0  0  0  0  0  0  0
    7.9324   -6.4149   28.1639 H   0  0  0  0  0  0  0  0  0  0  0  0
    8.0254   -7.0921   26.5330 H   0  0  0  0  0  0  0  0  0  0  0  0
   10.3386   -6.1268   28.2921 H   0  0  0  0  0  0  0  0  0  0  0  0
    9.9903   -7.8025   27.8535 H   0  0  0  0  0  0  0  0  0  0  0  0
   11.7036   -6.0405   26.4770 H   0  0  0  0  0  0  0  0  0  0  0  0
   11.1411   -7.6069   25.8917 H   0  0  0  0  0  0  0  0  0  0  0  0
   10.7783   -5.5162   24.3756 H   0  0  0  0  0  0  0  0  0  0  0  0
    9.4042   -6.6189   24.5805 H   0  0  0  0  0  0  0  0  0  0  0  0
    9.5761    1.2490   24.6231 H   0  0  0  0  0  0  0  0  0  0  0  0
    9.3845    2.2231   23.1854 H   0  0  0  0  0  0  0  0  0  0  0  0
    8.0674    0.5009   23.2732 H   0  0  0  0  0  0  0  0  0  0  0  0
    6.7266    0.4930   16.8305 H   0  0  0  0  0  0  0  0  0  0  0  0
    8.2585   -1.5522   21.1129 H   0  0  0  0  0  0  0  0  0  0  0  0
  1  2  1  0  0  0  0
  1  3  2  0  0  0  0
  2  6  2  0  0  0  0
  3 13  1  0  0  0  0
  4  7  2  0  0  0  0
  4 14  1  0  0  0  0
  5  8  1  0  0  0  0
  5 14  2  0  0  0  0
  6 16  1  0  0  0  0
  7 17  1  0  0  0  0
  8 17  2  0  0  0  0
  9 11  2  0  0  0  0
  9 15  1  0  0  0  0
 10 18  2  0  0  0  0
 10 27  1  0  0  0  0
 11 32  1  0  0  0  0
 12 15  2  0  0  0  0
 12 32  1  0  0  0  0
 13 16  2  0  0  0  0
 13 18  1  0  0  0  0
 14 26  1  0  0  0  0
 15 25  1  0  0  0  0
 16 27  1  0  0  0  0
 17 28  1  0  0  0  0
 18 29  1  0  0  0  0
 19 21  1  0  0  0  0
 19 28  1  0  0  0  0
 19 30  2  0  0  0  0
 20 26  1  6  0  0  0
 20 29  1  0  0  0  0
 20 31  2  0  0  0  0
 21 22  1  0  0  0  0
 22 23  1  0  0  0  0
 23 24  1  0  0  0  0
 24 28  1  0  0  0  0
 25 26  1  0  0  0  0
  1 33  1  0  0  0  0
  2 34  1  0  0  0  0
  3 35  1  0  0  0  0
  4 36  1  0  0  0  0
  5 37  1  0  0  0  0
  6 38  1  0  0  0  0
  7 39  1  0  0  0  0
  8 40  1  0  0  0  0
  9 41  1  0  0  0  0
 10 42  1  0  0  0  0
 11 43  1  0  0  0  0
 12 44  1  0  0  0  0
 21 45  1  0  0  0  0
 21 46  1  0  0  0  0
 22 47  1  0  0  0  0
 22 48  1  0  0  0  0
 23 49  1  0  0  0  0
 23 50  1  0  0  0  0
 24 51  1  0  0  0  0
 24 52  1  0  0  0  0
 25 53  1  0  0  0  0
 25 54  1  0  0  0  0
 26 55  1  0  0  0  0
 27 56  1  0  0  0  0
 29 57  1  0  0  0  0
M  END
> <clash_score>
0.7790931276820443

> <docking_score>
-8.25762939453125

> <overlap_score>
1.0096060037612915

$$$$
BENZO_302_1
  -OEChem-08222022193D

 60 64  0     1  0  0  0  0  0999 V2000
    4.2750    1.7050   20.8490 C   0  0  0  0  0  0  0  0  0  0  0  0
    3.9160    2.0630   19.5520 C   0  0  0  0  0  0  0  0  0  0  0  0
    6.3943    2.2386   24.7613 C   0  0  0  0  0  0  0  0  0  0  0  0
    5.4210    0.9600   21.0930 C   0  0  0  0  0  0  0  0  0  0  0  0
    7.4442    1.5740   24.1277 C   0  0  0  0  0  0  0  0  0  0  0  0
    9.0720   -1.1280   24.8640 C   0  0  0  0  0  0  0  0  0  0  0  0
    9.7200   -2.2600   22.8630 C   0  0  0  0  0  0  0  0  0  0  0  0
    4.6890    1.6810   18.4640 C   0  0  0  0  0  0  0  0  0  0  0  0
    8.9960   -2.3380   25.5320 C   0  0  0  0  0  0  0  0  0  0  0  0
    9.6730   -3.4710   23.5300 C   0  0  0  0  0  0  0  0  0  0  0  0
    6.6498    3.3769   25.5260 C   0  0  0  0  0  0  0  0  0  0  0  0
    9.0052    3.1857   25.0236 C   0  0  0  0  0  0  0  0  0  0  0  0
    7.6390   -0.2680   18.5410 C   0  0  0  0  0  0  0  0  0  0  0  0
    6.1790    0.5730   19.9990 C   0  0  0  0  0  0  0  0  0  0  0  0
    9.3350   -1.0880   23.5010 C   0  0  0  0  0  0  0  0  0  0  0  0
    8.7497    2.0475   24.2588 C   0  0  0  0  0  0  0  0  0  0  0  0
    5.8300    0.9190   18.6970 C   0  0  0  0  0  0  0  0  0  0  0  0
    9.3070   -3.5340   24.8780 C   0  0  0  0  0  0  0  0  0  0  0  0
    7.3170   -0.1610   19.8550 C   0  0  0  0  0  0  0  0  0  0  0  0
    7.9552    3.8504   25.6571 C   0  0  0  0  0  0  0  0  0  0  0  0
    8.3596   -5.0075   26.6307 C   0  0  0  0  0  0  0  0  0  0  0  0
    9.0420    0.3700   21.5280 C   0  0  0  0  0  0  0  0  0  0  0  0
    8.4579   -6.4048   27.2167 C   0  0  0  0  0  0  0  0  0  0  0  0
    8.4717   -7.4504   26.1157 C   0  0  0  0  0  0  0  0  0  0  0  0
    9.5645   -7.1893   25.0840 C   0  0  0  0  0  0  0  0  0  0  0  0
   10.2327   -5.8252   25.2500 C   0  0  0  0  0  0  0  0  0  0  0  0
    9.8870    1.3260   23.5730 C   0  0  0  0  0  0  0  0  0  0  0  0
    9.4560    0.1560   22.8130 C   0  0  1  0  0  0  0  0  0  0  0  0
    6.7580    0.3810   17.8350 N   0  0  0  0  0  0  0  0  0  0  0  0
    9.2529   -4.7799   25.5644 N   0  0  0  0  0  0  0  0  0  0  0  0
    8.1890   -0.7180   20.8700 N   0  0  0  0  0  0  0  0  0  0  0  0
    7.5989   -4.1866   27.1423 O   0  0  0  0  0  0  0  0  0  0  0  0
    9.2690    1.4140   20.9380 O   0  0  0  0  0  0  0  0  0  0  0  0
    8.2700    5.2542   26.6017 Cl  0  0  0  0  0  0  0  0  0  0  0  0
    3.6453    2.0152   21.6831 H   0  0  0  0  0  0  0  0  0  0  0  0
    3.0147    2.6520   19.3913 H   0  0  0  0  0  0  0  0  0  0  0  0
    5.3779    1.8695   24.6590 H   0  0  0  0  0  0  0  0  0  0  0  0
    5.6991    0.6995   22.1042 H   0  0  0  0  0  0  0  0  0  0  0  0
    7.2359    0.6877   23.5339 H   0  0  0  0  0  0  0  0  0  0  0  0
    8.9202   -0.1986   25.4206 H   0  0  0  0  0  0  0  0  0  0  0  0
   10.0631   -2.2319   21.8252 H   0  0  0  0  0  0  0  0  0  0  0  0
    4.4051    1.9733   17.4488 H   0  0  0  0  0  0  0  0  0  0  0  0
    8.6898   -2.3534   26.5810 H   0  0  0  0  0  0  0  0  0  0  0  0
    9.9254   -4.3899   22.9914 H   0  0  0  0  0  0  0  0  0  0  0  0
    5.8217    3.8847   26.0144 H   0  0  0  0  0  0  0  0  0  0  0  0
   10.0247    3.5513   25.1223 H   0  0  0  0  0  0  0  0  0  0  0  0
    8.4825   -0.7940   18.0623 H   0  0  0  0  0  0  0  0  0  0  0  0
    9.3705   -6.4746   27.7883 H   0  0  0  0  0  0  0  0  0  0  0  0
    7.6054   -6.5499   27.8634 H   0  0  0  0  0  0  0  0  0  0  0  0
    8.6096   -8.4605   26.5547 H   0  0  0  0  0  0  0  0  0  0  0  0
    7.4835   -7.4764   25.6139 H   0  0  0  0  0  0  0  0  0  0  0  0
   10.3359   -7.9850   25.1529 H   0  0  0  0  0  0  0  0  0  0  0  0
    9.1459   -7.2795   24.0580 H   0  0  0  0  0  0  0  0  0  0  0  0
   10.9408   -5.8640   26.0724 H   0  0  0  0  0  0  0  0  0  0  0  0
   10.7522   -5.5631   24.3346 H   0  0  0  0  0  0  0  0  0  0  0  0
   10.4307    2.0325   22.9323 H   0  0  0  0  0  0  0  0  0  0  0  0
   10.6065    1.0196   24.3450 H   0  0  0  0  0  0  0  0  0  0  0  0
   10.7949   -0.0994   22.4253 H   0  0  0  0  0  0  0  0  0  0  0  0
    6.7266    0.4930   16.8305 H   0  0  0  0  0  0  0  0  0  0  0  0
    8.2585   -1.5522   21.1129 H   0  0  0  0  0  0  0  0  0  0  0  0
  1  2  1  0  0  0  0
  1  4  2  0  0  0  0
  2  8  2  0  0  0  0
  3  5  2  0  0  0  0
  3 11  1  0  0  0  0
  4 14  1  0  0  0  0
  5 16  1  0  0  0  0
  6  9  2  0  0  0  0
  6 15  1  0  0  0  0
  7 10  1  0  0  0  0
  7 15  2  0  0  0  0
  8 17  1  0  0  0  0
  9 18  1  0  0  0  0
 10 18  2  0  0  0  0
 11 20  2  0  0  0  0
 12 16  2  0  0  0  0
 12 20  1  0  0  0  0
 13 19  2  0  0  0  0
 13 29  1  0  0  0  0
 14 17  2  0  0  0  0
 14 19  1  0  0  0  0
 15 28  1  0  0  0  0
 16 27  1  0  0  0  0
 17 29  1  0  0  0  0
 18 30  1  0  0  0  0
 19 31  1  0  0  0  0
 20 34  1  0  0  0  0
 21 23  1  0  0  0  0
 21 30  1  0  0  0  0
 21 32  2  0  0  0  0
 22 28  1  1  0  0  0
 22 31  1  0  0  0  0
 22 33  2  0  0  0  0
 23 24  1  0  0  0  0
 24 25  1  0  0  0  0
 25 26  1  0  0  0  0
 26 30  1  0  0  0  0
 27 28  1  0  0  0  0
  1 35  1  0  0  0  0
  2 36  1  0  0  0  0
  3 37  1  0  0  0  0
  4 38  1  0  0  0  0
  5 39  1  0  0  0  0
  6 40  1  0  0  0  0
  7 41  1  0  0  0  0
  8 42  1  0  0  0  0
  9 43  1  0  0  0  0
 10 44  1  0  0  0  0
 11 45  1  0  0  0  0
 12 46  1  0  0  0  0
 13 47  1  0  0  0  0
 23 48  1  0  0  0  0
 23 49  1  0  0  0  0
 24 50  1  0  0  0  0
 24 51  1  0  0  0  0
 25 52  1  0  0  0  0
 25 53  1  0  0  0  0
 26 54  1  0  0  0  0
 26 55  1  0  0  0  0
 27 56  1  0  0  0  0
 27 57  1  0  0  0  0
 28 58  1  0  0  0  0
 29 59  1  0  0  0  0
 31 60  1  0  0  0  0
M  END
> <clash_score>
0.6354372295654396

> <docking_score>
-7.077327251434326

> <overlap_score>
0.8705697059631348

$$$$
BENZO_302_2
  -OEChem-08222022193D

 60 64  0     1  0  0  0  0  0999 V2000
    4.2750    1.7050   20.8490 C   0  0  0  0  0  0  0  0  0  0  0  0
    3.9160    2.0630   19.5520 C   0  0  0  0  0  0  0  0  0  0  0  0
   13.6270    0.7091   23.2980 C   0  0  0  0  0  0  0  0  0  0  0  0
    5.4210    0.9600   21.0930 C   0  0  0  0  0  0  0  0  0  0  0  0
   12.2510    0.4885   23.3573 C   0  0  0  0  0  0  0  0  0  0  0  0
    9.0720   -1.1280   24.8640 C   0  0  0  0  0  0  0  0  0  0  0  0
    9.7200   -2.2600   22.8630 C   0  0  0  0  0  0  0  0  0  0  0  0
    4.6890    1.6810   18.4640 C   0  0  0  0  0  0  0  0  0  0  0  0
    8.9960   -2.3380   25.5320 C   0  0  0  0  0  0  0  0  0  0  0  0
    9.6730   -3.4710   23.5300 C   0  0  0  0  0  0  0  0  0  0  0  0
   14.1301    2.0067   23.3917 C   0  0  0  0  0  0  0  0  0  0  0  0
   11.8810    2.8633   23.6037 C   0  0  0  0  0  0  0  0  0  0  0  0
    7.6390   -0.2680   18.5410 C   0  0  0  0  0  0  0  0  0  0  0  0
    6.1790    0.5730   19.9990 C   0  0  0  0  0  0  0  0  0  0  0  0
    9.3350   -1.0880   23.5010 C   0  0  0  0  0  0  0  0  0  0  0  0
   11.3780    1.5656   23.5101 C   0  0  0  0  0  0  0  0  0  0  0  0
    5.8300    0.9190   18.6970 C   0  0  0  0  0  0  0  0  0  0  0  0
    9.3070   -3.5340   24.8780 C   0  0  0  0  0  0  0  0  0  0  0  0
    7.3170   -0.1610   19.8550 C   0  0  0  0  0  0  0  0  0  0  0  0
   13.2571    3.0838   23.5445 C   0  0  0  0  0  0  0  0  0  0  0  0
    8.3596   -5.0074   26.6306 C   0  0  0  0  0  0  0  0  0  0  0  0
    9.0420    0.3700   21.5280 C   0  0  0  0  0  0  0  0  0  0  0  0
    8.4719   -6.3982   27.2294 C   0  0  0  0  0  0  0  0  0  0  0  0
    9.9251   -6.7607   27.4801 C   0  0  0  0  0  0  0  0  0  0  0  0
   10.7833   -6.6095   26.2280 C   0  0  0  0  0  0  0  0  0  0  0  0
   10.0539   -5.9100   25.0821 C   0  0  0  0  0  0  0  0  0  0  0  0
    9.8870    1.3260   23.5730 C   0  0  0  0  0  0  0  0  0  0  0  0
    9.4560    0.1560   22.8130 C   0  0  2  0  0  0  0  0  0  0  0  0
    6.7580    0.3810   17.8350 N   0  0  0  0  0  0  0  0  0  0  0  0
    9.2529   -4.7797   25.5643 N   0  0  0  0  0  0  0  0  0  0  0  0
    8.1890   -0.7180   20.8700 N   0  0  0  0  0  0  0  0  0  0  0  0
    7.4954   -4.2357   27.0448 O   0  0  0  0  0  0  0  0  0  0  0  0
    9.2690    1.4140   20.9380 O   0  0  0  0  0  0  0  0  0  0  0  0
   13.8782    4.6847   23.6587 Cl  0  0  0  0  0  0  0  0  0  0  0  0
    3.6453    2.0152   21.6831 H   0  0  0  0  0  0  0  0  0  0  0  0
    3.0147    2.6520   19.3913 H   0  0  0  0  0  0  0  0  0  0  0  0
   14.3065   -0.1300   23.1789 H   0  0  0  0  0  0  0  0  0  0  0  0
    5.6991    0.6995   22.1042 H   0  0  0  0  0  0  0  0  0  0  0  0
   11.8679   -0.5259   23.2834 H   0  0  0  0  0  0  0  0  0  0  0  0
    8.9202   -0.1986   25.4206 H   0  0  0  0  0  0  0  0  0  0  0  0
   10.0631   -2.2319   21.8252 H   0  0  0  0  0  0  0  0  0  0  0  0
    4.4051    1.9733   17.4488 H   0  0  0  0  0  0  0  0  0  0  0  0
    8.6898   -2.3534   26.5810 H   0  0  0  0  0  0  0  0  0  0  0  0
    9.9254   -4.3899   22.9914 H   0  0  0  0  0  0  0  0  0  0  0  0
   15.2048    2.1637   23.3436 H   0  0  0  0  0  0  0  0  0  0  0  0
   11.1962    3.6997   23.7233 H   0  0  0  0  0  0  0  0  0  0  0  0
    8.4825   -0.7940   18.0623 H   0  0  0  0  0  0  0  0  0  0  0  0
    7.9324   -6.4149   28.1639 H   0  0  0  0  0  0  0  0  0  0  0  0
    8.0254   -7.0921   26.5330 H   0  0  0  0  0  0  0  0  0  0  0  0
   10.3386   -6.1268   28.2921 H   0  0  0  0  0  0  0  0  0  0  0  0
    9.9903   -7.8025   27.8535 H   0  0  0  0  0  0  0  0  0  0  0  0
   11.7036   -6.0405   26.4770 H   0  0  0  0  0  0  0  0  0  0  0  0
   11.1411   -7.6069   25.8917 H   0  0  0  0  0  0  0  0  0  0  0  0
   10.7783   -5.5162   24.3756 H   0  0  0  0  0  0  0  0  0  0  0  0
    9.4042   -6.6189   24.5805 H   0  0  0  0  0  0  0  0  0  0  0  0
    9.5761    1.2490   24.6231 H   0  0  0  0  0  0  0  0  0  0  0  0
    9.3844    2.2231   23.1854 H   0  0  0  0  0  0  0  0  0  0  0  0
    8.0674    0.5009   23.2732 H   0  0  0  0  0  0  0  0  0  0  0  0
    6.7266    0.4930   16.8305 H   0  0  0  0  0  0  0  0  0  0  0  0
    8.2585   -1.5522   21.1129 H   0  0  0  0  0  0  0  0  0  0  0  0
  1  2  1  0  0  0  0
  1  4  2  0  0  0  0
  2  8  2  0  0  0  0
  3  5  2  0  0  0  0
  3 11  1  0  0  0  0
  4 14  1  0  0  0  0
  5 16  1  0  0  0  0
  6  9  2  0  0  0  0
  6 15  1  0  0  0  0
  7 10  1  0  0  0  0
  7 15  2  0  0  0  0
  8 17  1  0  0  0  0
  9 18  1  0  0  0  0
 10 18  2  0  0  0  0
 11 20  2  0  0  0  0
 12 16  2  0  0  0  0
 12 20  1  0  0  0  0
 13 19  2  0  0  0  0
 13 29  1  0  0  0  0
 14 17  2  0  0  0  0
 14 19  1  0  0  0  0
 15 28  1  0  0  0  0
 16 27  1  0  0  0  0
 17 29  1  0  0  0  0
 18 30  1  0  0  0  0
 19 31  1  0  0  0  0
 20 34  1  0  0  0  0
 21 23  1  0  0  0  0
 21 30  1  0  0  0  0
 21 32  2  0  0  0  0
 22 28  1  6  0  0  0
 22 31  1  0  0  0  0
 22 33  2  0  0  0  0
 23 24  1  0  0  0  0
 24 25  1  0  0  0  0
 25 26  1  0  0  0  0
 26 30  1  0  0  0  0
 27 28  1  0  0  0  0
  1 35  1  0  0  0  0
  2 36  1  0  0  0  0
  3 37  1  0  0  0  0
  4 38  1  0  0  0  0
  5 39  1  0  0  0  0
  6 40  1  0  0  0  0
  7 41  1  0  0  0  0
  8 42  1  0  0  0  0
  9 43  1  0  0  0  0
 10 44  1  0  0  0  0
 11 45  1  0  0  0  0
 12 46  1  0  0  0  0
 13 47  1  0  0  0  0
 23 48  1  0  0  0  0
 23 49  1  0  0  0  0
 24 50  1  0  0  0  0
 24 51  1  0  0  0  0
 25 52  1  0  0  0  0
 25 53  1  0  0  0  0
 26 54  1  0  0  0  0
 26 55  1  0  0  0  0
 27 56  1  0  0  0  0
 27 57  1  0  0  0  0
 28 58  1  0  0  0  0
 29 59  1  0  0  0  0
 31 60  1  0  0  0  0
M  END
> <clash_score>
0.7790931276820443

> <docking_score>
-7.496767044067383

> <overlap_score>
1.0263028144836426

$$$$
BENZO_305_1
  -OEChem-08222022193D

 59 63  0     1  0  0  0  0  0999 V2000
   12.9427    3.5803   21.5529 C   0  0  0  0  0  0  0  0  0  0  0  0
    4.2750    1.7050   20.8490 C   0  0  0  0  0  0  0  0  0  0  0  0
   13.2971    2.5494   22.4231 C   0  0  0  0  0  0  0  0  0  0  0  0
   11.5975    3.8801   21.3380 C   0  0  0  0  0  0  0  0  0  0  0  0
    3.9160    2.0630   19.5520 C   0  0  0  0  0  0  0  0  0  0  0  0
    5.4210    0.9600   21.0930 C   0  0  0  0  0  0  0  0  0  0  0  0
   12.3064    1.8183   23.0784 C   0  0  0  0  0  0  0  0  0  0  0  0
   10.6067    3.1489   21.9933 C   0  0  0  0  0  0  0  0  0  0  0  0
    9.0720   -1.1280   24.8640 C   0  0  0  0  0  0  0  0  0  0  0  0
    9.7200   -2.2600   22.8630 C   0  0  0  0  0  0  0  0  0  0  0  0
    4.6890    1.6810   18.4640 C   0  0  0  0  0  0  0  0  0  0  0  0
    8.9960   -2.3380   25.5320 C   0  0  0  0  0  0  0  0  0  0  0  0
    9.6730   -3.4710   23.5300 C   0  0  0  0  0  0  0  0  0  0  0  0
    7.6390   -0.2680   18.5410 C   0  0  0  0  0  0  0  0  0  0  0  0
    6.1790    0.5730   19.9990 C   0  0  0  0  0  0  0  0  0  0  0  0
   10.9611    2.1180   22.8635 C   0  0  0  0  0  0  0  0  0  0  0  0
    9.3350   -1.0880   23.5010 C   0  0  0  0  0  0  0  0  0  0  0  0
    5.8300    0.9190   18.6970 C   0  0  0  0  0  0  0  0  0  0  0  0
    9.3070   -3.5340   24.8780 C   0  0  0  0  0  0  0  0  0  0  0  0
    7.3170   -0.1610   19.8550 C   0  0  0  0  0  0  0  0  0  0  0  0
    9.0420    0.3700   21.5280 C   0  0  0  0  0  0  0  0  0  0  0  0
    9.5176   -4.8600   26.9769 C   0  0  0  0  0  0  0  0  0  0  0  0
    8.5166   -5.8725   24.9805 C   0  0  0  0  0  0  0  0  0  0  0  0
    8.1870   -5.0443   27.6986 C   0  0  0  0  0  0  0  0  0  0  0  0
    7.2201   -6.0348   25.7753 C   0  0  0  0  0  0  0  0  0  0  0  0
    9.8870    1.3260   23.5730 C   0  0  0  0  0  0  0  0  0  0  0  0
    9.4560    0.1560   22.8130 C   0  0  1  0  0  0  0  0  0  0  0  0
    6.7580    0.3810   17.8350 N   0  0  0  0  0  0  0  0  0  0  0  0
    9.2564   -4.7368   25.5411 N   0  0  0  0  0  0  0  0  0  0  0  0
    8.1890   -0.7180   20.8700 N   0  0  0  0  0  0  0  0  0  0  0  0
    9.2690    1.4140   20.9380 O   0  0  0  0  0  0  0  0  0  0  0  0
    7.4995   -6.1856   27.1717 O   0  0  0  0  0  0  0  0  0  0  0  0
   13.7143    4.1504   21.0437 H   0  0  0  0  0  0  0  0  0  0  0  0
    3.6453    2.0152   21.6831 H   0  0  0  0  0  0  0  0  0  0  0  0
   14.3446    2.3166   22.5913 H   0  0  0  0  0  0  0  0  0  0  0  0
   11.3212    4.6833   20.6614 H   0  0  0  0  0  0  0  0  0  0  0  0
    3.0147    2.6520   19.3913 H   0  0  0  0  0  0  0  0  0  0  0  0
    5.6991    0.6995   22.1042 H   0  0  0  0  0  0  0  0  0  0  0  0
   12.5919    1.0167   23.7545 H   0  0  0  0  0  0  0  0  0  0  0  0
    9.5611    3.3895   21.8196 H   0  0  0  0  0  0  0  0  0  0  0  0
    8.9214   -0.1986   25.4206 H   0  0  0  0  0  0  0  0  0  0  0  0
   10.0622   -2.2326   21.8251 H   0  0  0  0  0  0  0  0  0  0  0  0
    4.4051    1.9733   17.4488 H   0  0  0  0  0  0  0  0  0  0  0  0
    8.6882   -2.3542   26.5803 H   0  0  0  0  0  0  0  0  0  0  0  0
    9.9258   -4.3896   22.9914 H   0  0  0  0  0  0  0  0  0  0  0  0
    8.4825   -0.7940   18.0623 H   0  0  0  0  0  0  0  0  0  0  0  0
   10.0259   -3.9714   27.3647 H   0  0  0  0  0  0  0  0  0  0  0  0
   10.1570   -5.7322   27.1547 H   0  0  0  0  0  0  0  0  0  0  0  0
    9.1206   -6.7792   25.0735 H   0  0  0  0  0  0  0  0  0  0  0  0
    8.2825   -5.7115   23.9263 H   0  0  0  0  0  0  0  0  0  0  0  0
    8.3631   -5.2257   28.7609 H   0  0  0  0  0  0  0  0  0  0  0  0
    7.5532   -4.1574   27.6103 H   0  0  0  0  0  0  0  0  0  0  0  0
    6.5460   -5.1840   25.6220 H   0  0  0  0  0  0  0  0  0  0  0  0
    6.6948   -6.9355   25.4433 H   0  0  0  0  0  0  0  0  0  0  0  0
   10.2455    1.0419   24.5710 H   0  0  0  0  0  0  0  0  0  0  0  0
    9.0345    1.9965   23.7496 H   0  0  0  0  0  0  0  0  0  0  0  0
   10.7927   -0.1029   22.4279 H   0  0  0  0  0  0  0  0  0  0  0  0
    6.7266    0.4930   16.8305 H   0  0  0  0  0  0  0  0  0  0  0  0
    8.2408   -1.5631   21.0968 H   0  0  0  0  0  0  0  0  0  0  0  0
  1  3  1  0  0  0  0
  1  4  2  0  0  0  0
  2  5  1  0  0  0  0
  2  6  2  0  0  0  0
  3  7  2  0  0  0  0
  4  8  1  0  0  0  0
  5 11  2  0  0  0  0
  6 15  1  0  0  0  0
  7 16  1  0  0  0  0
  8 16  2  0  0  0  0
  9 12  2  0  0  0  0
  9 17  1  0  0  0  0
 10 13  1  0  0  0  0
 10 17  2  0  0  0  0
 11 18  1  0  0  0  0
 12 19  1  0  0  0  0
 13 19  2  0  0  0  0
 14 20  2  0  0  0  0
 14 28  1  0  0  0  0
 15 18  2  0  0  0  0
 15 20  1  0  0  0  0
 16 26  1  0  0  0  0
 17 27  1  0  0  0  0
 18 28  1  0  0  0  0
 19 29  1  0  0  0  0
 20 30  1  0  0  0  0
 21 27  1  1  0  0  0
 21 30  1  0  0  0  0
 21 31  2  0  0  0  0
 22 24  1  0  0  0  0
 22 29  1  0  0  0  0
 23 25  1  0  0  0  0
 23 29  1  0  0  0  0
 24 32  1  0  0  0  0
 25 32  1  0  0  0  0
 26 27  1  0  0  0  0
  1 33  1  0  0  0  0
  2 34  1  0  0  0  0
  3 35  1  0  0  0  0
  4 36  1  0  0  0  0
  5 37  1  0  0  0  0
  6 38  1  0  0  0  0
  7 39  1  0  0  0  0
  8 40  1  0  0  0  0
  9 41  1  0  0  0  0
 10 42  1  0  0  0  0
 11 43  1  0  0  0  0
 12 44  1  0  0  0  0
 13 45  1  0  0  0  0
 14 46  1  0  0  0  0
 22 47  1  0  0  0  0
 22 48  1  0  0  0  0
 23 49  1  0  0  0  0
 23 50  1  0  0  0  0
 24 51  1  0  0  0  0
 24 52  1  0  0  0  0
 25 53  1  0  0  0  0
 25 54  1  0  0  0  0
 26 55  1  0  0  0  0
 26 56  1  0  0  0  0
 27 57  1  0  0  0  0
 28 58  1  0  0  0  0
 30 59  1  0  0  0  0
M  END
> <clash_score>
0.61638880818087

> <docking_score>
-8.706565856933594

> <overlap_score>
0.9712100028991699

$$$$
BENZO_303_2
  -OEChem-08222022193D

 60 64  0     1  0  0  0  0  0999 V2000
    4.2750    1.7050   20.8490 C   0  0  0  0  0  0  0  0  0  0  0  0
    3.9160    2.0630   19.5520 C   0  0  0  0  0  0  0  0  0  0  0  0
    5.4210    0.9600   21.0930 C   0  0  0  0  0  0  0  0  0  0  0  0
    9.0720   -1.1280   24.8640 C   0  0  0  0  0  0  0  0  0  0  0  0
    9.7200   -2.2600   22.8630 C   0  0  0  0  0  0  0  0  0  0  0  0
    4.6890    1.6810   18.4640 C   0  0  0  0  0  0  0  0  0  0  0  0
    8.9960   -2.3380   25.5320 C   0  0  0  0  0  0  0  0  0  0  0  0
    9.6730   -3.4710   23.5300 C   0  0  0  0  0  0  0  0  0  0  0  0
   12.3549    1.9791   22.9727 C   0  0  0  0  0  0  0  0  0  0  0  0
   10.7877    3.1780   22.0022 C   0  0  0  0  0  0  0  0  0  0  0  0
    7.6390   -0.2680   18.5410 C   0  0  0  0  0  0  0  0  0  0  0  0
    6.1790    0.5730   19.9990 C   0  0  0  0  0  0  0  0  0  0  0  0
    9.3350   -1.0880   23.5010 C   0  0  0  0  0  0  0  0  0  0  0  0
   10.9588    2.1320   22.8759 C   0  0  0  0  0  0  0  0  0  0  0  0
    5.8300    0.9190   18.6970 C   0  0  0  0  0  0  0  0  0  0  0  0
    9.3070   -3.5340   24.8780 C   0  0  0  0  0  0  0  0  0  0  0  0
    7.3170   -0.1610   19.8550 C   0  0  0  0  0  0  0  0  0  0  0  0
    8.3596   -5.0074   26.6306 C   0  0  0  0  0  0  0  0  0  0  0  0
    9.0420    0.3700   21.5280 C   0  0  0  0  0  0  0  0  0  0  0  0
    8.4719   -6.3982   27.2294 C   0  0  0  0  0  0  0  0  0  0  0  0
    9.9251   -6.7607   27.4801 C   0  0  0  0  0  0  0  0  0  0  0  0
   10.7833   -6.6095   26.2280 C   0  0  0  0  0  0  0  0  0  0  0  0
   10.0539   -5.9100   25.0821 C   0  0  0  0  0  0  0  0  0  0  0  0
   12.3765    4.6443   20.7356 C   0  0  0  0  0  0  0  0  0  0  0  0
    9.8870    1.3260   23.5730 C   0  0  0  0  0  0  0  0  0  0  0  0
    9.4560    0.1560   22.8130 C   0  0  2  0  0  0  0  0  0  0  0  0
   13.0232    2.8575   22.2206 N   0  0  0  0  0  0  0  0  0  0  0  0
    6.7580    0.3810   17.8350 N   0  0  0  0  0  0  0  0  0  0  0  0
   12.0428    3.5724   21.6427 N   0  0  0  0  0  0  0  0  0  0  0  0
    9.2529   -4.7797   25.5643 N   0  0  0  0  0  0  0  0  0  0  0  0
    8.1890   -0.7180   20.8700 N   0  0  0  0  0  0  0  0  0  0  0  0
    7.4954   -4.2357   27.0448 O   0  0  0  0  0  0  0  0  0  0  0  0
    9.2690    1.4140   20.9380 O   0  0  0  0  0  0  0  0  0  0  0  0
    3.6453    2.0152   21.6831 H   0  0  0  0  0  0  0  0  0  0  0  0
    3.0147    2.6520   19.3913 H   0  0  0  0  0  0  0  0  0  0  0  0
    5.6991    0.6995   22.1042 H   0  0  0  0  0  0  0  0  0  0  0  0
    8.9202   -0.1986   25.4206 H   0  0  0  0  0  0  0  0  0  0  0  0
   10.0631   -2.2319   21.8252 H   0  0  0  0  0  0  0  0  0  0  0  0
    4.4051    1.9733   17.4488 H   0  0  0  0  0  0  0  0  0  0  0  0
    8.6898   -2.3534   26.5810 H   0  0  0  0  0  0  0  0  0  0  0  0
    9.9254   -4.3899   22.9914 H   0  0  0  0  0  0  0  0  0  0  0  0
   12.9154    1.2645   23.5586 H   0  0  0  0  0  0  0  0  0  0  0  0
    9.9018    3.6623   21.6144 H   0  0  0  0  0  0  0  0  0  0  0  0
    8.4825   -0.7940   18.0623 H   0  0  0  0  0  0  0  0  0  0  0  0
    7.9324   -6.4149   28.1639 H   0  0  0  0  0  0  0  0  0  0  0  0
    8.0254   -7.0921   26.5330 H   0  0  0  0  0  0  0  0  0  0  0  0
   10.3386   -6.1268   28.2921 H   0  0  0  0  0  0  0  0  0  0  0  0
    9.9903   -7.8025   27.8535 H   0  0  0  0  0  0  0  0  0  0  0  0
   11.7036   -6.0405   26.4770 H   0  0  0  0  0  0  0  0  0  0  0  0
   11.1411   -7.6069   25.8917 H   0  0  0  0  0  0  0  0  0  0  0  0
   10.7783   -5.5162   24.3756 H   0  0  0  0  0  0  0  0  0  0  0  0
    9.4042   -6.6189   24.5805 H   0  0  0  0  0  0  0  0  0  0  0  0
   12.4727    5.5631   21.3201 H   0  0  0  0  0  0  0  0  0  0  0  0
   13.3178    4.4130   20.2292 H   0  0  0  0  0  0  0  0  0  0  0  0
   11.5839    4.7459   19.9891 H   0  0  0  0  0  0  0  0  0  0  0  0
   10.2417    1.0375   24.5711 H   0  0  0  0  0  0  0  0  0  0  0  0
    9.0279    1.9881   23.7492 H   0  0  0  0  0  0  0  0  0  0  0  0
   10.7949   -0.0994   22.4253 H   0  0  0  0  0  0  0  0  0  0  0  0
    6.7266    0.4930   16.8305 H   0  0  0  0  0  0  0  0  0  0  0  0
    8.2585   -1.5522   21.1129 H   0  0  0  0  0  0  0  0  0  0  0  0
  1  2  1  0  0  0  0
  1  3  2  0  0  0  0
  2  6  2  0  0  0  0
  3 12  1  0  0  0  0
  4  7  2  0  0  0  0
  4 13  1  0  0  0  0
  5  8  1  0  0  0  0
  5 13  2  0  0  0  0
  6 15  1  0  0  0  0
  7 16  1  0  0  0  0
  8 16  2  0  0  0  0
  9 14  1  0  0  0  0
  9 27  2  0  0  0  0
 10 14  2  0  0  0  0
 10 29  1  0  0  0  0
 11 17  2  0  0  0  0
 11 28  1  0  0  0  0
 12 15  2  0  0  0  0
 12 17  1  0  0  0  0
 13 26  1  0  0  0  0
 14 25  1  0  0  0  0
 15 28  1  0  0  0  0
 16 30  1  0  0  0  0
 17 31  1  0  0  0  0
 18 20  1  0  0  0  0
 18 30  1  0  0  0  0
 18 32  2  0  0  0  0
 19 26  1  0  0  0  0
 19 31  1  0  0  0  0
 19 33  2  0  0  0  0
 20 21  1  0  0  0  0
 21 22  1  0  0  0  0
 22 23  1  0  0  0  0
 23 30  1  0  0  0  0
 24 29  1  0  0  0  0
 25 26  1  6  0  0  0
 27 29  1  0  0  0  0
  1 34  1  0  0  0  0
  2 35  1  0  0  0  0
  3 36  1  0  0  0  0
  4 37  1  0  0  0  0
  5 38  1  0  0  0  0
  6 39  1  0  0  0  0
  7 40  1  0  0  0  0
  8 41  1  0  0  0  0
  9 42  1  0  0  0  0
 10 43  1  0  0  0  0
 11 44  1  0  0  0  0
 20 45  1  0  0  0  0
 20 46  1  0  0  0  0
 21 47  1  0  0  0  0
 21 48  1  0  0  0  0
 22 49  1  0  0  0  0
 22 50  1  0  0  0  0
 23 51  1  0  0  0  0
 23 52  1  0  0  0  0
 24 53  1  0  0  0  0
 24 54  1  0  0  0  0
 24 55  1  0  0  0  0
 25 56  1  0  0  0  0
 25 57  1  0  0  0  0
 26 58  1  0  0  0  0
 28 59  1  0  0  0  0
 31 60  1  0  0  0  0
M  END
> <clash_score>
0.7790931276820443

> <docking_score>
-6.550689697265625

> <overlap_score>
0.974953293800354

$$$$
BENZO_304_1
  -OEChem-08222022193D

 56 60  0     1  0  0  0  0  0999 V2000
    4.2750    1.7050   20.8490 C   0  0  0  0  0  0  0  0  0  0  0  0
    3.9160    2.0630   19.5520 C   0  0  0  0  0  0  0  0  0  0  0  0
    5.4210    0.9600   21.0930 C   0  0  0  0  0  0  0  0  0  0  0  0
    9.0720   -1.1280   24.8640 C   0  0  0  0  0  0  0  0  0  0  0  0
    9.7200   -2.2600   22.8630 C   0  0  0  0  0  0  0  0  0  0  0  0
    4.6890    1.6810   18.4640 C   0  0  0  0  0  0  0  0  0  0  0  0
    8.9960   -2.3380   25.5320 C   0  0  0  0  0  0  0  0  0  0  0  0
    9.6730   -3.4710   23.5300 C   0  0  0  0  0  0  0  0  0  0  0  0
   12.3907    0.6679   23.6950 C   0  0  0  0  0  0  0  0  0  0  0  0
    7.6390   -0.2680   18.5410 C   0  0  0  0  0  0  0  0  0  0  0  0
   13.4189    0.5308   24.6014 C   0  0  0  0  0  0  0  0  0  0  0  0
   11.3314    1.2632   25.6763 C   0  0  0  0  0  0  0  0  0  0  0  0
    6.1790    0.5730   19.9990 C   0  0  0  0  0  0  0  0  0  0  0  0
    9.3350   -1.0880   23.5010 C   0  0  0  0  0  0  0  0  0  0  0  0
   11.1814    1.0923   24.3176 C   0  0  0  0  0  0  0  0  0  0  0  0
    5.8300    0.9190   18.6970 C   0  0  0  0  0  0  0  0  0  0  0  0
    9.3070   -3.5340   24.8780 C   0  0  0  0  0  0  0  0  0  0  0  0
    7.3170   -0.1610   19.8550 C   0  0  0  0  0  0  0  0  0  0  0  0
    9.0420    0.3700   21.5280 C   0  0  0  0  0  0  0  0  0  0  0  0
   10.0772   -5.0257   26.7190 C   0  0  0  0  0  0  0  0  0  0  0  0
    8.0927   -5.6196   25.4069 C   0  0  0  0  0  0  0  0  0  0  0  0
    9.1935   -4.9431   27.9590 C   0  0  0  0  0  0  0  0  0  0  0  0
    7.2758   -5.5292   26.6966 C   0  0  0  0  0  0  0  0  0  0  0  0
    9.8870    1.3260   23.5730 C   0  0  0  0  0  0  0  0  0  0  0  0
    9.4560    0.1560   22.8130 C   0  0  1  0  0  0  0  0  0  0  0  0
    6.7580    0.3810   17.8350 N   0  0  0  0  0  0  0  0  0  0  0  0
    9.2564   -4.7368   25.5411 N   0  0  0  0  0  0  0  0  0  0  0  0
    8.1890   -0.7180   20.8700 N   0  0  0  0  0  0  0  0  0  0  0  0
    9.2690    1.4140   20.9380 O   0  0  0  0  0  0  0  0  0  0  0  0
    8.0885   -5.8462   27.8323 O   0  0  0  0  0  0  0  0  0  0  0  0
   12.9250    0.9128   26.1959 S   0  0  0  0  0  0  0  0  0  0  0  0
    3.6453    2.0152   21.6831 H   0  0  0  0  0  0  0  0  0  0  0  0
    3.0147    2.6520   19.3913 H   0  0  0  0  0  0  0  0  0  0  0  0
    5.6991    0.6995   22.1042 H   0  0  0  0  0  0  0  0  0  0  0  0
    8.9214   -0.1986   25.4206 H   0  0  0  0  0  0  0  0  0  0  0  0
   10.0622   -2.2326   21.8251 H   0  0  0  0  0  0  0  0  0  0  0  0
    4.4051    1.9733   17.4488 H   0  0  0  0  0  0  0  0  0  0  0  0
    8.6882   -2.3542   26.5803 H   0  0  0  0  0  0  0  0  0  0  0  0
    9.9258   -4.3896   22.9914 H   0  0  0  0  0  0  0  0  0  0  0  0
   12.5049    0.4716   22.6364 H   0  0  0  0  0  0  0  0  0  0  0  0
    8.4825   -0.7940   18.0623 H   0  0  0  0  0  0  0  0  0  0  0  0
   14.4362    0.2239   24.4037 H   0  0  0  0  0  0  0  0  0  0  0  0
   10.5839    1.5757   26.3924 H   0  0  0  0  0  0  0  0  0  0  0  0
   10.9045   -4.3145   26.8095 H   0  0  0  0  0  0  0  0  0  0  0  0
   10.4943   -6.0354   26.6306 H   0  0  0  0  0  0  0  0  0  0  0  0
    8.4338   -6.6479   25.2591 H   0  0  0  0  0  0  0  0  0  0  0  0
    7.4707   -5.3291   24.5579 H   0  0  0  0  0  0  0  0  0  0  0  0
    9.7638   -5.2402   28.8416 H   0  0  0  0  0  0  0  0  0  0  0  0
    8.8238   -3.9272   28.1248 H   0  0  0  0  0  0  0  0  0  0  0  0
    6.8340   -4.5339   26.8232 H   0  0  0  0  0  0  0  0  0  0  0  0
    6.4551   -6.2523   26.6642 H   0  0  0  0  0  0  0  0  0  0  0  0
    9.1131    1.6463   24.2828 H   0  0  0  0  0  0  0  0  0  0  0  0
   10.0354    2.1807   22.8984 H   0  0  0  0  0  0  0  0  0  0  0  0
   10.7927   -0.1029   22.4279 H   0  0  0  0  0  0  0  0  0  0  0  0
    6.7266    0.4930   16.8305 H   0  0  0  0  0  0  0  0  0  0  0  0
    8.2408   -1.5631   21.0968 H   0  0  0  0  0  0  0  0  0  0  0  0
  1  2  1  0  0  0  0
  1  3  2  0  0  0  0
  2  6  2  0  0  0  0
  3 13  1  0  0  0  0
  4  7  2  0  0  0  0
  4 14  1  0  0  0  0
  5  8  1  0  0  0  0
  5 14  2  0  0  0  0
  6 16  1  0  0  0  0
  7 17  1  0  0  0  0
  8 17  2  0  0  0  0
  9 11  2  0  0  0  0
  9 15  1  0  0  0  0
 10 18  2  0  0  0  0
 10 26  1  0  0  0  0
 11 31  1  0  0  0  0
 12 15  2  0  0  0  0
 12 31  1  0  0  0  0
 13 16  2  0  0  0  0
 13 18  1  0  0  0  0
 14 25  1  0  0  0  0
 15 24  1  0  0  0  0
 16 26  1  0  0  0  0
 17 27  1  0  0  0  0
 18 28  1  0  0  0  0
 19 25  1  1  0  0  0
 19 28  1  0  0  0  0
 19 29  2  0  0  0  0
 20 22  1  0  0  0  0
 20 27  1  0  0  0  0
 21 23  1  0  0  0  0
 21 27  1  0  0  0  0
 22 30  1  0  0  0  0
 23 30  1  0  0  0  0
 24 25  1  0  0  0  0
  1 32  1  0  0  0  0
  2 33  1  0  0  0  0
  3 34  1  0  0  0  0
  4 35  1  0  0  0  0
  5 36  1  0  0  0  0
  6 37  1  0  0  0  0
  7 38  1  0  0  0  0
  8 39  1  0  0  0  0
  9 40  1  0  0  0  0
 10 41  1  0  0  0  0
 11 42  1  0  0  0  0
 12 43  1  0  0  0  0
 20 44  1  0  0  0  0
 20 45  1  0  0  0  0
 21 46  1  0  0  0  0
 21 47  1  0  0  0  0
 22 48  1  0  0  0  0
 22 49  1  0  0  0  0
 23 50  1  0  0  0  0
 23 51  1  0  0  0  0
 24 52  1  0  0  0  0
 24 53  1  0  0  0  0
 25 54  1  0  0  0  0
 26 55  1  0  0  0  0
 28 56  1  0  0  0  0
M  END
> <clash_score>
0.6216869044761479

> <docking_score>
-7.17410135269165

> <overlap_score>
0.9198033809661865

$$$$
BENZO_303_1
  -OEChem-08222022193D

 60 64  0     1  0  0  0  0  0999 V2000
    4.2750    1.7050   20.8490 C   0  0  0  0  0  0  0  0  0  0  0  0
    3.9160    2.0630   19.5520 C   0  0  0  0  0  0  0  0  0  0  0  0
    5.4210    0.9600   21.0930 C   0  0  0  0  0  0  0  0  0  0  0  0
    9.0720   -1.1280   24.8640 C   0  0  0  0  0  0  0  0  0  0  0  0
    9.7200   -2.2600   22.8630 C   0  0  0  0  0  0  0  0  0  0  0  0
    4.6890    1.6810   18.4640 C   0  0  0  0  0  0  0  0  0  0  0  0
    8.9960   -2.3380   25.5320 C   0  0  0  0  0  0  0  0  0  0  0  0
    9.6730   -3.4710   23.5300 C   0  0  0  0  0  0  0  0  0  0  0  0
   12.0594    2.7949   23.5898 C   0  0  0  0  0  0  0  0  0  0  0  0
   12.3731    0.6302   23.3648 C   0  0  0  0  0  0  0  0  0  0  0  0
    7.6390   -0.2680   18.5410 C   0  0  0  0  0  0  0  0  0  0  0  0
    6.1790    0.5730   19.9990 C   0  0  0  0  0  0  0  0  0  0  0  0
    9.3350   -1.0880   23.5010 C   0  0  0  0  0  0  0  0  0  0  0  0
   11.3780    1.5656   23.5101 C   0  0  0  0  0  0  0  0  0  0  0  0
    5.8300    0.9190   18.6970 C   0  0  0  0  0  0  0  0  0  0  0  0
    9.3070   -3.5340   24.8780 C   0  0  0  0  0  0  0  0  0  0  0  0
    7.3170   -0.1610   19.8550 C   0  0  0  0  0  0  0  0  0  0  0  0
    8.3596   -5.0074   26.6306 C   0  0  0  0  0  0  0  0  0  0  0  0
    9.0420    0.3700   21.5280 C   0  0  0  0  0  0  0  0  0  0  0  0
    8.4719   -6.3982   27.2294 C   0  0  0  0  0  0  0  0  0  0  0  0
    9.9251   -6.7607   27.4801 C   0  0  0  0  0  0  0  0  0  0  0  0
   10.7833   -6.6095   26.2280 C   0  0  0  0  0  0  0  0  0  0  0  0
   10.0539   -5.9100   25.0821 C   0  0  0  0  0  0  0  0  0  0  0  0
   14.8715    0.7755   23.2395 C   0  0  0  0  0  0  0  0  0  0  0  0
    9.8870    1.3260   23.5730 C   0  0  0  0  0  0  0  0  0  0  0  0
    9.4560    0.1560   22.8130 C   0  0  1  0  0  0  0  0  0  0  0  0
   13.3850    2.6562   23.5025 N   0  0  0  0  0  0  0  0  0  0  0  0
    6.7580    0.3810   17.8350 N   0  0  0  0  0  0  0  0  0  0  0  0
   13.5445    1.3287   23.3665 N   0  0  0  0  0  0  0  0  0  0  0  0
    9.2529   -4.7797   25.5643 N   0  0  0  0  0  0  0  0  0  0  0  0
    8.1890   -0.7180   20.8700 N   0  0  0  0  0  0  0  0  0  0  0  0
    7.4954   -4.2357   27.0448 O   0  0  0  0  0  0  0  0  0  0  0  0
    9.2690    1.4140   20.9380 O   0  0  0  0  0  0  0  0  0  0  0  0
    3.6453    2.0152   21.6831 H   0  0  0  0  0  0  0  0  0  0  0  0
    3.0147    2.6520   19.3913 H   0  0  0  0  0  0  0  0  0  0  0  0
    5.6991    0.6995   22.1042 H   0  0  0  0  0  0  0  0  0  0  0  0
    8.9202   -0.1986   25.4206 H   0  0  0  0  0  0  0  0  0  0  0  0
   10.0631   -2.2319   21.8252 H   0  0  0  0  0  0  0  0  0  0  0  0
    4.4051    1.9733   17.4488 H   0  0  0  0  0  0  0  0  0  0  0  0
    8.6898   -2.3534   26.5810 H   0  0  0  0  0  0  0  0  0  0  0  0
    9.9254   -4.3899   22.9914 H   0  0  0  0  0  0  0  0  0  0  0  0
   11.6476    3.7871   23.7087 H   0  0  0  0  0  0  0  0  0  0  0  0
   12.3482   -0.4465   23.2641 H   0  0  0  0  0  0  0  0  0  0  0  0
    8.4825   -0.7940   18.0623 H   0  0  0  0  0  0  0  0  0  0  0  0
    7.9324   -6.4149   28.1639 H   0  0  0  0  0  0  0  0  0  0  0  0
    8.0254   -7.0921   26.5330 H   0  0  0  0  0  0  0  0  0  0  0  0
   10.3386   -6.1268   28.2921 H   0  0  0  0  0  0  0  0  0  0  0  0
    9.9903   -7.8025   27.8535 H   0  0  0  0  0  0  0  0  0  0  0  0
   11.7036   -6.0405   26.4770 H   0  0  0  0  0  0  0  0  0  0  0  0
   11.1411   -7.6069   25.8917 H   0  0  0  0  0  0  0  0  0  0  0  0
   10.7783   -5.5162   24.3756 H   0  0  0  0  0  0  0  0  0  0  0  0
    9.4042   -6.6189   24.5805 H   0  0  0  0  0  0  0  0  0  0  0  0
   15.1240    0.7455   22.1763 H   0  0  0  0  0  0  0  0  0  0  0  0
   15.5818    1.4044   23.7835 H   0  0  0  0  0  0  0  0  0  0  0  0
   14.8855   -0.2315   23.6655 H   0  0  0  0  0  0  0  0  0  0  0  0
    9.5761    1.2490   24.6231 H   0  0  0  0  0  0  0  0  0  0  0  0
    9.3845    2.2231   23.1854 H   0  0  0  0  0  0  0  0  0  0  0  0
    8.0674    0.5009   23.2732 H   0  0  0  0  0  0  0  0  0  0  0  0
    6.7266    0.4930   16.8305 H   0  0  0  0  0  0  0  0  0  0  0  0
    8.2585   -1.5522   21.1129 H   0  0  0  0  0  0  0  0  0  0  0  0
  1  2  1  0  0  0  0
  1  3  2  0  0  0  0
  2  6  2  0  0  0  0
  3 12  1  0  0  0  0
  4  7  2  0  0  0  0
  4 13  1  0  0  0  0
  5  8  1  0  0  0  0
  5 13  2  0  0  0  0
  6 15  1  0  0  0  0
  7 16  1  0  0  0  0
  8 16  2  0  0  0  0
  9 14  1  0  0  0  0
  9 27  2  0  0  0  0
 10 14  2  0  0  0  0
 10 29  1  0  0  0  0
 11 17  2  0  0  0  0
 11 28  1  0  0  0  0
 12 15  2  0  0  0  0
 12 17  1  0  0  0  0
 13 26  1  0  0  0  0
 14 25  1  0  0  0  0
 15 28  1  0  0  0  0
 16 30  1  0  0  0  0
 17 31  1  0  0  0  0
 18 20  1  0  0  0  0
 18 30  1  0  0  0  0
 18 32  2  0  0  0  0
 19 26  1  0  0  0  0
 19 31  1  0  0  0  0
 19 33  2  0  0  0  0
 20 21  1  0  0  0  0
 21 22  1  0  0  0  0
 22 23  1  0  0  0  0
 23 30  1  0  0  0  0
 24 29  1  0  0  0  0
 25 26  1  1  0  0  0
 27 29  1  0  0  0  0
  1 34  1  0  0  0  0
  2 35  1  0  0  0  0
  3 36  1  0  0  0  0
  4 37  1  0  0  0  0
  5 38  1  0  0  0  0
  6 39  1  0  0  0  0
  7 40  1  0  0  0  0
  8 41  1  0  0  0  0
  9 42  1  0  0  0  0
 10 43  1  0  0  0  0
 11 44  1  0  0  0  0
 20 45  1  0  0  0  0
 20 46  1  0  0  0  0
 21 47  1  0  0  0  0
 21 48  1  0  0  0  0
 22 49  1  0  0  0  0
 22 50  1  0  0  0  0
 23 51  1  0  0  0  0
 23 52  1  0  0  0  0
 24 53  1  0  0  0  0
 24 54  1  0  0  0  0
 24 55  1  0  0  0  0
 25 56  1  0  0  0  0
 25 57  1  0  0  0  0
 26 58  1  0  0  0  0
 28 59  1  0  0  0  0
 31 60  1  0  0  0  0
M  END
> <clash_score>
0.7790931276820443

> <docking_score>
-7.806509017944336

> <overlap_score>
1.0254992246627808

$$$$
BENZO_304_2
  -OEChem-08222022193D

 56 60  0     1  0  0  0  0  0999 V2000
    4.2750    1.7050   20.8490 C   0  0  0  0  0  0  0  0  0  0  0  0
    3.9160    2.0630   19.5520 C   0  0  0  0  0  0  0  0  0  0  0  0
    5.4210    0.9600   21.0930 C   0  0  0  0  0  0  0  0  0  0  0  0
    9.0720   -1.1280   24.8640 C   0  0  0  0  0  0  0  0  0  0  0  0
    9.7200   -2.2600   22.8630 C   0  0  0  0  0  0  0  0  0  0  0  0
    4.6890    1.6810   18.4640 C   0  0  0  0  0  0  0  0  0  0  0  0
    8.9960   -2.3380   25.5320 C   0  0  0  0  0  0  0  0  0  0  0  0
    9.6730   -3.4710   23.5300 C   0  0  0  0  0  0  0  0  0  0  0  0
   12.3398    0.5029   23.4216 C   0  0  0  0  0  0  0  0  0  0  0  0
    7.6390   -0.2680   18.5410 C   0  0  0  0  0  0  0  0  0  0  0  0
   13.6291    0.9844   23.3622 C   0  0  0  0  0  0  0  0  0  0  0  0
   11.9713    2.7968   23.4917 C   0  0  0  0  0  0  0  0  0  0  0  0
    6.1790    0.5730   19.9990 C   0  0  0  0  0  0  0  0  0  0  0  0
    9.3350   -1.0880   23.5010 C   0  0  0  0  0  0  0  0  0  0  0  0
   11.3794    1.5528   23.4964 C   0  0  0  0  0  0  0  0  0  0  0  0
    5.8300    0.9190   18.6970 C   0  0  0  0  0  0  0  0  0  0  0  0
    9.3070   -3.5340   24.8780 C   0  0  0  0  0  0  0  0  0  0  0  0
    7.3170   -0.1610   19.8550 C   0  0  0  0  0  0  0  0  0  0  0  0
    9.0420    0.3700   21.5280 C   0  0  0  0  0  0  0  0  0  0  0  0
   10.0772   -5.0257   26.7190 C   0  0  0  0  0  0  0  0  0  0  0  0
    8.0927   -5.6196   25.4069 C   0  0  0  0  0  0  0  0  0  0  0  0
    9.1935   -4.9431   27.9590 C   0  0  0  0  0  0  0  0  0  0  0  0
    7.2758   -5.5292   26.6966 C   0  0  0  0  0  0  0  0  0  0  0  0
    9.8870    1.3260   23.5730 C   0  0  0  0  0  0  0  0  0  0  0  0
    9.4560    0.1560   22.8130 C   0  0  2  0  0  0  0  0  0  0  0  0
    6.7580    0.3810   17.8350 N   0  0  0  0  0  0  0  0  0  0  0  0
    9.2564   -4.7368   25.5411 N   0  0  0  0  0  0  0  0  0  0  0  0
    8.1890   -0.7180   20.8700 N   0  0  0  0  0  0  0  0  0  0  0  0
    9.2690    1.4140   20.9380 O   0  0  0  0  0  0  0  0  0  0  0  0
    8.0885   -5.8462   27.8323 O   0  0  0  0  0  0  0  0  0  0  0  0
   13.6781    2.6957   23.3969 S   0  0  0  0  0  0  0  0  0  0  0  0
    3.6453    2.0152   21.6831 H   0  0  0  0  0  0  0  0  0  0  0  0
    3.0147    2.6520   19.3913 H   0  0  0  0  0  0  0  0  0  0  0  0
    5.6991    0.6995   22.1042 H   0  0  0  0  0  0  0  0  0  0  0  0
    8.9214   -0.1986   25.4206 H   0  0  0  0  0  0  0  0  0  0  0  0
   10.0622   -2.2326   21.8251 H   0  0  0  0  0  0  0  0  0  0  0  0
    4.4051    1.9733   17.4488 H   0  0  0  0  0  0  0  0  0  0  0  0
    8.6882   -2.3542   26.5803 H   0  0  0  0  0  0  0  0  0  0  0  0
    9.9258   -4.3896   22.9914 H   0  0  0  0  0  0  0  0  0  0  0  0
   12.1014   -0.5532   23.4119 H   0  0  0  0  0  0  0  0  0  0  0  0
    8.4825   -0.7940   18.0623 H   0  0  0  0  0  0  0  0  0  0  0  0
   14.5445    0.4131   23.3009 H   0  0  0  0  0  0  0  0  0  0  0  0
   11.4871    3.7623   23.5403 H   0  0  0  0  0  0  0  0  0  0  0  0
   10.9045   -4.3145   26.8095 H   0  0  0  0  0  0  0  0  0  0  0  0
   10.4943   -6.0354   26.6306 H   0  0  0  0  0  0  0  0  0  0  0  0
    8.4338   -6.6479   25.2591 H   0  0  0  0  0  0  0  0  0  0  0  0
    7.4707   -5.3291   24.5579 H   0  0  0  0  0  0  0  0  0  0  0  0
    9.7638   -5.2402   28.8416 H   0  0  0  0  0  0  0  0  0  0  0  0
    8.8238   -3.9272   28.1248 H   0  0  0  0  0  0  0  0  0  0  0  0
    6.8340   -4.5339   26.8232 H   0  0  0  0  0  0  0  0  0  0  0  0
    6.4551   -6.2523   26.6642 H   0  0  0  0  0  0  0  0  0  0  0  0
    9.5854    1.2495   24.6258 H   0  0  0  0  0  0  0  0  0  0  0  0
    9.3886    2.2282   23.1920 H   0  0  0  0  0  0  0  0  0  0  0  0
    8.0686    0.4964   23.2745 H   0  0  0  0  0  0  0  0  0  0  0  0
    6.7266    0.4930   16.8305 H   0  0  0  0  0  0  0  0  0  0  0  0
    8.2408   -1.5631   21.0968 H   0  0  0  0  0  0  0  0  0  0  0  0
  1  2  1  0  0  0  0
  1  3  2  0  0  0  0
  2  6  2  0  0  0  0
  3 13  1  0  0  0  0
  4  7  2  0  0  0  0
  4 14  1  0  0  0  0
  5  8  1  0  0  0  0
  5 14  2  0  0  0  0
  6 16  1  0  0  0  0
  7 17  1  0  0  0  0
  8 17  2  0  0  0  0
  9 11  2  0  0  0  0
  9 15  1  0  0  0  0
 10 18  2  0  0  0  0
 10 26  1  0  0  0  0
 11 31  1  0  0  0  0
 12 15  2  0  0  0  0
 12 31  1  0  0  0  0
 13 16  2  0  0  0  0
 13 18  1  0  0  0  0
 14 25  1  0  0  0  0
 15 24  1  0  0  0  0
 16 26  1  0  0  0  0
 17 27  1  0  0  0  0
 18 28  1  0  0  0  0
 19 25  1  6  0  0  0
 19 28  1  0  0  0  0
 19 29  2  0  0  0  0
 20 22  1  0  0  0  0
 20 27  1  0  0  0  0
 21 23  1  0  0  0  0
 21 27  1  0  0  0  0
 22 30  1  0  0  0  0
 23 30  1  0  0  0  0
 24 25  1  0  0  0  0
  1 32  1  0  0  0  0
  2 33  1  0  0  0  0
  3 34  1  0  0  0  0
  4 35  1  0  0  0  0
  5 36  1  0  0  0  0
  6 37  1  0  0  0  0
  7 38  1  0  0  0  0
  8 39  1  0  0  0  0
  9 40  1  0  0  0  0
 10 41  1  0  0  0  0
 11 42  1  0  0  0  0
 12 43  1  0  0  0  0
 20 44  1  0  0  0  0
 20 45  1  0  0  0  0
 21 46  1  0  0  0  0
 21 47  1  0  0  0  0
 22 48  1  0  0  0  0
 22 49  1  0  0  0  0
 23 50  1  0  0  0  0
 23 51  1  0  0  0  0
 24 52  1  0  0  0  0
 24 53  1  0  0  0  0
 25 54  1  0  0  0  0
 26 55  1  0  0  0  0
 28 56  1  0  0  0  0
M  END
> <clash_score>
0

> <docking_score>
-9.288267135620117

> <overlap_score>
0.9963716864585876

$$$$
BENZO_305_2
  -OEChem-08222022193D

 59 63  0     1  0  0  0  0  0999 V2000
   14.1341    1.9700   23.3555 C   0  0  0  0  0  0  0  0  0  0  0  0
    4.2750    1.7050   20.8490 C   0  0  0  0  0  0  0  0  0  0  0  0
   13.2717    3.0548   23.5141 C   0  0  0  0  0  0  0  0  0  0  0  0
   13.6192    0.6767   23.2672 C   0  0  0  0  0  0  0  0  0  0  0  0
    3.9160    2.0630   19.5520 C   0  0  0  0  0  0  0  0  0  0  0  0
    5.4210    0.9600   21.0930 C   0  0  0  0  0  0  0  0  0  0  0  0
   11.8943    2.8461   23.5846 C   0  0  0  0  0  0  0  0  0  0  0  0
   12.2418    0.4681   23.3377 C   0  0  0  0  0  0  0  0  0  0  0  0
    9.0720   -1.1280   24.8640 C   0  0  0  0  0  0  0  0  0  0  0  0
    9.7200   -2.2600   22.8630 C   0  0  0  0  0  0  0  0  0  0  0  0
    4.6890    1.6810   18.4640 C   0  0  0  0  0  0  0  0  0  0  0  0
    8.9960   -2.3380   25.5320 C   0  0  0  0  0  0  0  0  0  0  0  0
    9.6730   -3.4710   23.5300 C   0  0  0  0  0  0  0  0  0  0  0  0
    7.6390   -0.2680   18.5410 C   0  0  0  0  0  0  0  0  0  0  0  0
    6.1790    0.5730   19.9990 C   0  0  0  0  0  0  0  0  0  0  0  0
   11.3794    1.5528   23.4964 C   0  0  0  0  0  0  0  0  0  0  0  0
    9.3350   -1.0880   23.5010 C   0  0  0  0  0  0  0  0  0  0  0  0
    5.8300    0.9190   18.6970 C   0  0  0  0  0  0  0  0  0  0  0  0
    9.3070   -3.5340   24.8780 C   0  0  0  0  0  0  0  0  0  0  0  0
    7.3170   -0.1610   19.8550 C   0  0  0  0  0  0  0  0  0  0  0  0
    9.0420    0.3700   21.5280 C   0  0  0  0  0  0  0  0  0  0  0  0
   10.0772   -5.0257   26.7190 C   0  0  0  0  0  0  0  0  0  0  0  0
    8.0927   -5.6196   25.4069 C   0  0  0  0  0  0  0  0  0  0  0  0
    9.1935   -4.9431   27.9590 C   0  0  0  0  0  0  0  0  0  0  0  0
    7.2758   -5.5292   26.6966 C   0  0  0  0  0  0  0  0  0  0  0  0
    9.8870    1.3260   23.5730 C   0  0  0  0  0  0  0  0  0  0  0  0
    9.4560    0.1560   22.8130 C   0  0  2  0  0  0  0  0  0  0  0  0
    6.7580    0.3810   17.8350 N   0  0  0  0  0  0  0  0  0  0  0  0
    9.2564   -4.7368   25.5411 N   0  0  0  0  0  0  0  0  0  0  0  0
    8.1890   -0.7180   20.8700 N   0  0  0  0  0  0  0  0  0  0  0  0
    9.2690    1.4140   20.9380 O   0  0  0  0  0  0  0  0  0  0  0  0
    8.0885   -5.8462   27.8323 O   0  0  0  0  0  0  0  0  0  0  0  0
   15.2065    2.1328   23.2992 H   0  0  0  0  0  0  0  0  0  0  0  0
    3.6453    2.0152   21.6831 H   0  0  0  0  0  0  0  0  0  0  0  0
   13.6724    4.0620   23.5817 H   0  0  0  0  0  0  0  0  0  0  0  0
   14.2903   -0.1680   23.1426 H   0  0  0  0  0  0  0  0  0  0  0  0
    3.0147    2.6520   19.3913 H   0  0  0  0  0  0  0  0  0  0  0  0
    5.6991    0.6995   22.1042 H   0  0  0  0  0  0  0  0  0  0  0  0
   11.2299    3.6973   23.7085 H   0  0  0  0  0  0  0  0  0  0  0  0
   11.8496   -0.5431   23.2682 H   0  0  0  0  0  0  0  0  0  0  0  0
    8.9214   -0.1986   25.4206 H   0  0  0  0  0  0  0  0  0  0  0  0
   10.0622   -2.2326   21.8251 H   0  0  0  0  0  0  0  0  0  0  0  0
    4.4051    1.9733   17.4488 H   0  0  0  0  0  0  0  0  0  0  0  0
    8.6882   -2.3542   26.5803 H   0  0  0  0  0  0  0  0  0  0  0  0
    9.9258   -4.3896   22.9914 H   0  0  0  0  0  0  0  0  0  0  0  0
    8.4825   -0.7940   18.0623 H   0  0  0  0  0  0  0  0  0  0  0  0
   10.9045   -4.3145   26.8095 H   0  0  0  0  0  0  0  0  0  0  0  0
   10.4943   -6.0354   26.6306 H   0  0  0  0  0  0  0  0  0  0  0  0
    8.4338   -6.6479   25.2591 H   0  0  0  0  0  0  0  0  0  0  0  0
    7.4707   -5.3291   24.5579 H   0  0  0  0  0  0  0  0  0  0  0  0
    9.7638   -5.2402   28.8416 H   0  0  0  0  0  0  0  0  0  0  0  0
    8.8238   -3.9272   28.1248 H   0  0  0  0  0  0  0  0  0  0  0  0
    6.8340   -4.5339   26.8232 H   0  0  0  0  0  0  0  0  0  0  0  0
    6.4551   -6.2523   26.6642 H   0  0  0  0  0  0  0  0  0  0  0  0
    9.5854    1.2495   24.6258 H   0  0  0  0  0  0  0  0  0  0  0  0
    9.3886    2.2282   23.1920 H   0  0  0  0  0  0  0  0  0  0  0  0
    8.0686    0.4964   23.2745 H   0  0  0  0  0  0  0  0  0  0  0  0
    6.7266    0.4930   16.8305 H   0  0  0  0  0  0  0  0  0  0  0  0
    8.2408   -1.5631   21.0968 H   0  0  0  0  0  0  0  0  0  0  0  0
  1  3  1  0  0  0  0
  1  4  2  0  0  0  0
  2  5  1  0  0  0  0
  2  6  2  0  0  0  0
  3  7  2  0  0  0  0
  4  8  1  0  0  0  0
  5 11  2  0  0  0  0
  6 15  1  0  0  0  0
  7 16  1  0  0  0  0
  8 16  2  0  0  0  0
  9 12  2  0  0  0  0
  9 17  1  0  0  0  0
 10 13  1  0  0  0  0
 10 17  2  0  0  0  0
 11 18  1  0  0  0  0
 12 19  1  0  0  0  0
 13 19  2  0  0  0  0
 14 20  2  0  0  0  0
 14 28  1  0  0  0  0
 15 18  2  0  0  0  0
 15 20  1  0  0  0  0
 16 26  1  0  0  0  0
 17 27  1  0  0  0  0
 18 28  1  0  0  0  0
 19 29  1  0  0  0  0
 20 30  1  0  0  0  0
 21 27  1  6  0  0  0
 21 30  1  0  0  0  0
 21 31  2  0  0  0  0
 22 24  1  0  0  0  0
 22 29  1  0  0  0  0
 23 25  1  0  0  0  0
 23 29  1  0  0  0  0
 24 32  1  0  0  0  0
 25 32  1  0  0  0  0
 26 27  1  0  0  0  0
  1 33  1  0  0  0  0
  2 34  1  0  0  0  0
  3 35  1  0  0  0  0
  4 36  1  0  0  0  0
  5 37  1  0  0  0  0
  6 38  1  0  0  0  0
  7 39  1  0  0  0  0
  8 40  1  0  0  0  0
  9 41  1  0  0  0  0
 10 42  1  0  0  0  0
 11 43  1  0  0  0  0
 12 44  1  0  0  0  0
 13 45  1  0  0  0  0
 14 46  1  0  0  0  0
 22 47  1  0  0  0  0
 22 48  1  0  0  0  0
 23 49  1  0  0  0  0
 23 50  1  0  0  0  0
 24 51  1  0  0  0  0
 24 52  1  0  0  0  0
 25 53  1  0  0  0  0
 25 54  1  0  0  0  0
 26 55  1  0  0  0  0
 26 56  1  0  0  0  0
 27 57  1  0  0  0  0
 28 58  1  0  0  0  0
 30 59  1  0  0  0  0
M  END
> <clash_score>
0

> <docking_score>
-8.824058532714844

> <overlap_score>
1.011548638343811

$$$$
BENZO_306_1
  -OEChem-08222022193D

 59 63  0     1  0  0  0  0  0999 V2000
    4.2750    1.7050   20.8490 C   0  0  0  0  0  0  0  0  0  0  0  0
    3.9160    2.0630   19.5520 C   0  0  0  0  0  0  0  0  0  0  0  0
   13.2976    2.5464   22.4232 C   0  0  0  0  0  0  0  0  0  0  0  0
    5.4210    0.9600   21.0930 C   0  0  0  0  0  0  0  0  0  0  0  0
   12.3059    1.8167   23.0786 C   0  0  0  0  0  0  0  0  0  0  0  0
    9.0720   -1.1280   24.8640 C   0  0  0  0  0  0  0  0  0  0  0  0
    9.7200   -2.2600   22.8630 C   0  0  0  0  0  0  0  0  0  0  0  0
    4.6890    1.6810   18.4640 C   0  0  0  0  0  0  0  0  0  0  0  0
    8.9960   -2.3380   25.5320 C   0  0  0  0  0  0  0  0  0  0  0  0
    9.6730   -3.4710   23.5300 C   0  0  0  0  0  0  0  0  0  0  0  0
   12.9446    3.5777   21.5528 C   0  0  0  0  0  0  0  0  0  0  0  0
   10.6080    3.1492   21.9930 C   0  0  0  0  0  0  0  0  0  0  0  0
    7.6390   -0.2680   18.5410 C   0  0  0  0  0  0  0  0  0  0  0  0
    6.1790    0.5730   19.9990 C   0  0  0  0  0  0  0  0  0  0  0  0
    9.3350   -1.0880   23.5010 C   0  0  0  0  0  0  0  0  0  0  0  0
   10.9611    2.1180   22.8635 C   0  0  0  0  0  0  0  0  0  0  0  0
    5.8300    0.9190   18.6970 C   0  0  0  0  0  0  0  0  0  0  0  0
    9.3070   -3.5340   24.8780 C   0  0  0  0  0  0  0  0  0  0  0  0
    7.3170   -0.1610   19.8550 C   0  0  0  0  0  0  0  0  0  0  0  0
   11.5998    3.8790   21.3377 C   0  0  0  0  0  0  0  0  0  0  0  0
    9.0420    0.3700   21.5280 C   0  0  0  0  0  0  0  0  0  0  0  0
    9.5176   -4.8600   26.9769 C   0  0  0  0  0  0  0  0  0  0  0  0
    8.5166   -5.8725   24.9805 C   0  0  0  0  0  0  0  0  0  0  0  0
    8.1870   -5.0443   27.6986 C   0  0  0  0  0  0  0  0  0  0  0  0
    7.2201   -6.0348   25.7753 C   0  0  0  0  0  0  0  0  0  0  0  0
    9.8870    1.3260   23.5730 C   0  0  0  0  0  0  0  0  0  0  0  0
    9.4560    0.1560   22.8130 C   0  0  1  0  0  0  0  0  0  0  0  0
    6.7580    0.3810   17.8350 N   0  0  0  0  0  0  0  0  0  0  0  0
    9.2564   -4.7368   25.5411 N   0  0  0  0  0  0  0  0  0  0  0  0
    8.1890   -0.7180   20.8700 N   0  0  0  0  0  0  0  0  0  0  0  0
    9.2690    1.4140   20.9380 O   0  0  0  0  0  0  0  0  0  0  0  0
    7.4995   -6.1856   27.1717 O   0  0  0  0  0  0  0  0  0  0  0  0
   11.1647    5.1506   20.2627 Cl  0  0  0  0  0  0  0  0  0  0  0  0
    3.6453    2.0152   21.6831 H   0  0  0  0  0  0  0  0  0  0  0  0
    3.0147    2.6520   19.3913 H   0  0  0  0  0  0  0  0  0  0  0  0
   14.3447    2.3114   22.5909 H   0  0  0  0  0  0  0  0  0  0  0  0
    5.6991    0.6995   22.1042 H   0  0  0  0  0  0  0  0  0  0  0  0
   12.5902    1.0148   23.7550 H   0  0  0  0  0  0  0  0  0  0  0  0
    8.9214   -0.1986   25.4206 H   0  0  0  0  0  0  0  0  0  0  0  0
   10.0622   -2.2326   21.8251 H   0  0  0  0  0  0  0  0  0  0  0  0
    4.4051    1.9733   17.4488 H   0  0  0  0  0  0  0  0  0  0  0  0
    8.6882   -2.3542   26.5803 H   0  0  0  0  0  0  0  0  0  0  0  0
    9.9258   -4.3896   22.9914 H   0  0  0  0  0  0  0  0  0  0  0  0
   13.7282    4.1379   21.0486 H   0  0  0  0  0  0  0  0  0  0  0  0
    9.5581    3.3806   21.8290 H   0  0  0  0  0  0  0  0  0  0  0  0
    8.4825   -0.7940   18.0623 H   0  0  0  0  0  0  0  0  0  0  0  0
   10.0259   -3.9714   27.3647 H   0  0  0  0  0  0  0  0  0  0  0  0
   10.1570   -5.7322   27.1547 H   0  0  0  0  0  0  0  0  0  0  0  0
    9.1206   -6.7792   25.0735 H   0  0  0  0  0  0  0  0  0  0  0  0
    8.2825   -5.7115   23.9263 H   0  0  0  0  0  0  0  0  0  0  0  0
    8.3631   -5.2257   28.7609 H   0  0  0  0  0  0  0  0  0  0  0  0
    7.5532   -4.1574   27.6103 H   0  0  0  0  0  0  0  0  0  0  0  0
    6.5460   -5.1840   25.6220 H   0  0  0  0  0  0  0  0  0  0  0  0
    6.6948   -6.9355   25.4433 H   0  0  0  0  0  0  0  0  0  0  0  0
   10.2455    1.0419   24.5710 H   0  0  0  0  0  0  0  0  0  0  0  0
    9.0345    1.9965   23.7496 H   0  0  0  0  0  0  0  0  0  0  0  0
   10.7927   -0.1029   22.4279 H   0  0  0  0  0  0  0  0  0  0  0  0
    6.7266    0.4930   16.8305 H   0  0  0  0  0  0  0  0  0  0  0  0
    8.2408   -1.5631   21.0968 H   0  0  0  0  0  0  0  0  0  0  0  0
  1  2  1  0  0  0  0
  1  4  2  0  0  0  0
  2  8  2  0  0  0  0
  3  5  2  0  0  0  0
  3 11  1  0  0  0  0
  4 14  1  0  0  0  0
  5 16  1  0  0  0  0
  6  9  2  0  0  0  0
  6 15  1  0  0  0  0
  7 10  1  0  0  0  0
  7 15  2  0  0  0  0
  8 17  1  0  0  0  0
  9 18  1  0  0  0  0
 10 18  2  0  0  0  0
 11 20  2  0  0  0  0
 12 16  2  0  0  0  0
 12 20  1  0  0  0  0
 13 19  2  0  0  0  0
 13 28  1  0  0  0  0
 14 17  2  0  0  0  0
 14 19  1  0  0  0  0
 15 27  1  0  0  0  0
 16 26  1  0  0  0  0
 17 28  1  0  0  0  0
 18 29  1  0  0  0  0
 19 30  1  0  0  0  0
 20 33  1  0  0  0  0
 21 27  1  1  0  0  0
 21 30  1  0  0  0  0
 21 31  2  0  0  0  0
 22 24  1  0  0  0  0
 22 29  1  0  0  0  0
 23 25  1  0  0  0  0
 23 29  1  0  0  0  0
 24 32  1  0  0  0  0
 25 32  1  0  0  0  0
 26 27  1  0  0  0  0
  1 34  1  0  0  0  0
  2 35  1  0  0  0  0
  3 36  1  0  0  0  0
  4 37  1  0  0  0  0
  5 38  1  0  0  0  0
  6 39  1  0  0  0  0
  7 40  1  0  0  0  0
  8 41  1  0  0  0  0
  9 42  1  0  0  0  0
 10 43  1  0  0  0  0
 11 44  1  0  0  0  0
 12 45  1  0  0  0  0
 13 46  1  0  0  0  0
 22 47  1  0  0  0  0
 22 48  1  0  0  0  0
 23 49  1  0  0  0  0
 23 50  1  0  0  0  0
 24 51  1  0  0  0  0
 24 52  1  0  0  0  0
 25 53  1  0  0  0  0
 25 54  1  0  0  0  0
 26 55  1  0  0  0  0
 26 56  1  0  0  0  0
 27 57  1  0  0  0  0
 28 58  1  0  0  0  0
 30 59  1  0  0  0  0
M  END
> <clash_score>
2.210302598872593

> <docking_score>
-7.997574329376221

> <overlap_score>
0.970018744468689

$$$$
BENZO_309_1
  -OEChem-08222022193D

 52 55  0     1  0  0  0  0  0999 V2000
   14.1341    1.9700   23.3555 C   0  0  0  0  0  0  0  0  0  0  0  0
   13.2717    3.0548   23.5141 C   0  0  0  0  0  0  0  0  0  0  0  0
   13.6192    0.6767   23.2672 C   0  0  0  0  0  0  0  0  0  0  0  0
   11.8943    2.8461   23.5846 C   0  0  0  0  0  0  0  0  0  0  0  0
   12.2418    0.4681   23.3377 C   0  0  0  0  0  0  0  0  0  0  0  0
    9.0720   -1.1280   24.8640 C   0  0  0  0  0  0  0  0  0  0  0  0
    9.7200   -2.2600   22.8630 C   0  0  0  0  0  0  0  0  0  0  0  0
    8.9960   -2.3380   25.5320 C   0  0  0  0  0  0  0  0  0  0  0  0
    9.6730   -3.4710   23.5300 C   0  0  0  0  0  0  0  0  0  0  0  0
   11.3794    1.5528   23.4964 C   0  0  0  0  0  0  0  0  0  0  0  0
    9.3350   -1.0880   23.5010 C   0  0  0  0  0  0  0  0  0  0  0  0
    9.3070   -3.5340   24.8780 C   0  0  0  0  0  0  0  0  0  0  0  0
    5.8300    0.9190   18.6970 C   0  0  0  0  0  0  0  0  0  0  0  0
    7.3170   -0.1610   19.8550 C   0  0  0  0  0  0  0  0  0  0  0  0
    4.6890    1.6810   18.4640 C   0  0  0  0  0  0  0  0  0  0  0  0
    3.9160    2.0630   19.5520 C   0  0  0  0  0  0  0  0  0  0  0  0
    4.2750    1.7050   20.8490 C   0  0  0  0  0  0  0  0  0  0  0  0
    5.4210    0.9600   21.0930 C   0  0  0  0  0  0  0  0  0  0  0  0
    9.0420    0.3700   21.5280 C   0  0  0  0  0  0  0  0  0  0  0  0
    8.0148   -5.2164   26.1419 C   0  0  0  0  0  0  0  0  0  0  0  0
   10.4390   -5.5857   25.6570 C   0  0  0  0  0  0  0  0  0  0  0  0
    9.8870    1.3260   23.5730 C   0  0  0  0  0  0  0  0  0  0  0  0
    9.4560    0.1560   22.8130 C   0  0  1  0  0  0  0  0  0  0  0  0
    6.7580    0.3810   17.8350 N   0  0  0  0  0  0  0  0  0  0  0  0
    7.6390   -0.2680   18.5410 N   0  0  0  0  0  0  0  0  0  0  0  0
    6.1790    0.5730   19.9990 N   0  0  0  0  0  0  0  0  0  0  0  0
    8.1890   -0.7180   20.8700 N   0  0  0  0  0  0  0  0  0  0  0  0
    9.2556   -4.7554   25.5513 N   0  0  0  0  0  0  0  0  0  0  0  0
    9.2690    1.4140   20.9380 O   0  0  0  0  0  0  0  0  0  0  0  0
   15.2065    2.1328   23.2992 H   0  0  0  0  0  0  0  0  0  0  0  0
   13.6724    4.0620   23.5817 H   0  0  0  0  0  0  0  0  0  0  0  0
   14.2903   -0.1680   23.1426 H   0  0  0  0  0  0  0  0  0  0  0  0
   11.2299    3.6973   23.7085 H   0  0  0  0  0  0  0  0  0  0  0  0
   11.8496   -0.5431   23.2682 H   0  0  0  0  0  0  0  0  0  0  0  0
    8.9214   -0.1986   25.4206 H   0  0  0  0  0  0  0  0  0  0  0  0
   10.0622   -2.2326   21.8251 H   0  0  0  0  0  0  0  0  0  0  0  0
    8.6882   -2.3542   26.5803 H   0  0  0  0  0  0  0  0  0  0  0  0
    9.9258   -4.3896   22.9914 H   0  0  0  0  0  0  0  0  0  0  0  0
    4.3967    1.9772   17.4718 H   0  0  0  0  0  0  0  0  0  0  0  0
    3.0218    2.6486   19.3697 H   0  0  0  0  0  0  0  0  0  0  0  0
    3.6566    2.0043   21.7065 H   0  0  0  0  0  0  0  0  0  0  0  0
    5.7190    0.6877   22.0810 H   0  0  0  0  0  0  0  0  0  0  0  0
    8.1775   -6.1919   26.6235 H   0  0  0  0  0  0  0  0  0  0  0  0
    7.6740   -4.4889   26.8933 H   0  0  0  0  0  0  0  0  0  0  0  0
    7.2508   -5.3180   25.3570 H   0  0  0  0  0  0  0  0  0  0  0  0
   10.1974   -6.4996   26.2195 H   0  0  0  0  0  0  0  0  0  0  0  0
   10.7877   -5.8568   24.6496 H   0  0  0  0  0  0  0  0  0  0  0  0
   11.2305   -5.0307   26.1819 H   0  0  0  0  0  0  0  0  0  0  0  0
    9.5854    1.2495   24.6258 H   0  0  0  0  0  0  0  0  0  0  0  0
    9.3886    2.2282   23.1920 H   0  0  0  0  0  0  0  0  0  0  0  0
    8.0686    0.4964   23.2745 H   0  0  0  0  0  0  0  0  0  0  0  0
    8.2385   -1.5646   21.0947 H   0  0  0  0  0  0  0  0  0  0  0  0
  1  2  1  0  0  0  0
  1  3  2  0  0  0  0
  2  4  2  0  0  0  0
  3  5  1  0  0  0  0
  4 10  1  0  0  0  0
  5 10  2  0  0  0  0
  6  8  2  0  0  0  0
  6 11  1  0  0  0  0
  7  9  1  0  0  0  0
  7 11  2  0  0  0  0
  8 12  1  0  0  0  0
  9 12  2  0  0  0  0
 10 22  1  0  0  0  0
 11 23  1  0  0  0  0
 12 28  1  0  0  0  0
 13 15  1  0  0  0  0
 13 24  2  0  0  0  0
 13 26  1  0  0  0  0
 14 25  2  0  0  0  0
 14 26  1  0  0  0  0
 14 27  1  0  0  0  0
 15 16  2  0  0  0  0
 16 17  1  0  0  0  0
 17 18  2  0  0  0  0
 18 26  1  0  0  0  0
 19 23  1  0  0  0  0
 19 27  1  0  0  0  0
 19 29  2  0  0  0  0
 20 28  1  0  0  0  0
 21 28  1  0  0  0  0
 22 23  1  1  0  0  0
 24 25  1  0  0  0  0
  1 30  1  0  0  0  0
  2 31  1  0  0  0  0
  3 32  1  0  0  0  0
  4 33  1  0  0  0  0
  5 34  1  0  0  0  0
  6 35  1  0  0  0  0
  7 36  1  0  0  0  0
  8 37  1  0  0  0  0
  9 38  1  0  0  0  0
 15 39  1  0  0  0  0
 16 40  1  0  0  0  0
 17 41  1  0  0  0  0
 18 42  1  0  0  0  0
 20 43  1  0  0  0  0
 20 44  1  0  0  0  0
 20 45  1  0  0  0  0
 21 46  1  0  0  0  0
 21 47  1  0  0  0  0
 21 48  1  0  0  0  0
 22 49  1  0  0  0  0
 22 50  1  0  0  0  0
 23 51  1  0  0  0  0
 27 52  1  0  0  0  0
M  END
> <clash_score>
0

> <docking_score>
-10.03022575378418

> <overlap_score>
0.9993513226509094

$$$$
BENZO_309_2
  -OEChem-08222022193D

 52 55  0     1  0  0  0  0  0999 V2000
   12.9427    3.5803   21.5528 C   0  0  0  0  0  0  0  0  0  0  0  0
   13.2971    2.5494   22.4231 C   0  0  0  0  0  0  0  0  0  0  0  0
   11.5975    3.8801   21.3380 C   0  0  0  0  0  0  0  0  0  0  0  0
   12.3064    1.8183   23.0784 C   0  0  0  0  0  0  0  0  0  0  0  0
   10.6067    3.1489   21.9933 C   0  0  0  0  0  0  0  0  0  0  0  0
    9.0720   -1.1280   24.8640 C   0  0  0  0  0  0  0  0  0  0  0  0
    9.7200   -2.2600   22.8630 C   0  0  0  0  0  0  0  0  0  0  0  0
    8.9960   -2.3380   25.5320 C   0  0  0  0  0  0  0  0  0  0  0  0
    9.6730   -3.4710   23.5300 C   0  0  0  0  0  0  0  0  0  0  0  0
   10.9611    2.1180   22.8635 C   0  0  0  0  0  0  0  0  0  0  0  0
    9.3350   -1.0880   23.5010 C   0  0  0  0  0  0  0  0  0  0  0  0
    9.3070   -3.5340   24.8780 C   0  0  0  0  0  0  0  0  0  0  0  0
    5.8300    0.9190   18.6970 C   0  0  0  0  0  0  0  0  0  0  0  0
    7.3170   -0.1610   19.8550 C   0  0  0  0  0  0  0  0  0  0  0  0
    4.6890    1.6810   18.4640 C   0  0  0  0  0  0  0  0  0  0  0  0
    3.9160    2.0630   19.5520 C   0  0  0  0  0  0  0  0  0  0  0  0
    4.2750    1.7050   20.8490 C   0  0  0  0  0  0  0  0  0  0  0  0
    5.4210    0.9600   21.0930 C   0  0  0  0  0  0  0  0  0  0  0  0
    9.0420    0.3700   21.5280 C   0  0  0  0  0  0  0  0  0  0  0  0
    8.8766   -4.8075   26.9494 C   0  0  0  0  0  0  0  0  0  0  0  0
    9.5669   -5.9896   24.8578 C   0  0  0  0  0  0  0  0  0  0  0  0
    9.8870    1.3260   23.5730 C   0  0  0  0  0  0  0  0  0  0  0  0
    9.4560    0.1560   22.8130 C   0  0  2  0  0  0  0  0  0  0  0  0
    6.7580    0.3810   17.8350 N   0  0  0  0  0  0  0  0  0  0  0  0
    7.6390   -0.2680   18.5410 N   0  0  0  0  0  0  0  0  0  0  0  0
    6.1790    0.5730   19.9990 N   0  0  0  0  0  0  0  0  0  0  0  0
    8.1890   -0.7180   20.8700 N   0  0  0  0  0  0  0  0  0  0  0  0
    9.2556   -4.7554   25.5513 N   0  0  0  0  0  0  0  0  0  0  0  0
    9.2690    1.4140   20.9380 O   0  0  0  0  0  0  0  0  0  0  0  0
   13.7143    4.1504   21.0437 H   0  0  0  0  0  0  0  0  0  0  0  0
   14.3446    2.3166   22.5913 H   0  0  0  0  0  0  0  0  0  0  0  0
   11.3212    4.6833   20.6614 H   0  0  0  0  0  0  0  0  0  0  0  0
   12.5919    1.0167   23.7545 H   0  0  0  0  0  0  0  0  0  0  0  0
    9.5611    3.3895   21.8196 H   0  0  0  0  0  0  0  0  0  0  0  0
    8.9214   -0.1986   25.4206 H   0  0  0  0  0  0  0  0  0  0  0  0
   10.0622   -2.2326   21.8251 H   0  0  0  0  0  0  0  0  0  0  0  0
    8.6882   -2.3542   26.5803 H   0  0  0  0  0  0  0  0  0  0  0  0
    9.9258   -4.3896   22.9914 H   0  0  0  0  0  0  0  0  0  0  0  0
    4.3967    1.9772   17.4718 H   0  0  0  0  0  0  0  0  0  0  0  0
    3.0218    2.6486   19.3697 H   0  0  0  0  0  0  0  0  0  0  0  0
    3.6566    2.0043   21.7065 H   0  0  0  0  0  0  0  0  0  0  0  0
    5.7190    0.6877   22.0810 H   0  0  0  0  0  0  0  0  0  0  0  0
    8.8955   -5.8512   27.2963 H   0  0  0  0  0  0  0  0  0  0  0  0
    9.5845   -4.2109   27.5435 H   0  0  0  0  0  0  0  0  0  0  0  0
    7.8621   -4.3996   27.0696 H   0  0  0  0  0  0  0  0  0  0  0  0
    9.4707   -6.8361   25.5536 H   0  0  0  0  0  0  0  0  0  0  0  0
    8.8693   -6.1242   24.0181 H   0  0  0  0  0  0  0  0  0  0  0  0
   10.5972   -5.9451   24.4750 H   0  0  0  0  0  0  0  0  0  0  0  0
   10.2455    1.0419   24.5710 H   0  0  0  0  0  0  0  0  0  0  0  0
    9.0345    1.9965   23.7496 H   0  0  0  0  0  0  0  0  0  0  0  0
   10.7927   -0.1029   22.4279 H   0  0  0  0  0  0  0  0  0  0  0  0
    8.2385   -1.5646   21.0947 H   0  0  0  0  0  0  0  0  0  0  0  0
  1  2  1  0  0  0  0
  1  3  2  0  0  0  0
  2  4  2  0  0  0  0
  3  5  1  0  0  0  0
  4 10  1  0  0  0  0
  5 10  2  0  0  0  0
  6  8  2  0  0  0  0
  6 11  1  0  0  0  0
  7  9  1  0  0  0  0
  7 11  2  0  0  0  0
  8 12  1  0  0  0  0
  9 12  2  0  0  0  0
 10 22  1  0  0  0  0
 11 23  1  0  0  0  0
 12 28  1  0  0  0  0
 13 15  1  0  0  0  0
 13 24  2  0  0  0  0
 13 26  1  0  0  0  0
 14 25  2  0  0  0  0
 14 26  1  0  0  0  0
 14 27  1  0  0  0  0
 15 16  2  0  0  0  0
 16 17  1  0  0  0  0
 17 18  2  0  0  0  0
 18 26  1  0  0  0  0
 19 23  1  0  0  0  0
 19 27  1  0  0  0  0
 19 29  2  0  0  0  0
 20 28  1  0  0  0  0
 21 28  1  0  0  0  0
 22 23  1  6  0  0  0
 24 25  1  0  0  0  0
  1 30  1  0  0  0  0
  2 31  1  0  0  0  0
  3 32  1  0  0  0  0
  4 33  1  0  0  0  0
  5 34  1  0  0  0  0
  6 35  1  0  0  0  0
  7 36  1  0  0  0  0
  8 37  1  0  0  0  0
  9 38  1  0  0  0  0
 15 39  1  0  0  0  0
 16 40  1  0  0  0  0
 17 41  1  0  0  0  0
 18 42  1  0  0  0  0
 20 43  1  0  0  0  0
 20 44  1  0  0  0  0
 20 45  1  0  0  0  0
 21 46  1  0  0  0  0
 21 47  1  0  0  0  0
 21 48  1  0  0  0  0
 22 49  1  0  0  0  0
 22 50  1  0  0  0  0
 23 51  1  0  0  0  0
 27 52  1  0  0  0  0
M  END
> <clash_score>
0.6163884898919225

> <docking_score>
-9.629210472106934

> <overlap_score>
0.9613717794418335

$$$$
BENZO_308_1
  -OEChem-08222022193D

 49 52  0     1  0  0  0  0  0999 V2000
    9.0720   -1.1280   24.8640 C   0  0  0  0  0  0  0  0  0  0  0  0
    9.7200   -2.2600   22.8630 C   0  0  0  0  0  0  0  0  0  0  0  0
    8.9960   -2.3380   25.5320 C   0  0  0  0  0  0  0  0  0  0  0  0
    9.6730   -3.4710   23.5300 C   0  0  0  0  0  0  0  0  0  0  0  0
   12.3398    0.5029   23.4216 C   0  0  0  0  0  0  0  0  0  0  0  0
   13.6291    0.9843   23.3622 C   0  0  0  0  0  0  0  0  0  0  0  0
   11.9713    2.7968   23.4917 C   0  0  0  0  0  0  0  0  0  0  0  0
    9.3350   -1.0880   23.5010 C   0  0  0  0  0  0  0  0  0  0  0  0
   11.3794    1.5528   23.4964 C   0  0  0  0  0  0  0  0  0  0  0  0
    9.3070   -3.5340   24.8780 C   0  0  0  0  0  0  0  0  0  0  0  0
    5.8300    0.9190   18.6970 C   0  0  0  0  0  0  0  0  0  0  0  0
    7.3170   -0.1610   19.8550 C   0  0  0  0  0  0  0  0  0  0  0  0
    4.6890    1.6810   18.4640 C   0  0  0  0  0  0  0  0  0  0  0  0
    3.9160    2.0630   19.5520 C   0  0  0  0  0  0  0  0  0  0  0  0
    4.2750    1.7050   20.8490 C   0  0  0  0  0  0  0  0  0  0  0  0
    5.4210    0.9600   21.0930 C   0  0  0  0  0  0  0  0  0  0  0  0
    9.0420    0.3700   21.5280 C   0  0  0  0  0  0  0  0  0  0  0  0
    8.0148   -5.2164   26.1419 C   0  0  0  0  0  0  0  0  0  0  0  0
   10.4390   -5.5857   25.6570 C   0  0  0  0  0  0  0  0  0  0  0  0
    9.8870    1.3260   23.5730 C   0  0  0  0  0  0  0  0  0  0  0  0
    9.4560    0.1560   22.8130 C   0  0  1  0  0  0  0  0  0  0  0  0
    6.7580    0.3810   17.8350 N   0  0  0  0  0  0  0  0  0  0  0  0
    7.6390   -0.2680   18.5410 N   0  0  0  0  0  0  0  0  0  0  0  0
    6.1790    0.5730   19.9990 N   0  0  0  0  0  0  0  0  0  0  0  0
    8.1890   -0.7180   20.8700 N   0  0  0  0  0  0  0  0  0  0  0  0
    9.2556   -4.7554   25.5513 N   0  0  0  0  0  0  0  0  0  0  0  0
    9.2690    1.4140   20.9380 O   0  0  0  0  0  0  0  0  0  0  0  0
   13.6781    2.6957   23.3969 S   0  0  0  0  0  0  0  0  0  0  0  0
    8.9214   -0.1986   25.4206 H   0  0  0  0  0  0  0  0  0  0  0  0
   10.0622   -2.2326   21.8251 H   0  0  0  0  0  0  0  0  0  0  0  0
    8.6882   -2.3542   26.5803 H   0  0  0  0  0  0  0  0  0  0  0  0
    9.9258   -4.3896   22.9914 H   0  0  0  0  0  0  0  0  0  0  0  0
   12.1014   -0.5532   23.4119 H   0  0  0  0  0  0  0  0  0  0  0  0
   14.5445    0.4131   23.3009 H   0  0  0  0  0  0  0  0  0  0  0  0
   11.4871    3.7623   23.5403 H   0  0  0  0  0  0  0  0  0  0  0  0
    4.3967    1.9772   17.4718 H   0  0  0  0  0  0  0  0  0  0  0  0
    3.0218    2.6486   19.3697 H   0  0  0  0  0  0  0  0  0  0  0  0
    3.6566    2.0043   21.7065 H   0  0  0  0  0  0  0  0  0  0  0  0
    5.7190    0.6877   22.0810 H   0  0  0  0  0  0  0  0  0  0  0  0
    8.1775   -6.1919   26.6235 H   0  0  0  0  0  0  0  0  0  0  0  0
    7.6740   -4.4889   26.8933 H   0  0  0  0  0  0  0  0  0  0  0  0
    7.2508   -5.3180   25.3570 H   0  0  0  0  0  0  0  0  0  0  0  0
   10.1974   -6.4996   26.2195 H   0  0  0  0  0  0  0  0  0  0  0  0
   10.7877   -5.8568   24.6496 H   0  0  0  0  0  0  0  0  0  0  0  0
   11.2305   -5.0307   26.1819 H   0  0  0  0  0  0  0  0  0  0  0  0
    9.5854    1.2495   24.6258 H   0  0  0  0  0  0  0  0  0  0  0  0
    9.3886    2.2282   23.1920 H   0  0  0  0  0  0  0  0  0  0  0  0
    8.0686    0.4964   23.2745 H   0  0  0  0  0  0  0  0  0  0  0  0
    8.2385   -1.5646   21.0947 H   0  0  0  0  0  0  0  0  0  0  0  0
  1  3  2  0  0  0  0
  1  8  1  0  0  0  0
  2  4  1  0  0  0  0
  2  8  2  0  0  0  0
  3 10  1  0  0  0  0
  4 10  2  0  0  0  0
  5  6  2  0  0  0  0
  5  9  1  0  0  0  0
  6 28  1  0  0  0  0
  7  9  2  0  0  0  0
  7 28  1  0  0  0  0
  8 21  1  0  0  0  0
  9 20  1  0  0  0  0
 10 26  1  0  0  0  0
 11 13  1  0  0  0  0
 11 22  2  0  0  0  0
 11 24  1  0  0  0  0
 12 23  2  0  0  0  0
 12 24  1  0  0  0  0
 12 25  1  0  0  0  0
 13 14  2  0  0  0  0
 14 15  1  0  0  0  0
 15 16  2  0  0  0  0
 16 24  1  0  0  0  0
 17 21  1  0  0  0  0
 17 25  1  0  0  0  0
 17 27  2  0  0  0  0
 18 26  1  0  0  0  0
 19 26  1  0  0  0  0
 20 21  1  1  0  0  0
 22 23  1  0  0  0  0
  1 29  1  0  0  0  0
  2 30  1  0  0  0  0
  3 31  1  0  0  0  0
  4 32  1  0  0  0  0
  5 33  1  0  0  0  0
  6 34  1  0  0  0  0
  7 35  1  0  0  0  0
 13 36  1  0  0  0  0
 14 37  1  0  0  0  0
 15 38  1  0  0  0  0
 16 39  1  0  0  0  0
 18 40  1  0  0  0  0
 18 41  1  0  0  0  0
 18 42  1  0  0  0  0
 19 43  1  0  0  0  0
 19 44  1  0  0  0  0
 19 45  1  0  0  0  0
 20 46  1  0  0  0  0
 20 47  1  0  0  0  0
 21 48  1  0  0  0  0
 25 49  1  0  0  0  0
M  END
> <clash_score>
0

> <docking_score>
-10.494406700134277

> <overlap_score>
0.9840582609176636

$$$$
BENZO_308_2
  -OEChem-08222022193D

 49 52  0     1  0  0  0  0  0999 V2000
    9.0720   -1.1280   24.8640 C   0  0  0  0  0  0  0  0  0  0  0  0
    9.7200   -2.2600   22.8630 C   0  0  0  0  0  0  0  0  0  0  0  0
    8.9960   -2.3380   25.5320 C   0  0  0  0  0  0  0  0  0  0  0  0
    9.6730   -3.4710   23.5300 C   0  0  0  0  0  0  0  0  0  0  0  0
   12.3907    0.6679   23.6950 C   0  0  0  0  0  0  0  0  0  0  0  0
   13.4189    0.5308   24.6014 C   0  0  0  0  0  0  0  0  0  0  0  0
   11.3314    1.2632   25.6764 C   0  0  0  0  0  0  0  0  0  0  0  0
    9.3350   -1.0880   23.5010 C   0  0  0  0  0  0  0  0  0  0  0  0
   11.1814    1.0923   24.3176 C   0  0  0  0  0  0  0  0  0  0  0  0
    9.3070   -3.5340   24.8780 C   0  0  0  0  0  0  0  0  0  0  0  0
    5.8300    0.9190   18.6970 C   0  0  0  0  0  0  0  0  0  0  0  0
    7.3170   -0.1610   19.8550 C   0  0  0  0  0  0  0  0  0  0  0  0
    4.6890    1.6810   18.4640 C   0  0  0  0  0  0  0  0  0  0  0  0
    3.9160    2.0630   19.5520 C   0  0  0  0  0  0  0  0  0  0  0  0
    4.2750    1.7050   20.8490 C   0  0  0  0  0  0  0  0  0  0  0  0
    5.4210    0.9600   21.0930 C   0  0  0  0  0  0  0  0  0  0  0  0
    9.0420    0.3700   21.5280 C   0  0  0  0  0  0  0  0  0  0  0  0
    8.0148   -5.2164   26.1419 C   0  0  0  0  0  0  0  0  0  0  0  0
   10.4390   -5.5857   25.6570 C   0  0  0  0  0  0  0  0  0  0  0  0
    9.8870    1.3260   23.5730 C   0  0  0  0  0  0  0  0  0  0  0  0
    9.4560    0.1560   22.8130 C   0  0  2  0  0  0  0  0  0  0  0  0
    6.7580    0.3810   17.8350 N   0  0  0  0  0  0  0  0  0  0  0  0
    7.6390   -0.2680   18.5410 N   0  0  0  0  0  0  0  0  0  0  0  0
    6.1790    0.5730   19.9990 N   0  0  0  0  0  0  0  0  0  0  0  0
    8.1890   -0.7180   20.8700 N   0  0  0  0  0  0  0  0  0  0  0  0
    9.2556   -4.7554   25.5513 N   0  0  0  0  0  0  0  0  0  0  0  0
    9.2690    1.4140   20.9380 O   0  0  0  0  0  0  0  0  0  0  0  0
   12.9250    0.9128   26.1959 S   0  0  0  0  0  0  0  0  0  0  0  0
    8.9214   -0.1986   25.4206 H   0  0  0  0  0  0  0  0  0  0  0  0
   10.0622   -2.2326   21.8251 H   0  0  0  0  0  0  0  0  0  0  0  0
    8.6882   -2.3542   26.5803 H   0  0  0  0  0  0  0  0  0  0  0  0
    9.9258   -4.3896   22.9914 H   0  0  0  0  0  0  0  0  0  0  0  0
   12.5049    0.4716   22.6364 H   0  0  0  0  0  0  0  0  0  0  0  0
   14.4362    0.2239   24.4037 H   0  0  0  0  0  0  0  0  0  0  0  0
   10.5839    1.5757   26.3924 H   0  0  0  0  0  0  0  0  0  0  0  0
    4.3967    1.9772   17.4718 H   0  0  0  0  0  0  0  0  0  0  0  0
    3.0218    2.6486   19.3697 H   0  0  0  0  0  0  0  0  0  0  0  0
    3.6566    2.0043   21.7065 H   0  0  0  0  0  0  0  0  0  0  0  0
    5.7190    0.6877   22.0810 H   0  0  0  0  0  0  0  0  0  0  0  0
    8.1775   -6.1919   26.6235 H   0  0  0  0  0  0  0  0  0  0  0  0
    7.6740   -4.4889   26.8933 H   0  0  0  0  0  0  0  0  0  0  0  0
    7.2508   -5.3180   25.3570 H   0  0  0  0  0  0  0  0  0  0  0  0
   10.1974   -6.4996   26.2195 H   0  0  0  0  0  0  0  0  0  0  0  0
   10.7877   -5.8568   24.6496 H   0  0  0  0  0  0  0  0  0  0  0  0
   11.2305   -5.0307   26.1819 H   0  0  0  0  0  0  0  0  0  0  0  0
    9.1131    1.6463   24.2828 H   0  0  0  0  0  0  0  0  0  0  0  0
   10.0354    2.1807   22.8984 H   0  0  0  0  0  0  0  0  0  0  0  0
   10.7927   -0.1029   22.4279 H   0  0  0  0  0  0  0  0  0  0  0  0
    8.2385   -1.5646   21.0947 H   0  0  0  0  0  0  0  0  0  0  0  0
  1  3  2  0  0  0  0
  1  8  1  0  0  0  0
  2  4  1  0  0  0  0
  2  8  2  0  0  0  0
  3 10  1  0  0  0  0
  4 10  2  0  0  0  0
  5  6  2  0  0  0  0
  5  9  1  0  0  0  0
  6 28  1  0  0  0  0
  7  9  2  0  0  0  0
  7 28  1  0  0  0  0
  8 21  1  0  0  0  0
  9 20  1  0  0  0  0
 10 26  1  0  0  0  0
 11 13  1  0  0  0  0
 11 22  2  0  0  0  0
 11 24  1  0  0  0  0
 12 23  2  0  0  0  0
 12 24  1  0  0  0  0
 12 25  1  0  0  0  0
 13 14  2  0  0  0  0
 14 15  1  0  0  0  0
 15 16  2  0  0  0  0
 16 24  1  0  0  0  0
 17 21  1  0  0  0  0
 17 25  1  0  0  0  0
 17 27  2  0  0  0  0
 18 26  1  0  0  0  0
 19 26  1  0  0  0  0
 20 21  1  6  0  0  0
 22 23  1  0  0  0  0
  1 29  1  0  0  0  0
  2 30  1  0  0  0  0
  3 31  1  0  0  0  0
  4 32  1  0  0  0  0
  5 33  1  0  0  0  0
  6 34  1  0  0  0  0
  7 35  1  0  0  0  0
 13 36  1  0  0  0  0
 14 37  1  0  0  0  0
 15 38  1  0  0  0  0
 16 39  1  0  0  0  0
 18 40  1  0  0  0  0
 18 41  1  0  0  0  0
 18 42  1  0  0  0  0
 19 43  1  0  0  0  0
 19 44  1  0  0  0  0
 19 45  1  0  0  0  0
 20 46  1  0  0  0  0
 20 47  1  0  0  0  0
 21 48  1  0  0  0  0
 25 49  1  0  0  0  0
M  END
> <clash_score>
0.6216871897272661

> <docking_score>
-8.380243301391602

> <overlap_score>
0.9070502519607544

$$$$
BENZO_306_2
  -OEChem-08222022193D

 59 63  0     1  0  0  0  0  0999 V2000
    4.2750    1.7050   20.8490 C   0  0  0  0  0  0  0  0  0  0  0  0
    3.9160    2.0630   19.5520 C   0  0  0  0  0  0  0  0  0  0  0  0
   13.6189    0.6768   23.2648 C   0  0  0  0  0  0  0  0  0  0  0  0
    5.4210    0.9600   21.0930 C   0  0  0  0  0  0  0  0  0  0  0  0
   12.2417    0.4681   23.3367 C   0  0  0  0  0  0  0  0  0  0  0  0
    9.0720   -1.1280   24.8640 C   0  0  0  0  0  0  0  0  0  0  0  0
    9.7200   -2.2600   22.8630 C   0  0  0  0  0  0  0  0  0  0  0  0
    4.6890    1.6810   18.4640 C   0  0  0  0  0  0  0  0  0  0  0  0
    8.9960   -2.3380   25.5320 C   0  0  0  0  0  0  0  0  0  0  0  0
    9.6730   -3.4710   23.5300 C   0  0  0  0  0  0  0  0  0  0  0  0
   14.1339    1.9702   23.3527 C   0  0  0  0  0  0  0  0  0  0  0  0
   11.8943    2.8462   23.5844 C   0  0  0  0  0  0  0  0  0  0  0  0
    7.6390   -0.2680   18.5410 C   0  0  0  0  0  0  0  0  0  0  0  0
    6.1790    0.5730   19.9990 C   0  0  0  0  0  0  0  0  0  0  0  0
    9.3350   -1.0880   23.5010 C   0  0  0  0  0  0  0  0  0  0  0  0
   11.3794    1.5528   23.4964 C   0  0  0  0  0  0  0  0  0  0  0  0
    5.8300    0.9190   18.6970 C   0  0  0  0  0  0  0  0  0  0  0  0
    9.3070   -3.5340   24.8780 C   0  0  0  0  0  0  0  0  0  0  0  0
    7.3170   -0.1610   19.8550 C   0  0  0  0  0  0  0  0  0  0  0  0
   13.2716    3.0548   23.5125 C   0  0  0  0  0  0  0  0  0  0  0  0
    9.0420    0.3700   21.5280 C   0  0  0  0  0  0  0  0  0  0  0  0
   10.0772   -5.0257   26.7190 C   0  0  0  0  0  0  0  0  0  0  0  0
    8.0927   -5.6196   25.4069 C   0  0  0  0  0  0  0  0  0  0  0  0
    9.1935   -4.9431   27.9590 C   0  0  0  0  0  0  0  0  0  0  0  0
    7.2758   -5.5292   26.6966 C   0  0  0  0  0  0  0  0  0  0  0  0
    9.8870    1.3260   23.5730 C   0  0  0  0  0  0  0  0  0  0  0  0
    9.4560    0.1560   22.8130 C   0  0  2  0  0  0  0  0  0  0  0  0
    6.7580    0.3810   17.8350 N   0  0  0  0  0  0  0  0  0  0  0  0
    9.2564   -4.7368   25.5411 N   0  0  0  0  0  0  0  0  0  0  0  0
    8.1890   -0.7180   20.8700 N   0  0  0  0  0  0  0  0  0  0  0  0
    9.2690    1.4140   20.9380 O   0  0  0  0  0  0  0  0  0  0  0  0
    8.0885   -5.8462   27.8323 O   0  0  0  0  0  0  0  0  0  0  0  0
   13.9075    4.6504   23.6198 Cl  0  0  0  0  0  0  0  0  0  0  0  0
    3.6453    2.0152   21.6831 H   0  0  0  0  0  0  0  0  0  0  0  0
    3.0147    2.6520   19.3913 H   0  0  0  0  0  0  0  0  0  0  0  0
   14.2901   -0.1681   23.1402 H   0  0  0  0  0  0  0  0  0  0  0  0
    5.6991    0.6995   22.1042 H   0  0  0  0  0  0  0  0  0  0  0  0
   11.8492   -0.5431   23.2671 H   0  0  0  0  0  0  0  0  0  0  0  0
    8.9214   -0.1986   25.4206 H   0  0  0  0  0  0  0  0  0  0  0  0
   10.0622   -2.2326   21.8251 H   0  0  0  0  0  0  0  0  0  0  0  0
    4.4051    1.9733   17.4488 H   0  0  0  0  0  0  0  0  0  0  0  0
    8.6882   -2.3542   26.5803 H   0  0  0  0  0  0  0  0  0  0  0  0
    9.9258   -4.3896   22.9914 H   0  0  0  0  0  0  0  0  0  0  0  0
   15.2095    2.1179   23.2949 H   0  0  0  0  0  0  0  0  0  0  0  0
   11.2178    3.6885   23.7094 H   0  0  0  0  0  0  0  0  0  0  0  0
    8.4825   -0.7940   18.0623 H   0  0  0  0  0  0  0  0  0  0  0  0
   10.9045   -4.3145   26.8095 H   0  0  0  0  0  0  0  0  0  0  0  0
   10.4943   -6.0354   26.6306 H   0  0  0  0  0  0  0  0  0  0  0  0
    8.4338   -6.6479   25.2591 H   0  0  0  0  0  0  0  0  0  0  0  0
    7.4707   -5.3291   24.5579 H   0  0  0  0  0  0  0  0  0  0  0  0
    9.7638   -5.2402   28.8416 H   0  0  0  0  0  0  0  0  0  0  0  0
    8.8238   -3.9272   28.1248 H   0  0  0  0  0  0  0  0  0  0  0  0
    6.8340   -4.5339   26.8232 H   0  0  0  0  0  0  0  0  0  0  0  0
    6.4551   -6.2523   26.6642 H   0  0  0  0  0  0  0  0  0  0  0  0
    9.5854    1.2495   24.6258 H   0  0  0  0  0  0  0  0  0  0  0  0
    9.3886    2.2282   23.1920 H   0  0  0  0  0  0  0  0  0  0  0  0
    8.0686    0.4964   23.2745 H   0  0  0  0  0  0  0  0  0  0  0  0
    6.7266    0.4930   16.8305 H   0  0  0  0  0  0  0  0  0  0  0  0
    8.2408   -1.5631   21.0968 H   0  0  0  0  0  0  0  0  0  0  0  0
  1  2  1  0  0  0  0
  1  4  2  0  0  0  0
  2  8  2  0  0  0  0
  3  5  2  0  0  0  0
  3 11  1  0  0  0  0
  4 14  1  0  0  0  0
  5 16  1  0  0  0  0
  6  9  2  0  0  0  0
  6 15  1  0  0  0  0
  7 10  1  0  0  0  0
  7 15  2  0  0  0  0
  8 17  1  0  0  0  0
  9 18  1  0  0  0  0
 10 18  2  0  0  0  0
 11 20  2  0  0  0  0
 12 16  2  0  0  0  0
 12 20  1  0  0  0  0
 13 19  2  0  0  0  0
 13 28  1  0  0  0  0
 14 17  2  0  0  0  0
 14 19  1  0  0  0  0
 15 27  1  0  0  0  0
 16 26  1  0  0  0  0
 17 28  1  0  0  0  0
 18 29  1  0  0  0  0
 19 30  1  0  0  0  0
 20 33  1  0  0  0  0
 21 27  1  6  0  0  0
 21 30  1  0  0  0  0
 21 31  2  0  0  0  0
 22 24  1  0  0  0  0
 22 29  1  0  0  0  0
 23 25  1  0  0  0  0
 23 29  1  0  0  0  0
 24 32  1  0  0  0  0
 25 32  1  0  0  0  0
 26 27  1  0  0  0  0
  1 34  1  0  0  0  0
  2 35  1  0  0  0  0
  3 36  1  0  0  0  0
  4 37  1  0  0  0  0
  5 38  1  0  0  0  0
  6 39  1  0  0  0  0
  7 40  1  0  0  0  0
  8 41  1  0  0  0  0
  9 42  1  0  0  0  0
 10 43  1  0  0  0  0
 11 44  1  0  0  0  0
 12 45  1  0  0  0  0
 13 46  1  0  0  0  0
 22 47  1  0  0  0  0
 22 48  1  0  0  0  0
 23 49  1  0  0  0  0
 23 50  1  0  0  0  0
 24 51  1  0  0  0  0
 24 52  1  0  0  0  0
 25 53  1  0  0  0  0
 25 54  1  0  0  0  0
 26 55  1  0  0  0  0
 26 56  1  0  0  0  0
 27 57  1  0  0  0  0
 28 58  1  0  0  0  0
 30 59  1  0  0  0  0
M  END
> <clash_score>
0

> <docking_score>
-8.533409118652344

> <overlap_score>
1.013559341430664

$$$$
BENZO_307_2
  -OEChem-08222022193D

 59 63  0     1  0  0  0  0  0999 V2000
    4.2750    1.7050   20.8490 C   0  0  0  0  0  0  0  0  0  0  0  0
    3.9160    2.0630   19.5520 C   0  0  0  0  0  0  0  0  0  0  0  0
    5.4210    0.9600   21.0930 C   0  0  0  0  0  0  0  0  0  0  0  0
    9.0720   -1.1280   24.8640 C   0  0  0  0  0  0  0  0  0  0  0  0
    9.7200   -2.2600   22.8630 C   0  0  0  0  0  0  0  0  0  0  0  0
    4.6890    1.6810   18.4640 C   0  0  0  0  0  0  0  0  0  0  0  0
    8.9960   -2.3380   25.5320 C   0  0  0  0  0  0  0  0  0  0  0  0
    9.6730   -3.4710   23.5300 C   0  0  0  0  0  0  0  0  0  0  0  0
   12.3565    1.9564   22.9554 C   0  0  0  0  0  0  0  0  0  0  0  0
   10.7932    3.1569   21.9808 C   0  0  0  0  0  0  0  0  0  0  0  0
    7.6390   -0.2680   18.5410 C   0  0  0  0  0  0  0  0  0  0  0  0
    6.1790    0.5730   19.9990 C   0  0  0  0  0  0  0  0  0  0  0  0
    9.3350   -1.0880   23.5010 C   0  0  0  0  0  0  0  0  0  0  0  0
   10.9611    2.1180   22.8635 C   0  0  0  0  0  0  0  0  0  0  0  0
    5.8300    0.9190   18.6970 C   0  0  0  0  0  0  0  0  0  0  0  0
    9.3070   -3.5340   24.8780 C   0  0  0  0  0  0  0  0  0  0  0  0
    7.3170   -0.1610   19.8550 C   0  0  0  0  0  0  0  0  0  0  0  0
    9.0420    0.3700   21.5280 C   0  0  0  0  0  0  0  0  0  0  0  0
    9.5176   -4.8600   26.9769 C   0  0  0  0  0  0  0  0  0  0  0  0
    8.5166   -5.8725   24.9805 C   0  0  0  0  0  0  0  0  0  0  0  0
    8.1870   -5.0443   27.6986 C   0  0  0  0  0  0  0  0  0  0  0  0
    7.2201   -6.0348   25.7753 C   0  0  0  0  0  0  0  0  0  0  0  0
   12.3862    4.6002   20.6932 C   0  0  0  0  0  0  0  0  0  0  0  0
    9.8870    1.3260   23.5730 C   0  0  0  0  0  0  0  0  0  0  0  0
    9.4560    0.1560   22.8130 C   0  0  2  0  0  0  0  0  0  0  0  0
   13.0274    2.8231   22.1920 N   0  0  0  0  0  0  0  0  0  0  0  0
    6.7580    0.3810   17.8350 N   0  0  0  0  0  0  0  0  0  0  0  0
   12.0493    3.5392   21.6118 N   0  0  0  0  0  0  0  0  0  0  0  0
    9.2564   -4.7368   25.5411 N   0  0  0  0  0  0  0  0  0  0  0  0
    8.1890   -0.7180   20.8700 N   0  0  0  0  0  0  0  0  0  0  0  0
    9.2690    1.4140   20.9380 O   0  0  0  0  0  0  0  0  0  0  0  0
    7.4995   -6.1856   27.1717 O   0  0  0  0  0  0  0  0  0  0  0  0
    3.6453    2.0152   21.6831 H   0  0  0  0  0  0  0  0  0  0  0  0
    3.0147    2.6520   19.3913 H   0  0  0  0  0  0  0  0  0  0  0  0
    5.6991    0.6995   22.1042 H   0  0  0  0  0  0  0  0  0  0  0  0
    8.9214   -0.1986   25.4206 H   0  0  0  0  0  0  0  0  0  0  0  0
   10.0622   -2.2326   21.8251 H   0  0  0  0  0  0  0  0  0  0  0  0
    4.4051    1.9733   17.4488 H   0  0  0  0  0  0  0  0  0  0  0  0
    8.6882   -2.3542   26.5803 H   0  0  0  0  0  0  0  0  0  0  0  0
    9.9258   -4.3896   22.9914 H   0  0  0  0  0  0  0  0  0  0  0  0
   12.9148    1.2434   23.5455 H   0  0  0  0  0  0  0  0  0  0  0  0
    9.9088    3.6436   21.5925 H   0  0  0  0  0  0  0  0  0  0  0  0
    8.4825   -0.7940   18.0623 H   0  0  0  0  0  0  0  0  0  0  0  0
   10.0259   -3.9714   27.3647 H   0  0  0  0  0  0  0  0  0  0  0  0
   10.1570   -5.7322   27.1547 H   0  0  0  0  0  0  0  0  0  0  0  0
    9.1206   -6.7792   25.0735 H   0  0  0  0  0  0  0  0  0  0  0  0
    8.2825   -5.7115   23.9263 H   0  0  0  0  0  0  0  0  0  0  0  0
    8.3631   -5.2257   28.7609 H   0  0  0  0  0  0  0  0  0  0  0  0
    7.5532   -4.1574   27.6103 H   0  0  0  0  0  0  0  0  0  0  0  0
    6.5460   -5.1840   25.6220 H   0  0  0  0  0  0  0  0  0  0  0  0
    6.6948   -6.9355   25.4433 H   0  0  0  0  0  0  0  0  0  0  0  0
   12.4913    5.5238   21.2686 H   0  0  0  0  0  0  0  0  0  0  0  0
   13.3235    4.3577   20.1848 H   0  0  0  0  0  0  0  0  0  0  0  0
   11.5908    4.7003   19.9494 H   0  0  0  0  0  0  0  0  0  0  0  0
   10.2455    1.0419   24.5710 H   0  0  0  0  0  0  0  0  0  0  0  0
    9.0345    1.9965   23.7496 H   0  0  0  0  0  0  0  0  0  0  0  0
   10.7927   -0.1029   22.4279 H   0  0  0  0  0  0  0  0  0  0  0  0
    6.7266    0.4930   16.8305 H   0  0  0  0  0  0  0  0  0  0  0  0
    8.2408   -1.5631   21.0968 H   0  0  0  0  0  0  0  0  0  0  0  0
  1  2  1  0  0  0  0
  1  3  2  0  0  0  0
  2  6  2  0  0  0  0
  3 12  1  0  0  0  0
  4  7  2  0  0  0  0
  4 13  1  0  0  0  0
  5  8  1  0  0  0  0
  5 13  2  0  0  0  0
  6 15  1  0  0  0  0
  7 16  1  0  0  0  0
  8 16  2  0  0  0  0
  9 14  1  0  0  0  0
  9 26  2  0  0  0  0
 10 14  2  0  0  0  0
 10 28  1  0  0  0  0
 11 17  2  0  0  0  0
 11 27  1  0  0  0  0
 12 15  2  0  0  0  0
 12 17  1  0  0  0  0
 13 25  1  0  0  0  0
 14 24  1  0  0  0  0
 15 27  1  0  0  0  0
 16 29  1  0  0  0  0
 17 30  1  0  0  0  0
 18 25  1  0  0  0  0
 18 30  1  0  0  0  0
 18 31  2  0  0  0  0
 19 21  1  0  0  0  0
 19 29  1  0  0  0  0
 20 22  1  0  0  0  0
 20 29  1  0  0  0  0
 21 32  1  0  0  0  0
 22 32  1  0  0  0  0
 23 28  1  0  0  0  0
 24 25  1  6  0  0  0
 26 28  1  0  0  0  0
  1 33  1  0  0  0  0
  2 34  1  0  0  0  0
  3 35  1  0  0  0  0
  4 36  1  0  0  0  0
  5 37  1  0  0  0  0
  6 38  1  0  0  0  0
  7 39  1  0  0  0  0
  8 40  1  0  0  0  0
  9 41  1  0  0  0  0
 10 42  1  0  0  0  0
 11 43  1  0  0  0  0
 19 44  1  0  0  0  0
 19 45  1  0  0  0  0
 20 46  1  0  0  0  0
 20 47  1  0  0  0  0
 21 48  1  0  0  0  0
 21 49  1  0  0  0  0
 22 50  1  0  0  0  0
 22 51  1  0  0  0  0
 23 52  1  0  0  0  0
 23 53  1  0  0  0  0
 23 54  1  0  0  0  0
 24 55  1  0  0  0  0
 24 56  1  0  0  0  0
 25 57  1  0  0  0  0
 27 58  1  0  0  0  0
 30 59  1  0  0  0  0
M  END
> <clash_score>
0

> <docking_score>
-7.462403774261475

> <overlap_score>
0.964508056640625

$$$$
BENZO_307_1
  -OEChem-08222022193D

 59 63  0     1  0  0  0  0  0999 V2000
    4.2750    1.7050   20.8490 C   0  0  0  0  0  0  0  0  0  0  0  0
    3.9160    2.0630   19.5520 C   0  0  0  0  0  0  0  0  0  0  0  0
    5.4210    0.9600   21.0930 C   0  0  0  0  0  0  0  0  0  0  0  0
    9.0720   -1.1280   24.8640 C   0  0  0  0  0  0  0  0  0  0  0  0
    9.7200   -2.2600   22.8630 C   0  0  0  0  0  0  0  0  0  0  0  0
    4.6890    1.6810   18.4640 C   0  0  0  0  0  0  0  0  0  0  0  0
    8.9960   -2.3380   25.5320 C   0  0  0  0  0  0  0  0  0  0  0  0
    9.6730   -3.4710   23.5300 C   0  0  0  0  0  0  0  0  0  0  0  0
   12.0720    2.7762   23.5689 C   0  0  0  0  0  0  0  0  0  0  0  0
   12.3651    0.6087   23.3429 C   0  0  0  0  0  0  0  0  0  0  0  0
    7.6390   -0.2680   18.5410 C   0  0  0  0  0  0  0  0  0  0  0  0
    6.1790    0.5730   19.9990 C   0  0  0  0  0  0  0  0  0  0  0  0
    9.3350   -1.0880   23.5010 C   0  0  0  0  0  0  0  0  0  0  0  0
   11.3794    1.5528   23.4964 C   0  0  0  0  0  0  0  0  0  0  0  0
    5.8300    0.9190   18.6970 C   0  0  0  0  0  0  0  0  0  0  0  0
    9.3070   -3.5340   24.8780 C   0  0  0  0  0  0  0  0  0  0  0  0
    7.3170   -0.1610   19.8550 C   0  0  0  0  0  0  0  0  0  0  0  0
    9.0420    0.3700   21.5280 C   0  0  0  0  0  0  0  0  0  0  0  0
   10.0772   -5.0257   26.7190 C   0  0  0  0  0  0  0  0  0  0  0  0
    8.0927   -5.6196   25.4069 C   0  0  0  0  0  0  0  0  0  0  0  0
    9.1935   -4.9431   27.9590 C   0  0  0  0  0  0  0  0  0  0  0  0
    7.2758   -5.5292   26.6966 C   0  0  0  0  0  0  0  0  0  0  0  0
   14.8634    0.7326   23.1949 C   0  0  0  0  0  0  0  0  0  0  0  0
    9.8870    1.3260   23.5730 C   0  0  0  0  0  0  0  0  0  0  0  0
    9.4560    0.1560   22.8130 C   0  0  1  0  0  0  0  0  0  0  0  0
   13.3955    2.6261   23.4698 N   0  0  0  0  0  0  0  0  0  0  0  0
    6.7580    0.3810   17.8350 N   0  0  0  0  0  0  0  0  0  0  0  0
   13.5424    1.2972   23.3335 N   0  0  0  0  0  0  0  0  0  0  0  0
    9.2564   -4.7368   25.5411 N   0  0  0  0  0  0  0  0  0  0  0  0
    8.1890   -0.7180   20.8700 N   0  0  0  0  0  0  0  0  0  0  0  0
    9.2690    1.4140   20.9380 O   0  0  0  0  0  0  0  0  0  0  0  0
    8.0885   -5.8462   27.8323 O   0  0  0  0  0  0  0  0  0  0  0  0
    3.6453    2.0152   21.6831 H   0  0  0  0  0  0  0  0  0  0  0  0
    3.0147    2.6520   19.3913 H   0  0  0  0  0  0  0  0  0  0  0  0
    5.6991    0.6995   22.1042 H   0  0  0  0  0  0  0  0  0  0  0  0
    8.9214   -0.1986   25.4206 H   0  0  0  0  0  0  0  0  0  0  0  0
   10.0622   -2.2326   21.8251 H   0  0  0  0  0  0  0  0  0  0  0  0
    4.4051    1.9733   17.4488 H   0  0  0  0  0  0  0  0  0  0  0  0
    8.6882   -2.3542   26.5803 H   0  0  0  0  0  0  0  0  0  0  0  0
    9.9258   -4.3896   22.9914 H   0  0  0  0  0  0  0  0  0  0  0  0
   11.6698    3.7720   23.6907 H   0  0  0  0  0  0  0  0  0  0  0  0
   12.3300   -0.4677   23.2433 H   0  0  0  0  0  0  0  0  0  0  0  0
    8.4825   -0.7940   18.0623 H   0  0  0  0  0  0  0  0  0  0  0  0
   10.9045   -4.3145   26.8095 H   0  0  0  0  0  0  0  0  0  0  0  0
   10.4943   -6.0354   26.6306 H   0  0  0  0  0  0  0  0  0  0  0  0
    8.4338   -6.6479   25.2591 H   0  0  0  0  0  0  0  0  0  0  0  0
    7.4707   -5.3291   24.5579 H   0  0  0  0  0  0  0  0  0  0  0  0
    9.7638   -5.2402   28.8416 H   0  0  0  0  0  0  0  0  0  0  0  0
    8.8238   -3.9272   28.1248 H   0  0  0  0  0  0  0  0  0  0  0  0
    6.8340   -4.5339   26.8232 H   0  0  0  0  0  0  0  0  0  0  0  0
    6.4551   -6.2523   26.6642 H   0  0  0  0  0  0  0  0  0  0  0  0
   15.1060    0.6995   22.1295 H   0  0  0  0  0  0  0  0  0  0  0  0
   15.5839    1.3558   23.7319 H   0  0  0  0  0  0  0  0  0  0  0  0
   14.8726   -0.2742   23.6217 H   0  0  0  0  0  0  0  0  0  0  0  0
    9.5854    1.2495   24.6258 H   0  0  0  0  0  0  0  0  0  0  0  0
    9.3886    2.2282   23.1920 H   0  0  0  0  0  0  0  0  0  0  0  0
    8.0686    0.4964   23.2745 H   0  0  0  0  0  0  0  0  0  0  0  0
    6.7266    0.4930   16.8305 H   0  0  0  0  0  0  0  0  0  0  0  0
    8.2408   -1.5631   21.0968 H   0  0  0  0  0  0  0  0  0  0  0  0
  1  2  1  0  0  0  0
  1  3  2  0  0  0  0
  2  6  2  0  0  0  0
  3 12  1  0  0  0  0
  4  7  2  0  0  0  0
  4 13  1  0  0  0  0
  5  8  1  0  0  0  0
  5 13  2  0  0  0  0
  6 15  1  0  0  0  0
  7 16  1  0  0  0  0
  8 16  2  0  0  0  0
  9 14  1  0  0  0  0
  9 26  2  0  0  0  0
 10 14  2  0  0  0  0
 10 28  1  0  0  0  0
 11 17  2  0  0  0  0
 11 27  1  0  0  0  0
 12 15  2  0  0  0  0
 12 17  1  0  0  0  0
 13 25  1  0  0  0  0
 14 24  1  0  0  0  0
 15 27  1  0  0  0  0
 16 29  1  0  0  0  0
 17 30  1  0  0  0  0
 18 25  1  0  0  0  0
 18 30  1  0  0  0  0
 18 31  2  0  0  0  0
 19 21  1  0  0  0  0
 19 29  1  0  0  0  0
 20 22  1  0  0  0  0
 20 29  1  0  0  0  0
 21 32  1  0  0  0  0
 22 32  1  0  0  0  0
 23 28  1  0  0  0  0
 24 25  1  1  0  0  0
 26 28  1  0  0  0  0
  1 33  1  0  0  0  0
  2 34  1  0  0  0  0
  3 35  1  0  0  0  0
  4 36  1  0  0  0  0
  5 37  1  0  0  0  0
  6 38  1  0  0  0  0
  7 39  1  0  0  0  0
  8 40  1  0  0  0  0
  9 41  1  0  0  0  0
 10 42  1  0  0  0  0
 11 43  1  0  0  0  0
 19 44  1  0  0  0  0
 19 45  1  0  0  0  0
 20 46  1  0  0  0  0
 20 47  1  0  0  0  0
 21 48  1  0  0  0  0
 21 49  1  0  0  0  0
 22 50  1  0  0  0  0
 22 51  1  0  0  0  0
 23 52  1  0  0  0  0
 23 53  1  0  0  0  0
 23 54  1  0  0  0  0
 24 55  1  0  0  0  0
 24 56  1  0  0  0  0
 25 57  1  0  0  0  0
 27 58  1  0  0  0  0
 30 59  1  0  0  0  0
M  END
> <clash_score>
0

> <docking_score>
-8.864678382873535

> <overlap_score>
1.0123831033706665

$$$$
BENZO_310_1
  -OEChem-08222022193D

 52 55  0     1  0  0  0  0  0999 V2000
   13.6189    0.6768   23.2647 C   0  0  0  0  0  0  0  0  0  0  0  0
   12.2417    0.4681   23.3366 C   0  0  0  0  0  0  0  0  0  0  0  0
    9.0720   -1.1280   24.8640 C   0  0  0  0  0  0  0  0  0  0  0  0
    9.7200   -2.2600   22.8630 C   0  0  0  0  0  0  0  0  0  0  0  0
    8.9960   -2.3380   25.5320 C   0  0  0  0  0  0  0  0  0  0  0  0
    9.6730   -3.4710   23.5300 C   0  0  0  0  0  0  0  0  0  0  0  0
   14.1339    1.9702   23.3527 C   0  0  0  0  0  0  0  0  0  0  0  0
   11.8943    2.8462   23.5844 C   0  0  0  0  0  0  0  0  0  0  0  0
    9.3350   -1.0880   23.5010 C   0  0  0  0  0  0  0  0  0  0  0  0
   11.3794    1.5528   23.4964 C   0  0  0  0  0  0  0  0  0  0  0  0
    9.3070   -3.5340   24.8780 C   0  0  0  0  0  0  0  0  0  0  0  0
   13.2716    3.0548   23.5125 C   0  0  0  0  0  0  0  0  0  0  0  0
    5.8300    0.9190   18.6970 C   0  0  0  0  0  0  0  0  0  0  0  0
    7.3170   -0.1610   19.8550 C   0  0  0  0  0  0  0  0  0  0  0  0
    4.6890    1.6810   18.4640 C   0  0  0  0  0  0  0  0  0  0  0  0
    3.9160    2.0630   19.5520 C   0  0  0  0  0  0  0  0  0  0  0  0
    4.2750    1.7050   20.8490 C   0  0  0  0  0  0  0  0  0  0  0  0
    5.4210    0.9600   21.0930 C   0  0  0  0  0  0  0  0  0  0  0  0
    9.0420    0.3700   21.5280 C   0  0  0  0  0  0  0  0  0  0  0  0
    8.0148   -5.2164   26.1419 C   0  0  0  0  0  0  0  0  0  0  0  0
   10.4390   -5.5857   25.6570 C   0  0  0  0  0  0  0  0  0  0  0  0
    9.8870    1.3260   23.5730 C   0  0  0  0  0  0  0  0  0  0  0  0
    9.4560    0.1560   22.8130 C   0  0  1  0  0  0  0  0  0  0  0  0
    6.7580    0.3810   17.8350 N   0  0  0  0  0  0  0  0  0  0  0  0
    7.6390   -0.2680   18.5410 N   0  0  0  0  0  0  0  0  0  0  0  0
    6.1790    0.5730   19.9990 N   0  0  0  0  0  0  0  0  0  0  0  0
    8.1890   -0.7180   20.8700 N   0  0  0  0  0  0  0  0  0  0  0  0
    9.2556   -4.7554   25.5513 N   0  0  0  0  0  0  0  0  0  0  0  0
    9.2690    1.4140   20.9380 O   0  0  0  0  0  0  0  0  0  0  0  0
   13.9075    4.6504   23.6198 Cl  0  0  0  0  0  0  0  0  0  0  0  0
   14.2901   -0.1681   23.1402 H   0  0  0  0  0  0  0  0  0  0  0  0
   11.8492   -0.5431   23.2671 H   0  0  0  0  0  0  0  0  0  0  0  0
    8.9214   -0.1986   25.4206 H   0  0  0  0  0  0  0  0  0  0  0  0
   10.0622   -2.2326   21.8251 H   0  0  0  0  0  0  0  0  0  0  0  0
    8.6882   -2.3542   26.5803 H   0  0  0  0  0  0  0  0  0  0  0  0
    9.9258   -4.3896   22.9914 H   0  0  0  0  0  0  0  0  0  0  0  0
   15.2095    2.1179   23.2949 H   0  0  0  0  0  0  0  0  0  0  0  0
   11.2178    3.6885   23.7094 H   0  0  0  0  0  0  0  0  0  0  0  0
    4.3967    1.9772   17.4718 H   0  0  0  0  0  0  0  0  0  0  0  0
    3.0218    2.6486   19.3697 H   0  0  0  0  0  0  0  0  0  0  0  0
    3.6566    2.0043   21.7065 H   0  0  0  0  0  0  0  0  0  0  0  0
    5.7190    0.6877   22.0810 H   0  0  0  0  0  0  0  0  0  0  0  0
    8.1775   -6.1919   26.6235 H   0  0  0  0  0  0  0  0  0  0  0  0
    7.6740   -4.4889   26.8933 H   0  0  0  0  0  0  0  0  0  0  0  0
    7.2508   -5.3180   25.3570 H   0  0  0  0  0  0  0  0  0  0  0  0
   10.1974   -6.4996   26.2195 H   0  0  0  0  0  0  0  0  0  0  0  0
   10.7877   -5.8568   24.6496 H   0  0  0  0  0  0  0  0  0  0  0  0
   11.2305   -5.0307   26.1819 H   0  0  0  0  0  0  0  0  0  0  0  0
    9.5854    1.2495   24.6258 H   0  0  0  0  0  0  0  0  0  0  0  0
    9.3886    2.2282   23.1920 H   0  0  0  0  0  0  0  0  0  0  0  0
    8.0686    0.4964   23.2745 H   0  0  0  0  0  0  0  0  0  0  0  0
    8.2385   -1.5646   21.0947 H   0  0  0  0  0  0  0  0  0  0  0  0
  1  2  2  0  0  0  0
  1  7  1  0  0  0  0
  2 10  1  0  0  0  0
  3  5  2  0  0  0  0
  3  9  1  0  0  0  0
  4  6  1  0  0  0  0
  4  9  2  0  0  0  0
  5 11  1  0  0  0  0
  6 11  2  0  0  0  0
  7 12  2  0  0  0  0
  8 10  2  0  0  0  0
  8 12  1  0  0  0  0
  9 23  1  0  0  0  0
 10 22  1  0  0  0  0
 11 28  1  0  0  0  0
 12 30  1  0  0  0  0
 13 15  1  0  0  0  0
 13 24  2  0  0  0  0
 13 26  1  0  0  0  0
 14 25  2  0  0  0  0
 14 26  1  0  0  0  0
 14 27  1  0  0  0  0
 15 16  2  0  0  0  0
 16 17  1  0  0  0  0
 17 18  2  0  0  0  0
 18 26  1  0  0  0  0
 19 23  1  0  0  0  0
 19 27  1  0  0  0  0
 19 29  2  0  0  0  0
 20 28  1  0  0  0  0
 21 28  1  0  0  0  0
 22 23  1  1  0  0  0
 24 25  1  0  0  0  0
  1 31  1  0  0  0  0
  2 32  1  0  0  0  0
  3 33  1  0  0  0  0
  4 34  1  0  0  0  0
  5 35  1  0  0  0  0
  6 36  1  0  0  0  0
  7 37  1  0  0  0  0
  8 38  1  0  0  0  0
 15 39  1  0  0  0  0
 16 40  1  0  0  0  0
 17 41  1  0  0  0  0
 18 42  1  0  0  0  0
 20 43  1  0  0  0  0
 20 44  1  0  0  0  0
 20 45  1  0  0  0  0
 21 46  1  0  0  0  0
 21 47  1  0  0  0  0
 21 48  1  0  0  0  0
 22 49  1  0  0  0  0
 22 50  1  0  0  0  0
 23 51  1  0  0  0  0
 27 52  1  0  0  0  0
M  END
> <clash_score>
0

> <docking_score>
-9.739595413208008

> <overlap_score>
1.0013902187347412

$$$$
BENZO_311_1
  -OEChem-08222022193D

 52 55  0     1  0  0  0  0  0999 V2000
    9.0720   -1.1280   24.8640 C   0  0  0  0  0  0  0  0  0  0  0  0
    9.7200   -2.2600   22.8630 C   0  0  0  0  0  0  0  0  0  0  0  0
    8.9960   -2.3380   25.5320 C   0  0  0  0  0  0  0  0  0  0  0  0
    9.6730   -3.4710   23.5300 C   0  0  0  0  0  0  0  0  0  0  0  0
   12.0720    2.7762   23.5689 C   0  0  0  0  0  0  0  0  0  0  0  0
   12.3651    0.6087   23.3429 C   0  0  0  0  0  0  0  0  0  0  0  0
    9.3350   -1.0880   23.5010 C   0  0  0  0  0  0  0  0  0  0  0  0
   11.3794    1.5528   23.4964 C   0  0  0  0  0  0  0  0  0  0  0  0
    9.3070   -3.5340   24.8780 C   0  0  0  0  0  0  0  0  0  0  0  0
    5.8300    0.9190   18.6970 C   0  0  0  0  0  0  0  0  0  0  0  0
    7.3170   -0.1610   19.8550 C   0  0  0  0  0  0  0  0  0  0  0  0
    4.6890    1.6810   18.4640 C   0  0  0  0  0  0  0  0  0  0  0  0
    3.9160    2.0630   19.5520 C   0  0  0  0  0  0  0  0  0  0  0  0
    4.2750    1.7050   20.8490 C   0  0  0  0  0  0  0  0  0  0  0  0
    5.4210    0.9600   21.0930 C   0  0  0  0  0  0  0  0  0  0  0  0
    9.0420    0.3700   21.5280 C   0  0  0  0  0  0  0  0  0  0  0  0
   14.8634    0.7326   23.1949 C   0  0  0  0  0  0  0  0  0  0  0  0
    8.0148   -5.2164   26.1419 C   0  0  0  0  0  0  0  0  0  0  0  0
   10.4390   -5.5857   25.6570 C   0  0  0  0  0  0  0  0  0  0  0  0
    9.8870    1.3260   23.5730 C   0  0  0  0  0  0  0  0  0  0  0  0
    9.4560    0.1560   22.8130 C   0  0  1  0  0  0  0  0  0  0  0  0
   13.3955    2.6261   23.4698 N   0  0  0  0  0  0  0  0  0  0  0  0
    6.7580    0.3810   17.8350 N   0  0  0  0  0  0  0  0  0  0  0  0
    7.6390   -0.2680   18.5410 N   0  0  0  0  0  0  0  0  0  0  0  0
   13.5424    1.2972   23.3335 N   0  0  0  0  0  0  0  0  0  0  0  0
    6.1790    0.5730   19.9990 N   0  0  0  0  0  0  0  0  0  0  0  0
    8.1890   -0.7180   20.8700 N   0  0  0  0  0  0  0  0  0  0  0  0
    9.2556   -4.7554   25.5513 N   0  0  0  0  0  0  0  0  0  0  0  0
    9.2690    1.4140   20.9380 O   0  0  0  0  0  0  0  0  0  0  0  0
    8.9214   -0.1986   25.4206 H   0  0  0  0  0  0  0  0  0  0  0  0
   10.0622   -2.2326   21.8251 H   0  0  0  0  0  0  0  0  0  0  0  0
    8.6882   -2.3542   26.5803 H   0  0  0  0  0  0  0  0  0  0  0  0
    9.9258   -4.3896   22.9914 H   0  0  0  0  0  0  0  0  0  0  0  0
   11.6698    3.7720   23.6907 H   0  0  0  0  0  0  0  0  0  0  0  0
   12.3300   -0.4677   23.2433 H   0  0  0  0  0  0  0  0  0  0  0  0
    4.3967    1.9772   17.4718 H   0  0  0  0  0  0  0  0  0  0  0  0
    3.0218    2.6486   19.3697 H   0  0  0  0  0  0  0  0  0  0  0  0
    3.6566    2.0043   21.7065 H   0  0  0  0  0  0  0  0  0  0  0  0
    5.7190    0.6877   22.0810 H   0  0  0  0  0  0  0  0  0  0  0  0
   15.1060    0.6995   22.1295 H   0  0  0  0  0  0  0  0  0  0  0  0
   15.5839    1.3558   23.7319 H   0  0  0  0  0  0  0  0  0  0  0  0
   14.8726   -0.2742   23.6217 H   0  0  0  0  0  0  0  0  0  0  0  0
    8.1775   -6.1919   26.6235 H   0  0  0  0  0  0  0  0  0  0  0  0
    7.6740   -4.4889   26.8933 H   0  0  0  0  0  0  0  0  0  0  0  0
    7.2508   -5.3180   25.3570 H   0  0  0  0  0  0  0  0  0  0  0  0
   10.1974   -6.4996   26.2195 H   0  0  0  0  0  0  0  0  0  0  0  0
   10.7877   -5.8568   24.6496 H   0  0  0  0  0  0  0  0  0  0  0  0
   11.2305   -5.0307   26.1819 H   0  0  0  0  0  0  0  0  0  0  0  0
    9.5854    1.2495   24.6258 H   0  0  0  0  0  0  0  0  0  0  0  0
    9.3886    2.2282   23.1920 H   0  0  0  0  0  0  0  0  0  0  0  0
    8.0686    0.4964   23.2745 H   0  0  0  0  0  0  0  0  0  0  0  0
    8.2385   -1.5646   21.0947 H   0  0  0  0  0  0  0  0  0  0  0  0
  1  3  2  0  0  0  0
  1  7  1  0  0  0  0
  2  4  1  0  0  0  0
  2  7  2  0  0  0  0
  3  9  1  0  0  0  0
  4  9  2  0  0  0  0
  5  8  1  0  0  0  0
  5 22  2  0  0  0  0
  6  8  2  0  0  0  0
  6 25  1  0  0  0  0
  7 21  1  0  0  0  0
  8 20  1  0  0  0  0
  9 28  1  0  0  0  0
 10 12  1  0  0  0  0
 10 23  2  0  0  0  0
 10 26  1  0  0  0  0
 11 24  2  0  0  0  0
 11 26  1  0  0  0  0
 11 27  1  0  0  0  0
 12 13  2  0  0  0  0
 13 14  1  0  0  0  0
 14 15  2  0  0  0  0
 15 26  1  0  0  0  0
 16 21  1  0  0  0  0
 16 27  1  0  0  0  0
 16 29  2  0  0  0  0
 17 25  1  0  0  0  0
 18 28  1  0  0  0  0
 19 28  1  0  0  0  0
 20 21  1  1  0  0  0
 22 25  1  0  0  0  0
 23 24  1  0  0  0  0
  1 30  1  0  0  0  0
  2 31  1  0  0  0  0
  3 32  1  0  0  0  0
  4 33  1  0  0  0  0
  5 34  1  0  0  0  0
  6 35  1  0  0  0  0
 12 36  1  0  0  0  0
 13 37  1  0  0  0  0
 14 38  1  0  0  0  0
 15 39  1  0  0  0  0
 17 40  1  0  0  0  0
 17 41  1  0  0  0  0
 17 42  1  0  0  0  0
 18 43  1  0  0  0  0
 18 44  1  0  0  0  0
 18 45  1  0  0  0  0
 19 46  1  0  0  0  0
 19 47  1  0  0  0  0
 19 48  1  0  0  0  0
 20 49  1  0  0  0  0
 20 50  1  0  0  0  0
 21 51  1  0  0  0  0
 27 52  1  0  0  0  0
M  END
> <clash_score>
0

> <docking_score>
-10.07083511352539

> <overlap_score>
1.0001941919326782

$$$$
BENZO_311_2
  -OEChem-08222022193D

 52 55  0     1  0  0  0  0  0999 V2000
    9.0720   -1.1280   24.8640 C   0  0  0  0  0  0  0  0  0  0  0  0
    9.7200   -2.2600   22.8630 C   0  0  0  0  0  0  0  0  0  0  0  0
    8.9960   -2.3380   25.5320 C   0  0  0  0  0  0  0  0  0  0  0  0
    9.6730   -3.4710   23.5300 C   0  0  0  0  0  0  0  0  0  0  0  0
   12.3565    1.9564   22.9554 C   0  0  0  0  0  0  0  0  0  0  0  0
   10.7932    3.1569   21.9808 C   0  0  0  0  0  0  0  0  0  0  0  0
    9.3350   -1.0880   23.5010 C   0  0  0  0  0  0  0  0  0  0  0  0
   10.9611    2.1180   22.8635 C   0  0  0  0  0  0  0  0  0  0  0  0
    9.3070   -3.5340   24.8780 C   0  0  0  0  0  0  0  0  0  0  0  0
    5.8300    0.9190   18.6970 C   0  0  0  0  0  0  0  0  0  0  0  0
    7.3170   -0.1610   19.8550 C   0  0  0  0  0  0  0  0  0  0  0  0
    4.6890    1.6810   18.4640 C   0  0  0  0  0  0  0  0  0  0  0  0
    3.9160    2.0630   19.5520 C   0  0  0  0  0  0  0  0  0  0  0  0
    4.2750    1.7050   20.8490 C   0  0  0  0  0  0  0  0  0  0  0  0
    5.4210    0.9600   21.0930 C   0  0  0  0  0  0  0  0  0  0  0  0
    9.0420    0.3700   21.5280 C   0  0  0  0  0  0  0  0  0  0  0  0
   12.3862    4.6002   20.6932 C   0  0  0  0  0  0  0  0  0  0  0  0
    8.8766   -4.8075   26.9494 C   0  0  0  0  0  0  0  0  0  0  0  0
    9.5669   -5.9896   24.8578 C   0  0  0  0  0  0  0  0  0  0  0  0
    9.8870    1.3260   23.5730 C   0  0  0  0  0  0  0  0  0  0  0  0
    9.4560    0.1560   22.8130 C   0  0  2  0  0  0  0  0  0  0  0  0
   13.0274    2.8231   22.1920 N   0  0  0  0  0  0  0  0  0  0  0  0
    6.7580    0.3810   17.8350 N   0  0  0  0  0  0  0  0  0  0  0  0
    7.6390   -0.2680   18.5410 N   0  0  0  0  0  0  0  0  0  0  0  0
   12.0493    3.5392   21.6118 N   0  0  0  0  0  0  0  0  0  0  0  0
    6.1790    0.5730   19.9990 N   0  0  0  0  0  0  0  0  0  0  0  0
    8.1890   -0.7180   20.8700 N   0  0  0  0  0  0  0  0  0  0  0  0
    9.2556   -4.7554   25.5513 N   0  0  0  0  0  0  0  0  0  0  0  0
    9.2690    1.4140   20.9380 O   0  0  0  0  0  0  0  0  0  0  0  0
    8.9214   -0.1986   25.4206 H   0  0  0  0  0  0  0  0  0  0  0  0
   10.0622   -2.2326   21.8251 H   0  0  0  0  0  0  0  0  0  0  0  0
    8.6882   -2.3542   26.5803 H   0  0  0  0  0  0  0  0  0  0  0  0
    9.9258   -4.3896   22.9914 H   0  0  0  0  0  0  0  0  0  0  0  0
   12.9148    1.2434   23.5455 H   0  0  0  0  0  0  0  0  0  0  0  0
    9.9088    3.6436   21.5925 H   0  0  0  0  0  0  0  0  0  0  0  0
    4.3967    1.9772   17.4718 H   0  0  0  0  0  0  0  0  0  0  0  0
    3.0218    2.6486   19.3697 H   0  0  0  0  0  0  0  0  0  0  0  0
    3.6566    2.0043   21.7065 H   0  0  0  0  0  0  0  0  0  0  0  0
    5.7190    0.6877   22.0810 H   0  0  0  0  0  0  0  0  0  0  0  0
   12.4913    5.5238   21.2686 H   0  0  0  0  0  0  0  0  0  0  0  0
   13.3235    4.3577   20.1848 H   0  0  0  0  0  0  0  0  0  0  0  0
   11.5908    4.7003   19.9494 H   0  0  0  0  0  0  0  0  0  0  0  0
    8.8955   -5.8512   27.2963 H   0  0  0  0  0  0  0  0  0  0  0  0
    9.5845   -4.2109   27.5435 H   0  0  0  0  0  0  0  0  0  0  0  0
    7.8621   -4.3996   27.0696 H   0  0  0  0  0  0  0  0  0  0  0  0
    9.4707   -6.8361   25.5536 H   0  0  0  0  0  0  0  0  0  0  0  0
    8.8693   -6.1242   24.0181 H   0  0  0  0  0  0  0  0  0  0  0  0
   10.5972   -5.9451   24.4750 H   0  0  0  0  0  0  0  0  0  0  0  0
   10.2455    1.0419   24.5710 H   0  0  0  0  0  0  0  0  0  0  0  0
    9.0345    1.9965   23.7496 H   0  0  0  0  0  0  0  0  0  0  0  0
   10.7927   -0.1029   22.4279 H   0  0  0  0  0  0  0  0  0  0  0  0
    8.2385   -1.5646   21.0947 H   0  0  0  0  0  0  0  0  0  0  0  0
  1  3  2  0  0  0  0
  1  7  1  0  0  0  0
  2  4  1  0  0  0  0
  2  7  2  0  0  0  0
  3  9  1  0  0  0  0
  4  9  2  0  0  0  0
  5  8  1  0  0  0  0
  5 22  2  0  0  0  0
  6  8  2  0  0  0  0
  6 25  1  0  0  0  0
  7 21  1  0  0  0  0
  8 20  1  0  0  0  0
  9 28  1  0  0  0  0
 10 12  1  0  0  0  0
 10 23  2  0  0  0  0
 10 26  1  0  0  0  0
 11 24  2  0  0  0  0
 11 26  1  0  0  0  0
 11 27  1  0  0  0  0
 12 13  2  0  0  0  0
 13 14  1  0  0  0  0
 14 15  2  0  0  0  0
 15 26  1  0  0  0  0
 16 21  1  0  0  0  0
 16 27  1  0  0  0  0
 16 29  2  0  0  0  0
 17 25  1  0  0  0  0
 18 28  1  0  0  0  0
 19 28  1  0  0  0  0
 20 21  1  6  0  0  0
 22 25  1  0  0  0  0
 23 24  1  0  0  0  0
  1 30  1  0  0  0  0
  2 31  1  0  0  0  0
  3 32  1  0  0  0  0
  4 33  1  0  0  0  0
  5 34  1  0  0  0  0
  6 35  1  0  0  0  0
 12 36  1  0  0  0  0
 13 37  1  0  0  0  0
 14 38  1  0  0  0  0
 15 39  1  0  0  0  0
 17 40  1  0  0  0  0
 17 41  1  0  0  0  0
 17 42  1  0  0  0  0
 18 43  1  0  0  0  0
 18 44  1  0  0  0  0
 18 45  1  0  0  0  0
 19 46  1  0  0  0  0
 19 47  1  0  0  0  0
 19 48  1  0  0  0  0
 20 49  1  0  0  0  0
 20 50  1  0  0  0  0
 21 51  1  0  0  0  0
 27 52  1  0  0  0  0
M  END
> <clash_score>
0

> <docking_score>
-8.385055541992188

> <overlap_score>
0.9546344876289368

$$$$
BENZO_310_2
  -OEChem-08222022193D

 52 55  0     1  0  0  0  0  0999 V2000
   13.2976    2.5464   22.4233 C   0  0  0  0  0  0  0  0  0  0  0  0
   12.3059    1.8167   23.0786 C   0  0  0  0  0  0  0  0  0  0  0  0
    9.0720   -1.1280   24.8640 C   0  0  0  0  0  0  0  0  0  0  0  0
    9.7200   -2.2600   22.8630 C   0  0  0  0  0  0  0  0  0  0  0  0
    8.9960   -2.3380   25.5320 C   0  0  0  0  0  0  0  0  0  0  0  0
    9.6730   -3.4710   23.5300 C   0  0  0  0  0  0  0  0  0  0  0  0
   12.9446    3.5777   21.5528 C   0  0  0  0  0  0  0  0  0  0  0  0
   10.6080    3.1492   21.9930 C   0  0  0  0  0  0  0  0  0  0  0  0
    9.3350   -1.0880   23.5010 C   0  0  0  0  0  0  0  0  0  0  0  0
   10.9611    2.1180   22.8635 C   0  0  0  0  0  0  0  0  0  0  0  0
    9.3070   -3.5340   24.8780 C   0  0  0  0  0  0  0  0  0  0  0  0
   11.5998    3.8790   21.3377 C   0  0  0  0  0  0  0  0  0  0  0  0
    5.8300    0.9190   18.6970 C   0  0  0  0  0  0  0  0  0  0  0  0
    7.3170   -0.1610   19.8550 C   0  0  0  0  0  0  0  0  0  0  0  0
    4.6890    1.6810   18.4640 C   0  0  0  0  0  0  0  0  0  0  0  0
    3.9160    2.0630   19.5520 C   0  0  0  0  0  0  0  0  0  0  0  0
    4.2750    1.7050   20.8490 C   0  0  0  0  0  0  0  0  0  0  0  0
    5.4210    0.9600   21.0930 C   0  0  0  0  0  0  0  0  0  0  0  0
    9.0420    0.3700   21.5280 C   0  0  0  0  0  0  0  0  0  0  0  0
    8.8766   -4.8075   26.9494 C   0  0  0  0  0  0  0  0  0  0  0  0
    9.5669   -5.9896   24.8578 C   0  0  0  0  0  0  0  0  0  0  0  0
    9.8870    1.3260   23.5730 C   0  0  0  0  0  0  0  0  0  0  0  0
    9.4560    0.1560   22.8130 C   0  0  2  0  0  0  0  0  0  0  0  0
    6.7580    0.3810   17.8350 N   0  0  0  0  0  0  0  0  0  0  0  0
    7.6390   -0.2680   18.5410 N   0  0  0  0  0  0  0  0  0  0  0  0
    6.1790    0.5730   19.9990 N   0  0  0  0  0  0  0  0  0  0  0  0
    8.1890   -0.7180   20.8700 N   0  0  0  0  0  0  0  0  0  0  0  0
    9.2556   -4.7554   25.5513 N   0  0  0  0  0  0  0  0  0  0  0  0
    9.2690    1.4140   20.9380 O   0  0  0  0  0  0  0  0  0  0  0  0
   11.1647    5.1506   20.2627 Cl  0  0  0  0  0  0  0  0  0  0  0  0
   14.3447    2.3114   22.5909 H   0  0  0  0  0  0  0  0  0  0  0  0
   12.5902    1.0148   23.7550 H   0  0  0  0  0  0  0  0  0  0  0  0
    8.9214   -0.1986   25.4206 H   0  0  0  0  0  0  0  0  0  0  0  0
   10.0622   -2.2326   21.8251 H   0  0  0  0  0  0  0  0  0  0  0  0
    8.6882   -2.3542   26.5803 H   0  0  0  0  0  0  0  0  0  0  0  0
    9.9258   -4.3896   22.9914 H   0  0  0  0  0  0  0  0  0  0  0  0
   13.7282    4.1379   21.0487 H   0  0  0  0  0  0  0  0  0  0  0  0
    9.5581    3.3806   21.8290 H   0  0  0  0  0  0  0  0  0  0  0  0
    4.3967    1.9772   17.4718 H   0  0  0  0  0  0  0  0  0  0  0  0
    3.0218    2.6486   19.3697 H   0  0  0  0  0  0  0  0  0  0  0  0
    3.6566    2.0043   21.7065 H   0  0  0  0  0  0  0  0  0  0  0  0
    5.7190    0.6877   22.0810 H   0  0  0  0  0  0  0  0  0  0  0  0
    8.8955   -5.8512   27.2963 H   0  0  0  0  0  0  0  0  0  0  0  0
    9.5845   -4.2109   27.5435 H   0  0  0  0  0  0  0  0  0  0  0  0
    7.8621   -4.3996   27.0696 H   0  0  0  0  0  0  0  0  0  0  0  0
    9.4707   -6.8361   25.5536 H   0  0  0  0  0  0  0  0  0  0  0  0
    8.8693   -6.1242   24.0181 H   0  0  0  0  0  0  0  0  0  0  0  0
   10.5972   -5.9451   24.4750 H   0  0  0  0  0  0  0  0  0  0  0  0
   10.2455    1.0419   24.5710 H   0  0  0  0  0  0  0  0  0  0  0  0
    9.0345    1.9965   23.7496 H   0  0  0  0  0  0  0  0  0  0  0  0
   10.7927   -0.1029   22.4279 H   0  0  0  0  0  0  0  0  0  0  0  0
    8.2385   -1.5646   21.0947 H   0  0  0  0  0  0  0  0  0  0  0  0
  1  2  2  0  0  0  0
  1  7  1  0  0  0  0
  2 10  1  0  0  0  0
  3  5  2  0  0  0  0
  3  9  1  0  0  0  0
  4  6  1  0  0  0  0
  4  9  2  0  0  0  0
  5 11  1  0  0  0  0
  6 11  2  0  0  0  0
  7 12  2  0  0  0  0
  8 10  2  0  0  0  0
  8 12  1  0  0  0  0
  9 23  1  0  0  0  0
 10 22  1  0  0  0  0
 11 28  1  0  0  0  0
 12 30  1  0  0  0  0
 13 15  1  0  0  0  0
 13 24  2  0  0  0  0
 13 26  1  0  0  0  0
 14 25  2  0  0  0  0
 14 26  1  0  0  0  0
 14 27  1  0  0  0  0
 15 16  2  0  0  0  0
 16 17  1  0  0  0  0
 17 18  2  0  0  0  0
 18 26  1  0  0  0  0
 19 23  1  0  0  0  0
 19 27  1  0  0  0  0
 19 29  2  0  0  0  0
 20 28  1  0  0  0  0
 21 28  1  0  0  0  0
 22 23  1  6  0  0  0
 24 25  1  0  0  0  0
  1 31  1  0  0  0  0
  2 32  1  0  0  0  0
  3 33  1  0  0  0  0
  4 34  1  0  0  0  0
  5 35  1  0  0  0  0
  6 36  1  0  0  0  0
  7 37  1  0  0  0  0
  8 38  1  0  0  0  0
 15 39  1  0  0  0  0
 16 40  1  0  0  0  0
 17 41  1  0  0  0  0
 18 42  1  0  0  0  0
 20 43  1  0  0  0  0
 20 44  1  0  0  0  0
 20 45  1  0  0  0  0
 21 46  1  0  0  0  0
 21 47  1  0  0  0  0
 21 48  1  0  0  0  0
 22 49  1  0  0  0  0
 22 50  1  0  0  0  0
 23 51  1  0  0  0  0
 27 52  1  0  0  0  0
M  END
> <clash_score>
2.2103005309889943

> <docking_score>
-8.920236587524414

> <overlap_score>
0.9601876139640808

$$$$
BENZO_313_1
  -OEChem-08222022193D

 54 57  0     1  0  0  0  0  0999 V2000
   14.1338    1.9717   23.3537 C   0  0  0  0  0  0  0  0  0  0  0  0
   13.6012    1.1747   24.3670 C   0  0  0  0  0  0  0  0  0  0  0  0
   13.2892    2.5593   22.4118 C   0  0  0  0  0  0  0  0  0  0  0  0
   12.2240    0.9652   24.4383 C   0  0  0  0  0  0  0  0  0  0  0  0
   11.9120    2.3498   22.4832 C   0  0  0  0  0  0  0  0  0  0  0  0
    9.0720   -1.1280   24.8640 C   0  0  0  0  0  0  0  0  0  0  0  0
    9.7200   -2.2600   22.8630 C   0  0  0  0  0  0  0  0  0  0  0  0
    8.9960   -2.3380   25.5320 C   0  0  0  0  0  0  0  0  0  0  0  0
    9.6730   -3.4710   23.5300 C   0  0  0  0  0  0  0  0  0  0  0  0
   11.3794    1.5528   23.4964 C   0  0  0  0  0  0  0  0  0  0  0  0
    9.3350   -1.0880   23.5010 C   0  0  0  0  0  0  0  0  0  0  0  0
    9.3070   -3.5340   24.8780 C   0  0  0  0  0  0  0  0  0  0  0  0
    5.8300    0.9190   18.6970 C   0  0  0  0  0  0  0  0  0  0  0  0
    7.3170   -0.1610   19.8550 C   0  0  0  0  0  0  0  0  0  0  0  0
    4.6890    1.6810   18.4640 C   0  0  0  0  0  0  0  0  0  0  0  0
    3.9160    2.0630   19.5520 C   0  0  0  0  0  0  0  0  0  0  0  0
    4.2750    1.7050   20.8490 C   0  0  0  0  0  0  0  0  0  0  0  0
    5.4210    0.9600   21.0930 C   0  0  0  0  0  0  0  0  0  0  0  0
    8.4227   -5.1089   26.6141 C   0  0  0  0  0  0  0  0  0  0  0  0
    9.0420    0.3700   21.5280 C   0  0  0  0  0  0  0  0  0  0  0  0
    8.4174   -7.5521   25.9532 C   0  0  0  0  0  0  0  0  0  0  0  0
    9.8870    1.3260   23.5730 C   0  0  0  0  0  0  0  0  0  0  0  0
    8.6900   -6.5411   27.0525 C   0  0  0  0  0  0  0  0  0  0  0  0
    9.4560    0.1560   22.8130 C   0  0  1  0  0  0  0  0  0  0  0  0
    6.7580    0.3810   17.8350 N   0  0  0  0  0  0  0  0  0  0  0  0
    7.6390   -0.2680   18.5410 N   0  0  0  0  0  0  0  0  0  0  0  0
    6.1790    0.5730   19.9990 N   0  0  0  0  0  0  0  0  0  0  0  0
    9.2546   -4.7423   25.5437 N   0  0  0  0  0  0  0  0  0  0  0  0
    8.1890   -0.7180   20.8700 N   0  0  0  0  0  0  0  0  0  0  0  0
    7.5768   -4.4085   27.1602 O   0  0  0  0  0  0  0  0  0  0  0  0
    9.2690    1.4140   20.9380 O   0  0  0  0  0  0  0  0  0  0  0  0
   15.2060    2.1359   23.2991 H   0  0  0  0  0  0  0  0  0  0  0  0
   14.2585    0.7180   25.1011 H   0  0  0  0  0  0  0  0  0  0  0  0
   13.7034    3.1808   21.6235 H   0  0  0  0  0  0  0  0  0  0  0  0
   11.8179    0.3426   25.2312 H   0  0  0  0  0  0  0  0  0  0  0  0
   11.2617    2.8116   21.7449 H   0  0  0  0  0  0  0  0  0  0  0  0
    8.9202   -0.1986   25.4206 H   0  0  0  0  0  0  0  0  0  0  0  0
   10.0631   -2.2319   21.8252 H   0  0  0  0  0  0  0  0  0  0  0  0
    8.6898   -2.3534   26.5810 H   0  0  0  0  0  0  0  0  0  0  0  0
    9.9254   -4.3899   22.9914 H   0  0  0  0  0  0  0  0  0  0  0  0
    4.3967    1.9772   17.4718 H   0  0  0  0  0  0  0  0  0  0  0  0
    3.0218    2.6486   19.3697 H   0  0  0  0  0  0  0  0  0  0  0  0
    3.6566    2.0043   21.7065 H   0  0  0  0  0  0  0  0  0  0  0  0
    5.7190    0.6877   22.0810 H   0  0  0  0  0  0  0  0  0  0  0  0
    7.3765   -7.4971   25.6176 H   0  0  0  0  0  0  0  0  0  0  0  0
    8.6072   -8.5677   26.3138 H   0  0  0  0  0  0  0  0  0  0  0  0
    9.0599   -7.3717   25.0851 H   0  0  0  0  0  0  0  0  0  0  0  0
    9.5854    1.2495   24.6258 H   0  0  0  0  0  0  0  0  0  0  0  0
    9.3886    2.2282   23.1920 H   0  0  0  0  0  0  0  0  0  0  0  0
    9.7367   -6.6182   27.3685 H   0  0  0  0  0  0  0  0  0  0  0  0
    8.0565   -6.7633   27.9189 H   0  0  0  0  0  0  0  0  0  0  0  0
    8.0686    0.4964   23.2745 H   0  0  0  0  0  0  0  0  0  0  0  0
    9.9034   -5.4689   25.2194 H   0  0  0  0  0  0  0  0  0  0  0  0
    8.2385   -1.5646   21.0947 H   0  0  0  0  0  0  0  0  0  0  0  0
  1  2  1  0  0  0  0
  1  3  2  0  0  0  0
  2  4  2  0  0  0  0
  3  5  1  0  0  0  0
  4 10  1  0  0  0  0
  5 10  2  0  0  0  0
  6  8  2  0  0  0  0
  6 11  1  0  0  0  0
  7  9  1  0  0  0  0
  7 11  2  0  0  0  0
  8 12  1  0  0  0  0
  9 12  2  0  0  0  0
 10 22  1  0  0  0  0
 11 24  1  0  0  0  0
 12 28  1  0  0  0  0
 13 15  1  0  0  0  0
 13 25  2  0  0  0  0
 13 27  1  0  0  0  0
 14 26  2  0  0  0  0
 14 27  1  0  0  0  0
 14 29  1  0  0  0  0
 15 16  2  0  0  0  0
 16 17  1  0  0  0  0
 17 18  2  0  0  0  0
 18 27  1  0  0  0  0
 19 23  1  0  0  0  0
 19 28  1  0  0  0  0
 19 30  2  0  0  0  0
 20 24  1  0  0  0  0
 20 29  1  0  0  0  0
 20 31  2  0  0  0  0
 21 23  1  0  0  0  0
 22 24  1  1  0  0  0
 25 26  1  0  0  0  0
  1 32  1  0  0  0  0
  2 33  1  0  0  0  0
  3 34  1  0  0  0  0
  4 35  1  0  0  0  0
  5 36  1  0  0  0  0
  6 37  1  0  0  0  0
  7 38  1  0  0  0  0
  8 39  1  0  0  0  0
  9 40  1  0  0  0  0
 15 41  1  0  0  0  0
 16 42  1  0  0  0  0
 17 43  1  0  0  0  0
 18 44  1  0  0  0  0
 21 45  1  0  0  0  0
 21 46  1  0  0  0  0
 21 47  1  0  0  0  0
 22 48  1  0  0  0  0
 22 49  1  0  0  0  0
 23 50  1  0  0  0  0
 23 51  1  0  0  0  0
 24 52  1  0  0  0  0
 28 53  1  0  0  0  0
 29 54  1  0  0  0  0
M  END
> <clash_score>
0.6426266954076744

> <docking_score>
-8.468575477600098

> <overlap_score>
0.9959042072296143

$$$$
BENZO_313_2
  -OEChem-08222022193D

 54 57  0     1  0  0  0  0  0999 V2000
    6.6146    3.3501   25.4952 C   0  0  0  0  0  0  0  0  0  0  0  0
    7.8859    3.3796   26.0683 C   0  0  0  0  0  0  0  0  0  0  0  0
    6.4047    2.6642   24.2988 C   0  0  0  0  0  0  0  0  0  0  0  0
    8.9473    2.7232   25.4452 C   0  0  0  0  0  0  0  0  0  0  0  0
    7.4660    2.0078   23.6757 C   0  0  0  0  0  0  0  0  0  0  0  0
    9.0720   -1.1280   24.8640 C   0  0  0  0  0  0  0  0  0  0  0  0
    9.7200   -2.2600   22.8630 C   0  0  0  0  0  0  0  0  0  0  0  0
    8.9960   -2.3380   25.5320 C   0  0  0  0  0  0  0  0  0  0  0  0
    9.6730   -3.4710   23.5300 C   0  0  0  0  0  0  0  0  0  0  0  0
    8.7373    2.0373   24.2489 C   0  0  0  0  0  0  0  0  0  0  0  0
    9.3350   -1.0880   23.5010 C   0  0  0  0  0  0  0  0  0  0  0  0
    9.3070   -3.5340   24.8780 C   0  0  0  0  0  0  0  0  0  0  0  0
    5.8300    0.9190   18.6970 C   0  0  0  0  0  0  0  0  0  0  0  0
    7.3170   -0.1610   19.8550 C   0  0  0  0  0  0  0  0  0  0  0  0
    4.6890    1.6810   18.4640 C   0  0  0  0  0  0  0  0  0  0  0  0
    3.9160    2.0630   19.5520 C   0  0  0  0  0  0  0  0  0  0  0  0
    4.2750    1.7050   20.8490 C   0  0  0  0  0  0  0  0  0  0  0  0
    5.4210    0.9600   21.0930 C   0  0  0  0  0  0  0  0  0  0  0  0
    8.4227   -5.1089   26.6141 C   0  0  0  0  0  0  0  0  0  0  0  0
    9.0420    0.3700   21.5280 C   0  0  0  0  0  0  0  0  0  0  0  0
    8.4174   -7.5521   25.9532 C   0  0  0  0  0  0  0  0  0  0  0  0
    9.8870    1.3260   23.5730 C   0  0  0  0  0  0  0  0  0  0  0  0
    8.6900   -6.5411   27.0525 C   0  0  0  0  0  0  0  0  0  0  0  0
    9.4560    0.1560   22.8130 C   0  0  2  0  0  0  0  0  0  0  0  0
    6.7580    0.3810   17.8350 N   0  0  0  0  0  0  0  0  0  0  0  0
    7.6390   -0.2680   18.5410 N   0  0  0  0  0  0  0  0  0  0  0  0
    6.1790    0.5730   19.9990 N   0  0  0  0  0  0  0  0  0  0  0  0
    9.2546   -4.7423   25.5437 N   0  0  0  0  0  0  0  0  0  0  0  0
    8.1890   -0.7180   20.8700 N   0  0  0  0  0  0  0  0  0  0  0  0
    7.5768   -4.4085   27.1602 O   0  0  0  0  0  0  0  0  0  0  0  0
    9.2690    1.4140   20.9380 O   0  0  0  0  0  0  0  0  0  0  0  0
    5.7880    3.8602   25.9812 H   0  0  0  0  0  0  0  0  0  0  0  0
    8.0494    3.9127   27.0004 H   0  0  0  0  0  0  0  0  0  0  0  0
    5.4148    2.6402   23.8529 H   0  0  0  0  0  0  0  0  0  0  0  0
    9.9344    2.7516   25.8990 H   0  0  0  0  0  0  0  0  0  0  0  0
    7.2931    1.4761   22.7438 H   0  0  0  0  0  0  0  0  0  0  0  0
    8.9202   -0.1986   25.4206 H   0  0  0  0  0  0  0  0  0  0  0  0
   10.0631   -2.2319   21.8252 H   0  0  0  0  0  0  0  0  0  0  0  0
    8.6898   -2.3534   26.5810 H   0  0  0  0  0  0  0  0  0  0  0  0
    9.9254   -4.3899   22.9914 H   0  0  0  0  0  0  0  0  0  0  0  0
    4.3967    1.9772   17.4718 H   0  0  0  0  0  0  0  0  0  0  0  0
    3.0218    2.6486   19.3697 H   0  0  0  0  0  0  0  0  0  0  0  0
    3.6566    2.0043   21.7065 H   0  0  0  0  0  0  0  0  0  0  0  0
    5.7190    0.6877   22.0810 H   0  0  0  0  0  0  0  0  0  0  0  0
    7.3765   -7.4971   25.6176 H   0  0  0  0  0  0  0  0  0  0  0  0
    8.6072   -8.5677   26.3138 H   0  0  0  0  0  0  0  0  0  0  0  0
    9.0599   -7.3717   25.0851 H   0  0  0  0  0  0  0  0  0  0  0  0
   10.4287    2.0369   22.9354 H   0  0  0  0  0  0  0  0  0  0  0  0
   10.6035    1.0279   24.3510 H   0  0  0  0  0  0  0  0  0  0  0  0
    9.7367   -6.6182   27.3685 H   0  0  0  0  0  0  0  0  0  0  0  0
    8.0565   -6.7633   27.9189 H   0  0  0  0  0  0  0  0  0  0  0  0
   10.7927   -0.1029   22.4279 H   0  0  0  0  0  0  0  0  0  0  0  0
    9.9034   -5.4689   25.2194 H   0  0  0  0  0  0  0  0  0  0  0  0
    8.2385   -1.5646   21.0947 H   0  0  0  0  0  0  0  0  0  0  0  0
  1  2  1  0  0  0  0
  1  3  2  0  0  0  0
  2  4  2  0  0  0  0
  3  5  1  0  0  0  0
  4 10  1  0  0  0  0
  5 10  2  0  0  0  0
  6  8  2  0  0  0  0
  6 11  1  0  0  0  0
  7  9  1  0  0  0  0
  7 11  2  0  0  0  0
  8 12  1  0  0  0  0
  9 12  2  0  0  0  0
 10 22  1  0  0  0  0
 11 24  1  0  0  0  0
 12 28  1  0  0  0  0
 13 15  1  0  0  0  0
 13 25  2  0  0  0  0
 13 27  1  0  0  0  0
 14 26  2  0  0  0  0
 14 27  1  0  0  0  0
 14 29  1  0  0  0  0
 15 16  2  0  0  0  0
 16 17  1  0  0  0  0
 17 18  2  0  0  0  0
 18 27  1  0  0  0  0
 19 23  1  0  0  0  0
 19 28  1  0  0  0  0
 19 30  2  0  0  0  0
 20 24  1  0  0  0  0
 20 29  1  0  0  0  0
 20 31  2  0  0  0  0
 21 23  1  0  0  0  0
 22 24  1  6  0  0  0
 25 26  1  0  0  0  0
  1 32  1  0  0  0  0
  2 33  1  0  0  0  0
  3 34  1  0  0  0  0
  4 35  1  0  0  0  0
  5 36  1  0  0  0  0
  6 37  1  0  0  0  0
  7 38  1  0  0  0  0
  8 39  1  0  0  0  0
  9 40  1  0  0  0  0
 15 41  1  0  0  0  0
 16 42  1  0  0  0  0
 17 43  1  0  0  0  0
 18 44  1  0  0  0  0
 21 45  1  0  0  0  0
 21 46  1  0  0  0  0
 21 47  1  0  0  0  0
 22 48  1  0  0  0  0
 22 49  1  0  0  0  0
 23 50  1  0  0  0  0
 23 51  1  0  0  0  0
 24 52  1  0  0  0  0
 28 53  1  0  0  0  0
 29 54  1  0  0  0  0
M  END
> <clash_score>
0.6426266954076744

> <docking_score>
-7.59736442565918

> <overlap_score>
0.8445186614990234

$$$$
BENZO_312_2
  -OEChem-08222022193D

 51 54  0     1  0  0  0  0  0999 V2000
    9.0720   -1.1280   24.8640 C   0  0  0  0  0  0  0  0  0  0  0  0
    9.7200   -2.2600   22.8630 C   0  0  0  0  0  0  0  0  0  0  0  0
    8.9960   -2.3380   25.5320 C   0  0  0  0  0  0  0  0  0  0  0  0
    9.6730   -3.4710   23.5300 C   0  0  0  0  0  0  0  0  0  0  0  0
   12.3907    0.6679   23.6950 C   0  0  0  0  0  0  0  0  0  0  0  0
   13.4189    0.5308   24.6014 C   0  0  0  0  0  0  0  0  0  0  0  0
   11.3314    1.2632   25.6764 C   0  0  0  0  0  0  0  0  0  0  0  0
    9.3350   -1.0880   23.5010 C   0  0  0  0  0  0  0  0  0  0  0  0
   11.1814    1.0923   24.3176 C   0  0  0  0  0  0  0  0  0  0  0  0
    9.3070   -3.5340   24.8780 C   0  0  0  0  0  0  0  0  0  0  0  0
    5.8300    0.9190   18.6970 C   0  0  0  0  0  0  0  0  0  0  0  0
    7.3170   -0.1610   19.8550 C   0  0  0  0  0  0  0  0  0  0  0  0
    4.6890    1.6810   18.4640 C   0  0  0  0  0  0  0  0  0  0  0  0
    3.9160    2.0630   19.5520 C   0  0  0  0  0  0  0  0  0  0  0  0
    4.2750    1.7050   20.8490 C   0  0  0  0  0  0  0  0  0  0  0  0
    5.4210    0.9600   21.0930 C   0  0  0  0  0  0  0  0  0  0  0  0
    8.4227   -5.1089   26.6141 C   0  0  0  0  0  0  0  0  0  0  0  0
    9.0420    0.3700   21.5280 C   0  0  0  0  0  0  0  0  0  0  0  0
    8.4174   -7.5521   25.9532 C   0  0  0  0  0  0  0  0  0  0  0  0
    9.8870    1.3260   23.5730 C   0  0  0  0  0  0  0  0  0  0  0  0
    8.6900   -6.5411   27.0525 C   0  0  0  0  0  0  0  0  0  0  0  0
    9.4560    0.1560   22.8130 C   0  0  2  0  0  0  0  0  0  0  0  0
    6.7580    0.3810   17.8350 N   0  0  0  0  0  0  0  0  0  0  0  0
    7.6390   -0.2680   18.5410 N   0  0  0  0  0  0  0  0  0  0  0  0
    6.1790    0.5730   19.9990 N   0  0  0  0  0  0  0  0  0  0  0  0
    9.2546   -4.7423   25.5437 N   0  0  0  0  0  0  0  0  0  0  0  0
    8.1890   -0.7180   20.8700 N   0  0  0  0  0  0  0  0  0  0  0  0
    7.5768   -4.4085   27.1602 O   0  0  0  0  0  0  0  0  0  0  0  0
    9.2690    1.4140   20.9380 O   0  0  0  0  0  0  0  0  0  0  0  0
   12.9250    0.9128   26.1959 S   0  0  0  0  0  0  0  0  0  0  0  0
    8.9202   -0.1986   25.4206 H   0  0  0  0  0  0  0  0  0  0  0  0
   10.0631   -2.2319   21.8252 H   0  0  0  0  0  0  0  0  0  0  0  0
    8.6898   -2.3534   26.5810 H   0  0  0  0  0  0  0  0  0  0  0  0
    9.9254   -4.3899   22.9914 H   0  0  0  0  0  0  0  0  0  0  0  0
   12.5049    0.4716   22.6364 H   0  0  0  0  0  0  0  0  0  0  0  0
   14.4362    0.2239   24.4037 H   0  0  0  0  0  0  0  0  0  0  0  0
   10.5839    1.5757   26.3924 H   0  0  0  0  0  0  0  0  0  0  0  0
    4.3967    1.9772   17.4718 H   0  0  0  0  0  0  0  0  0  0  0  0
    3.0218    2.6486   19.3697 H   0  0  0  0  0  0  0  0  0  0  0  0
    3.6566    2.0043   21.7065 H   0  0  0  0  0  0  0  0  0  0  0  0
    5.7190    0.6877   22.0810 H   0  0  0  0  0  0  0  0  0  0  0  0
    7.3765   -7.4971   25.6176 H   0  0  0  0  0  0  0  0  0  0  0  0
    8.6072   -8.5677   26.3138 H   0  0  0  0  0  0  0  0  0  0  0  0
    9.0599   -7.3717   25.0851 H   0  0  0  0  0  0  0  0  0  0  0  0
    9.1131    1.6463   24.2828 H   0  0  0  0  0  0  0  0  0  0  0  0
   10.0354    2.1807   22.8984 H   0  0  0  0  0  0  0  0  0  0  0  0
    9.7367   -6.6182   27.3685 H   0  0  0  0  0  0  0  0  0  0  0  0
    8.0565   -6.7633   27.9189 H   0  0  0  0  0  0  0  0  0  0  0  0
   10.7927   -0.1029   22.4279 H   0  0  0  0  0  0  0  0  0  0  0  0
    9.9034   -5.4689   25.2194 H   0  0  0  0  0  0  0  0  0  0  0  0
    8.2385   -1.5646   21.0947 H   0  0  0  0  0  0  0  0  0  0  0  0
  1  3  2  0  0  0  0
  1  8  1  0  0  0  0
  2  4  1  0  0  0  0
  2  8  2  0  0  0  0
  3 10  1  0  0  0  0
  4 10  2  0  0  0  0
  5  6  2  0  0  0  0
  5  9  1  0  0  0  0
  6 30  1  0  0  0  0
  7  9  2  0  0  0  0
  7 30  1  0  0  0  0
  8 22  1  0  0  0  0
  9 20  1  0  0  0  0
 10 26  1  0  0  0  0
 11 13  1  0  0  0  0
 11 23  2  0  0  0  0
 11 25  1  0  0  0  0
 12 24  2  0  0  0  0
 12 25  1  0  0  0  0
 12 27  1  0  0  0  0
 13 14  2  0  0  0  0
 14 15  1  0  0  0  0
 15 16  2  0  0  0  0
 16 25  1  0  0  0  0
 17 21  1  0  0  0  0
 17 26  1  0  0  0  0
 17 28  2  0  0  0  0
 18 22  1  0  0  0  0
 18 27  1  0  0  0  0
 18 29  2  0  0  0  0
 19 21  1  0  0  0  0
 20 22  1  6  0  0  0
 23 24  1  0  0  0  0
  1 31  1  0  0  0  0
  2 32  1  0  0  0  0
  3 33  1  0  0  0  0
  4 34  1  0  0  0  0
  5 35  1  0  0  0  0
  6 36  1  0  0  0  0
  7 37  1  0  0  0  0
 13 38  1  0  0  0  0
 14 39  1  0  0  0  0
 15 40  1  0  0  0  0
 16 41  1  0  0  0  0
 19 42  1  0  0  0  0
 19 43  1  0  0  0  0
 19 44  1  0  0  0  0
 20 45  1  0  0  0  0
 20 46  1  0  0  0  0
 21 47  1  0  0  0  0
 21 48  1  0  0  0  0
 22 49  1  0  0  0  0
 26 50  1  0  0  0  0
 27 51  1  0  0  0  0
M  END
> <clash_score>
1.2643138851349405

> <docking_score>
-6.704032897949219

> <overlap_score>
0.9106767177581787

$$$$
BENZO_312_1
  -OEChem-08222022193D

 51 54  0     1  0  0  0  0  0999 V2000
    9.0720   -1.1280   24.8640 C   0  0  0  0  0  0  0  0  0  0  0  0
    9.7200   -2.2600   22.8630 C   0  0  0  0  0  0  0  0  0  0  0  0
    8.9960   -2.3380   25.5320 C   0  0  0  0  0  0  0  0  0  0  0  0
    9.6730   -3.4710   23.5300 C   0  0  0  0  0  0  0  0  0  0  0  0
   12.3398    0.5029   23.4216 C   0  0  0  0  0  0  0  0  0  0  0  0
   13.6291    0.9843   23.3622 C   0  0  0  0  0  0  0  0  0  0  0  0
   11.9713    2.7968   23.4917 C   0  0  0  0  0  0  0  0  0  0  0  0
    9.3350   -1.0880   23.5010 C   0  0  0  0  0  0  0  0  0  0  0  0
   11.3794    1.5528   23.4964 C   0  0  0  0  0  0  0  0  0  0  0  0
    9.3070   -3.5340   24.8780 C   0  0  0  0  0  0  0  0  0  0  0  0
    5.8300    0.9190   18.6970 C   0  0  0  0  0  0  0  0  0  0  0  0
    7.3170   -0.1610   19.8550 C   0  0  0  0  0  0  0  0  0  0  0  0
    4.6890    1.6810   18.4640 C   0  0  0  0  0  0  0  0  0  0  0  0
    3.9160    2.0630   19.5520 C   0  0  0  0  0  0  0  0  0  0  0  0
    4.2750    1.7050   20.8490 C   0  0  0  0  0  0  0  0  0  0  0  0
    5.4210    0.9600   21.0930 C   0  0  0  0  0  0  0  0  0  0  0  0
    8.4227   -5.1089   26.6141 C   0  0  0  0  0  0  0  0  0  0  0  0
    9.0420    0.3700   21.5280 C   0  0  0  0  0  0  0  0  0  0  0  0
    8.4174   -7.5521   25.9532 C   0  0  0  0  0  0  0  0  0  0  0  0
    9.8870    1.3260   23.5730 C   0  0  0  0  0  0  0  0  0  0  0  0
    8.6900   -6.5411   27.0525 C   0  0  0  0  0  0  0  0  0  0  0  0
    9.4560    0.1560   22.8130 C   0  0  1  0  0  0  0  0  0  0  0  0
    6.7580    0.3810   17.8350 N   0  0  0  0  0  0  0  0  0  0  0  0
    7.6390   -0.2680   18.5410 N   0  0  0  0  0  0  0  0  0  0  0  0
    6.1790    0.5730   19.9990 N   0  0  0  0  0  0  0  0  0  0  0  0
    9.2546   -4.7423   25.5437 N   0  0  0  0  0  0  0  0  0  0  0  0
    8.1890   -0.7180   20.8700 N   0  0  0  0  0  0  0  0  0  0  0  0
    7.5768   -4.4085   27.1602 O   0  0  0  0  0  0  0  0  0  0  0  0
    9.2690    1.4140   20.9380 O   0  0  0  0  0  0  0  0  0  0  0  0
   13.6781    2.6957   23.3969 S   0  0  0  0  0  0  0  0  0  0  0  0
    8.9202   -0.1986   25.4206 H   0  0  0  0  0  0  0  0  0  0  0  0
   10.0631   -2.2319   21.8252 H   0  0  0  0  0  0  0  0  0  0  0  0
    8.6898   -2.3534   26.5810 H   0  0  0  0  0  0  0  0  0  0  0  0
    9.9254   -4.3899   22.9914 H   0  0  0  0  0  0  0  0  0  0  0  0
   12.1014   -0.5532   23.4119 H   0  0  0  0  0  0  0  0  0  0  0  0
   14.5445    0.4131   23.3009 H   0  0  0  0  0  0  0  0  0  0  0  0
   11.4871    3.7623   23.5403 H   0  0  0  0  0  0  0  0  0  0  0  0
    4.3967    1.9772   17.4718 H   0  0  0  0  0  0  0  0  0  0  0  0
    3.0218    2.6486   19.3697 H   0  0  0  0  0  0  0  0  0  0  0  0
    3.6566    2.0043   21.7065 H   0  0  0  0  0  0  0  0  0  0  0  0
    5.7190    0.6877   22.0810 H   0  0  0  0  0  0  0  0  0  0  0  0
    7.3765   -7.4971   25.6176 H   0  0  0  0  0  0  0  0  0  0  0  0
    8.6072   -8.5677   26.3138 H   0  0  0  0  0  0  0  0  0  0  0  0
    9.0599   -7.3717   25.0851 H   0  0  0  0  0  0  0  0  0  0  0  0
    9.5854    1.2495   24.6258 H   0  0  0  0  0  0  0  0  0  0  0  0
    9.3886    2.2282   23.1920 H   0  0  0  0  0  0  0  0  0  0  0  0
    9.7367   -6.6182   27.3685 H   0  0  0  0  0  0  0  0  0  0  0  0
    8.0565   -6.7633   27.9189 H   0  0  0  0  0  0  0  0  0  0  0  0
    8.0686    0.4964   23.2745 H   0  0  0  0  0  0  0  0  0  0  0  0
    9.9034   -5.4689   25.2194 H   0  0  0  0  0  0  0  0  0  0  0  0
    8.2385   -1.5646   21.0947 H   0  0  0  0  0  0  0  0  0  0  0  0
  1  3  2  0  0  0  0
  1  8  1  0  0  0  0
  2  4  1  0  0  0  0
  2  8  2  0  0  0  0
  3 10  1  0  0  0  0
  4 10  2  0  0  0  0
  5  6  2  0  0  0  0
  5  9  1  0  0  0  0
  6 30  1  0  0  0  0
  7  9  2  0  0  0  0
  7 30  1  0  0  0  0
  8 22  1  0  0  0  0
  9 20  1  0  0  0  0
 10 26  1  0  0  0  0
 11 13  1  0  0  0  0
 11 23  2  0  0  0  0
 11 25  1  0  0  0  0
 12 24  2  0  0  0  0
 12 25  1  0  0  0  0
 12 27  1  0  0  0  0
 13 14  2  0  0  0  0
 14 15  1  0  0  0  0
 15 16  2  0  0  0  0
 16 25  1  0  0  0  0
 17 21  1  0  0  0  0
 17 26  1  0  0  0  0
 17 28  2  0  0  0  0
 18 22  1  0  0  0  0
 18 27  1  0  0  0  0
 18 29  2  0  0  0  0
 19 21  1  0  0  0  0
 20 22  1  1  0  0  0
 23 24  1  0  0  0  0
  1 31  1  0  0  0  0
  2 32  1  0  0  0  0
  3 33  1  0  0  0  0
  4 34  1  0  0  0  0
  5 35  1  0  0  0  0
  6 36  1  0  0  0  0
  7 37  1  0  0  0  0
 13 38  1  0  0  0  0
 14 39  1  0  0  0  0
 15 40  1  0  0  0  0
 16 41  1  0  0  0  0
 19 42  1  0  0  0  0
 19 43  1  0  0  0  0
 19 44  1  0  0  0  0
 20 45  1  0  0  0  0
 20 46  1  0  0  0  0
 21 47  1  0  0  0  0
 21 48  1  0  0  0  0
 22 49  1  0  0  0  0
 26 50  1  0  0  0  0
 27 51  1  0  0  0  0
M  END
> <clash_score>
0.6426266954076744

> <docking_score>
-8.818194389343262

> <overlap_score>
0.9874261021614075

$$$$
BENZO_314_1
  -OEChem-08222022193D

 54 57  0     1  0  0  0  0  0999 V2000
   13.6189    0.6768   23.2647 C   0  0  0  0  0  0  0  0  0  0  0  0
   12.2417    0.4681   23.3366 C   0  0  0  0  0  0  0  0  0  0  0  0
    9.0720   -1.1280   24.8640 C   0  0  0  0  0  0  0  0  0  0  0  0
    9.7200   -2.2600   22.8630 C   0  0  0  0  0  0  0  0  0  0  0  0
    8.9960   -2.3380   25.5320 C   0  0  0  0  0  0  0  0  0  0  0  0
    9.6730   -3.4710   23.5300 C   0  0  0  0  0  0  0  0  0  0  0  0
   14.1339    1.9702   23.3527 C   0  0  0  0  0  0  0  0  0  0  0  0
   11.8943    2.8462   23.5844 C   0  0  0  0  0  0  0  0  0  0  0  0
    9.3350   -1.0880   23.5010 C   0  0  0  0  0  0  0  0  0  0  0  0
   11.3794    1.5528   23.4964 C   0  0  0  0  0  0  0  0  0  0  0  0
    9.3070   -3.5340   24.8780 C   0  0  0  0  0  0  0  0  0  0  0  0
   13.2716    3.0548   23.5125 C   0  0  0  0  0  0  0  0  0  0  0  0
    5.8300    0.9190   18.6970 C   0  0  0  0  0  0  0  0  0  0  0  0
    7.3170   -0.1610   19.8550 C   0  0  0  0  0  0  0  0  0  0  0  0
    4.6890    1.6810   18.4640 C   0  0  0  0  0  0  0  0  0  0  0  0
    3.9160    2.0630   19.5520 C   0  0  0  0  0  0  0  0  0  0  0  0
    4.2750    1.7050   20.8490 C   0  0  0  0  0  0  0  0  0  0  0  0
    5.4210    0.9600   21.0930 C   0  0  0  0  0  0  0  0  0  0  0  0
    8.4227   -5.1089   26.6141 C   0  0  0  0  0  0  0  0  0  0  0  0
    9.0420    0.3700   21.5280 C   0  0  0  0  0  0  0  0  0  0  0  0
    8.4174   -7.5521   25.9532 C   0  0  0  0  0  0  0  0  0  0  0  0
    9.8870    1.3260   23.5730 C   0  0  0  0  0  0  0  0  0  0  0  0
    8.6900   -6.5411   27.0525 C   0  0  0  0  0  0  0  0  0  0  0  0
    9.4560    0.1560   22.8130 C   0  0  1  0  0  0  0  0  0  0  0  0
    6.7580    0.3810   17.8350 N   0  0  0  0  0  0  0  0  0  0  0  0
    7.6390   -0.2680   18.5410 N   0  0  0  0  0  0  0  0  0  0  0  0
    6.1790    0.5730   19.9990 N   0  0  0  0  0  0  0  0  0  0  0  0
    9.2546   -4.7423   25.5437 N   0  0  0  0  0  0  0  0  0  0  0  0
    8.1890   -0.7180   20.8700 N   0  0  0  0  0  0  0  0  0  0  0  0
    7.5768   -4.4085   27.1602 O   0  0  0  0  0  0  0  0  0  0  0  0
    9.2690    1.4140   20.9380 O   0  0  0  0  0  0  0  0  0  0  0  0
   13.9075    4.6504   23.6198 Cl  0  0  0  0  0  0  0  0  0  0  0  0
   14.2901   -0.1681   23.1402 H   0  0  0  0  0  0  0  0  0  0  0  0
   11.8492   -0.5431   23.2671 H   0  0  0  0  0  0  0  0  0  0  0  0
    8.9202   -0.1986   25.4206 H   0  0  0  0  0  0  0  0  0  0  0  0
   10.0631   -2.2319   21.8252 H   0  0  0  0  0  0  0  0  0  0  0  0
    8.6898   -2.3534   26.5810 H   0  0  0  0  0  0  0  0  0  0  0  0
    9.9254   -4.3899   22.9914 H   0  0  0  0  0  0  0  0  0  0  0  0
   15.2095    2.1179   23.2949 H   0  0  0  0  0  0  0  0  0  0  0  0
   11.2178    3.6885   23.7094 H   0  0  0  0  0  0  0  0  0  0  0  0
    4.3967    1.9772   17.4718 H   0  0  0  0  0  0  0  0  0  0  0  0
    3.0218    2.6486   19.3697 H   0  0  0  0  0  0  0  0  0  0  0  0
    3.6566    2.0043   21.7065 H   0  0  0  0  0  0  0  0  0  0  0  0
    5.7190    0.6877   22.0810 H   0  0  0  0  0  0  0  0  0  0  0  0
    7.3765   -7.4971   25.6176 H   0  0  0  0  0  0  0  0  0  0  0  0
    8.6072   -8.5677   26.3138 H   0  0  0  0  0  0  0  0  0  0  0  0
    9.0599   -7.3717   25.0851 H   0  0  0  0  0  0  0  0  0  0  0  0
    9.5854    1.2495   24.6258 H   0  0  0  0  0  0  0  0  0  0  0  0
    9.3886    2.2282   23.1920 H   0  0  0  0  0  0  0  0  0  0  0  0
    9.7367   -6.6182   27.3685 H   0  0  0  0  0  0  0  0  0  0  0  0
    8.0565   -6.7633   27.9189 H   0  0  0  0  0  0  0  0  0  0  0  0
    8.0686    0.4964   23.2745 H   0  0  0  0  0  0  0  0  0  0  0  0
    9.9034   -5.4689   25.2194 H   0  0  0  0  0  0  0  0  0  0  0  0
    8.2385   -1.5646   21.0947 H   0  0  0  0  0  0  0  0  0  0  0  0
  1  2  2  0  0  0  0
  1  7  1  0  0  0  0
  2 10  1  0  0  0  0
  3  5  2  0  0  0  0
  3  9  1  0  0  0  0
  4  6  1  0  0  0  0
  4  9  2  0  0  0  0
  5 11  1  0  0  0  0
  6 11  2  0  0  0  0
  7 12  2  0  0  0  0
  8 10  2  0  0  0  0
  8 12  1  0  0  0  0
  9 24  1  0  0  0  0
 10 22  1  0  0  0  0
 11 28  1  0  0  0  0
 12 32  1  0  0  0  0
 13 15  1  0  0  0  0
 13 25  2  0  0  0  0
 13 27  1  0  0  0  0
 14 26  2  0  0  0  0
 14 27  1  0  0  0  0
 14 29  1  0  0  0  0
 15 16  2  0  0  0  0
 16 17  1  0  0  0  0
 17 18  2  0  0  0  0
 18 27  1  0  0  0  0
 19 23  1  0  0  0  0
 19 28  1  0  0  0  0
 19 30  2  0  0  0  0
 20 24  1  0  0  0  0
 20 29  1  0  0  0  0
 20 31  2  0  0  0  0
 21 23  1  0  0  0  0
 22 24  1  1  0  0  0
 25 26  1  0  0  0  0
  1 33  1  0  0  0  0
  2 34  1  0  0  0  0
  3 35  1  0  0  0  0
  4 36  1  0  0  0  0
  5 37  1  0  0  0  0
  6 38  1  0  0  0  0
  7 39  1  0  0  0  0
  8 40  1  0  0  0  0
 15 41  1  0  0  0  0
 16 42  1  0  0  0  0
 17 43  1  0  0  0  0
 18 44  1  0  0  0  0
 21 45  1  0  0  0  0
 21 46  1  0  0  0  0
 21 47  1  0  0  0  0
 22 48  1  0  0  0  0
 22 49  1  0  0  0  0
 23 50  1  0  0  0  0
 23 51  1  0  0  0  0
 24 52  1  0  0  0  0
 28 53  1  0  0  0  0
 29 54  1  0  0  0  0
M  END
> <clash_score>
0.6426266954076744

> <docking_score>
-8.063385963439941

> <overlap_score>
1.0046879053115845

$$$$
BENZO_314_2
  -OEChem-08222022193D

 54 57  0     1  0  0  0  0  0999 V2000
    6.3759    2.2080   24.7298 C   0  0  0  0  0  0  0  0  0  0  0  0
    7.4372    1.5528   24.1054 C   0  0  0  0  0  0  0  0  0  0  0  0
    9.0720   -1.1280   24.8640 C   0  0  0  0  0  0  0  0  0  0  0  0
    9.7200   -2.2600   22.8630 C   0  0  0  0  0  0  0  0  0  0  0  0
    8.9960   -2.3380   25.5320 C   0  0  0  0  0  0  0  0  0  0  0  0
    9.6730   -3.4710   23.5300 C   0  0  0  0  0  0  0  0  0  0  0  0
    6.6147    3.3479   25.4976 C   0  0  0  0  0  0  0  0  0  0  0  0
    8.9762    3.1771   25.0167 C   0  0  0  0  0  0  0  0  0  0  0  0
    9.3350   -1.0880   23.5010 C   0  0  0  0  0  0  0  0  0  0  0  0
    8.7373    2.0373   24.2489 C   0  0  0  0  0  0  0  0  0  0  0  0
    9.3070   -3.5340   24.8780 C   0  0  0  0  0  0  0  0  0  0  0  0
    7.9148    3.8324   25.6411 C   0  0  0  0  0  0  0  0  0  0  0  0
    5.8300    0.9190   18.6970 C   0  0  0  0  0  0  0  0  0  0  0  0
    7.3170   -0.1610   19.8550 C   0  0  0  0  0  0  0  0  0  0  0  0
    4.6890    1.6810   18.4640 C   0  0  0  0  0  0  0  0  0  0  0  0
    3.9160    2.0630   19.5520 C   0  0  0  0  0  0  0  0  0  0  0  0
    4.2750    1.7050   20.8490 C   0  0  0  0  0  0  0  0  0  0  0  0
    5.4210    0.9600   21.0930 C   0  0  0  0  0  0  0  0  0  0  0  0
    8.4227   -5.1089   26.6141 C   0  0  0  0  0  0  0  0  0  0  0  0
    9.0420    0.3700   21.5280 C   0  0  0  0  0  0  0  0  0  0  0  0
    8.4174   -7.5521   25.9532 C   0  0  0  0  0  0  0  0  0  0  0  0
    9.8870    1.3260   23.5730 C   0  0  0  0  0  0  0  0  0  0  0  0
    8.6900   -6.5411   27.0525 C   0  0  0  0  0  0  0  0  0  0  0  0
    9.4560    0.1560   22.8130 C   0  0  2  0  0  0  0  0  0  0  0  0
    6.7580    0.3810   17.8350 N   0  0  0  0  0  0  0  0  0  0  0  0
    7.6390   -0.2680   18.5410 N   0  0  0  0  0  0  0  0  0  0  0  0
    6.1790    0.5730   19.9990 N   0  0  0  0  0  0  0  0  0  0  0  0
    9.2546   -4.7423   25.5437 N   0  0  0  0  0  0  0  0  0  0  0  0
    8.1890   -0.7180   20.8700 N   0  0  0  0  0  0  0  0  0  0  0  0
    7.5768   -4.4085   27.1602 O   0  0  0  0  0  0  0  0  0  0  0  0
    9.2690    1.4140   20.9380 O   0  0  0  0  0  0  0  0  0  0  0  0
    8.2090    5.2380   26.5894 Cl  0  0  0  0  0  0  0  0  0  0  0  0
    5.3637    1.8304   24.6180 H   0  0  0  0  0  0  0  0  0  0  0  0
    7.2419    0.6653   23.5092 H   0  0  0  0  0  0  0  0  0  0  0  0
    8.9202   -0.1986   25.4206 H   0  0  0  0  0  0  0  0  0  0  0  0
   10.0631   -2.2319   21.8252 H   0  0  0  0  0  0  0  0  0  0  0  0
    8.6898   -2.3534   26.5810 H   0  0  0  0  0  0  0  0  0  0  0  0
    9.9254   -4.3899   22.9914 H   0  0  0  0  0  0  0  0  0  0  0  0
    5.7779    3.8482   25.9788 H   0  0  0  0  0  0  0  0  0  0  0  0
    9.9916    3.5512   25.1250 H   0  0  0  0  0  0  0  0  0  0  0  0
    4.3967    1.9772   17.4718 H   0  0  0  0  0  0  0  0  0  0  0  0
    3.0218    2.6486   19.3697 H   0  0  0  0  0  0  0  0  0  0  0  0
    3.6566    2.0043   21.7065 H   0  0  0  0  0  0  0  0  0  0  0  0
    5.7190    0.6877   22.0810 H   0  0  0  0  0  0  0  0  0  0  0  0
    7.3765   -7.4971   25.6176 H   0  0  0  0  0  0  0  0  0  0  0  0
    8.6072   -8.5677   26.3138 H   0  0  0  0  0  0  0  0  0  0  0  0
    9.0599   -7.3717   25.0851 H   0  0  0  0  0  0  0  0  0  0  0  0
   10.4287    2.0369   22.9354 H   0  0  0  0  0  0  0  0  0  0  0  0
   10.6035    1.0279   24.3510 H   0  0  0  0  0  0  0  0  0  0  0  0
    9.7367   -6.6182   27.3685 H   0  0  0  0  0  0  0  0  0  0  0  0
    8.0565   -6.7633   27.9189 H   0  0  0  0  0  0  0  0  0  0  0  0
   10.7927   -0.1029   22.4279 H   0  0  0  0  0  0  0  0  0  0  0  0
    9.9034   -5.4689   25.2194 H   0  0  0  0  0  0  0  0  0  0  0  0
    8.2385   -1.5646   21.0947 H   0  0  0  0  0  0  0  0  0  0  0  0
  1  2  2  0  0  0  0
  1  7  1  0  0  0  0
  2 10  1  0  0  0  0
  3  5  2  0  0  0  0
  3  9  1  0  0  0  0
  4  6  1  0  0  0  0
  4  9  2  0  0  0  0
  5 11  1  0  0  0  0
  6 11  2  0  0  0  0
  7 12  2  0  0  0  0
  8 10  2  0  0  0  0
  8 12  1  0  0  0  0
  9 24  1  0  0  0  0
 10 22  1  0  0  0  0
 11 28  1  0  0  0  0
 12 32  1  0  0  0  0
 13 15  1  0  0  0  0
 13 25  2  0  0  0  0
 13 27  1  0  0  0  0
 14 26  2  0  0  0  0
 14 27  1  0  0  0  0
 14 29  1  0  0  0  0
 15 16  2  0  0  0  0
 16 17  1  0  0  0  0
 17 18  2  0  0  0  0
 18 27  1  0  0  0  0
 19 23  1  0  0  0  0
 19 28  1  0  0  0  0
 19 30  2  0  0  0  0
 20 24  1  0  0  0  0
 20 29  1  0  0  0  0
 20 31  2  0  0  0  0
 21 23  1  0  0  0  0
 22 24  1  6  0  0  0
 25 26  1  0  0  0  0
  1 33  1  0  0  0  0
  2 34  1  0  0  0  0
  3 35  1  0  0  0  0
  4 36  1  0  0  0  0
  5 37  1  0  0  0  0
  6 38  1  0  0  0  0
  7 39  1  0  0  0  0
  8 40  1  0  0  0  0
 15 41  1  0  0  0  0
 16 42  1  0  0  0  0
 17 43  1  0  0  0  0
 18 44  1  0  0  0  0
 21 45  1  0  0  0  0
 21 46  1  0  0  0  0
 21 47  1  0  0  0  0
 22 48  1  0  0  0  0
 22 49  1  0  0  0  0
 23 50  1  0  0  0  0
 23 51  1  0  0  0  0
 24 52  1  0  0  0  0
 28 53  1  0  0  0  0
 29 54  1  0  0  0  0
M  END
> <clash_score>
0.6426266954076744

> <docking_score>
-7.737248420715332

> <overlap_score>
0.8434876203536987

$$$$
BENZO_317_1
  -OEChem-08222022193D

 59 63  0     1  0  0  0  0  0999 V2000
   12.9362    3.6202   21.5882 C   0  0  0  0  0  0  0  0  0  0  0  0
   13.2938    2.5837   22.4503 C   0  0  0  0  0  0  0  0  0  0  0  0
   11.5898    3.9128   21.3700 C   0  0  0  0  0  0  0  0  0  0  0  0
   12.3051    1.8396   23.0941 C   0  0  0  0  0  0  0  0  0  0  0  0
   10.6012    3.1687   22.0138 C   0  0  0  0  0  0  0  0  0  0  0  0
    9.0720   -1.1280   24.8640 C   0  0  0  0  0  0  0  0  0  0  0  0
    9.7200   -2.2600   22.8630 C   0  0  0  0  0  0  0  0  0  0  0  0
    8.9960   -2.3380   25.5320 C   0  0  0  0  0  0  0  0  0  0  0  0
    9.6730   -3.4710   23.5300 C   0  0  0  0  0  0  0  0  0  0  0  0
   10.9588    2.1321   22.8759 C   0  0  0  0  0  0  0  0  0  0  0  0
    9.3350   -1.0880   23.5010 C   0  0  0  0  0  0  0  0  0  0  0  0
    9.3070   -3.5340   24.8780 C   0  0  0  0  0  0  0  0  0  0  0  0
    5.8300    0.9190   18.6970 C   0  0  0  0  0  0  0  0  0  0  0  0
    7.3170   -0.1610   19.8550 C   0  0  0  0  0  0  0  0  0  0  0  0
    4.6890    1.6810   18.4640 C   0  0  0  0  0  0  0  0  0  0  0  0
    3.9160    2.0630   19.5520 C   0  0  0  0  0  0  0  0  0  0  0  0
    4.2750    1.7050   20.8490 C   0  0  0  0  0  0  0  0  0  0  0  0
    5.4210    0.9600   21.0930 C   0  0  0  0  0  0  0  0  0  0  0  0
    9.0420    0.3700   21.5280 C   0  0  0  0  0  0  0  0  0  0  0  0
    7.3637   -6.1365   27.1885 C   0  0  0  0  0  0  0  0  0  0  0  0
    8.1962   -4.9739   27.7340 C   0  0  0  0  0  0  0  0  0  0  0  0
    7.1943   -6.0395   25.6706 C   0  0  0  0  0  0  0  0  0  0  0  0
    9.5197   -4.8493   26.9795 C   0  0  0  0  0  0  0  0  0  0  0  0
    8.5443   -5.8838   24.9636 C   0  0  0  0  0  0  0  0  0  0  0  0
    9.8870    1.3260   23.5730 C   0  0  0  0  0  0  0  0  0  0  0  0
    9.4560    0.1560   22.8130 C   0  0  1  0  0  0  0  0  0  0  0  0
    6.7580    0.3810   17.8350 N   0  0  0  0  0  0  0  0  0  0  0  0
    7.6390   -0.2680   18.5410 N   0  0  0  0  0  0  0  0  0  0  0  0
    6.1790    0.5730   19.9990 N   0  0  0  0  0  0  0  0  0  0  0  0
    9.2563   -4.7385   25.5420 N   0  0  0  0  0  0  0  0  0  0  0  0
    8.1890   -0.7180   20.8700 N   0  0  0  0  0  0  0  0  0  0  0  0
    9.2690    1.4140   20.9380 O   0  0  0  0  0  0  0  0  0  0  0  0
   13.7061    4.2004   21.0881 H   0  0  0  0  0  0  0  0  0  0  0  0
   14.3420    2.3565   22.6212 H   0  0  0  0  0  0  0  0  0  0  0  0
   11.3111    4.7205   20.6997 H   0  0  0  0  0  0  0  0  0  0  0  0
   12.5931    1.0336   23.7640 H   0  0  0  0  0  0  0  0  0  0  0  0
    9.5548    3.4036   21.8376 H   0  0  0  0  0  0  0  0  0  0  0  0
    8.9214   -0.1986   25.4206 H   0  0  0  0  0  0  0  0  0  0  0  0
   10.0622   -2.2326   21.8251 H   0  0  0  0  0  0  0  0  0  0  0  0
    8.6882   -2.3542   26.5803 H   0  0  0  0  0  0  0  0  0  0  0  0
    9.9258   -4.3896   22.9914 H   0  0  0  0  0  0  0  0  0  0  0  0
    4.3967    1.9772   17.4718 H   0  0  0  0  0  0  0  0  0  0  0  0
    3.0218    2.6486   19.3697 H   0  0  0  0  0  0  0  0  0  0  0  0
    3.6566    2.0043   21.7065 H   0  0  0  0  0  0  0  0  0  0  0  0
    5.7190    0.6877   22.0810 H   0  0  0  0  0  0  0  0  0  0  0  0
    7.8484   -7.0905   27.4464 H   0  0  0  0  0  0  0  0  0  0  0  0
    6.3761   -6.1442   27.6721 H   0  0  0  0  0  0  0  0  0  0  0  0
    7.6308   -4.0428   27.6404 H   0  0  0  0  0  0  0  0  0  0  0  0
    8.3917   -5.1316   28.7967 H   0  0  0  0  0  0  0  0  0  0  0  0
    6.6889   -6.9376   25.3006 H   0  0  0  0  0  0  0  0  0  0  0  0
    6.5516   -5.1860   25.4256 H   0  0  0  0  0  0  0  0  0  0  0  0
   10.0494   -3.9643   27.3413 H   0  0  0  0  0  0  0  0  0  0  0  0
   10.1432   -5.7258   27.1775 H   0  0  0  0  0  0  0  0  0  0  0  0
    9.1338   -6.7931   25.0863 H   0  0  0  0  0  0  0  0  0  0  0  0
    8.3657   -5.7262   23.8995 H   0  0  0  0  0  0  0  0  0  0  0  0
   10.2417    1.0375   24.5711 H   0  0  0  0  0  0  0  0  0  0  0  0
    9.0279    1.9881   23.7492 H   0  0  0  0  0  0  0  0  0  0  0  0
   10.7949   -0.0994   22.4253 H   0  0  0  0  0  0  0  0  0  0  0  0
    8.2585   -1.5522   21.1129 H   0  0  0  0  0  0  0  0  0  0  0  0
  1  2  1  0  0  0  0
  1  3  2  0  0  0  0
  2  4  2  0  0  0  0
  3  5  1  0  0  0  0
  4 10  1  0  0  0  0
  5 10  2  0  0  0  0
  6  8  2  0  0  0  0
  6 11  1  0  0  0  0
  7  9  1  0  0  0  0
  7 11  2  0  0  0  0
  8 12  1  0  0  0  0
  9 12  2  0  0  0  0
 10 25  1  0  0  0  0
 11 26  1  0  0  0  0
 12 30  1  0  0  0  0
 13 15  1  0  0  0  0
 13 27  2  0  0  0  0
 13 29  1  0  0  0  0
 14 28  2  0  0  0  0
 14 29  1  0  0  0  0
 14 31  1  0  0  0  0
 15 16  2  0  0  0  0
 16 17  1  0  0  0  0
 17 18  2  0  0  0  0
 18 29  1  0  0  0  0
 19 26  1  1  0  0  0
 19 31  1  0  0  0  0
 19 32  2  0  0  0  0
 20 21  1  0  0  0  0
 20 22  1  0  0  0  0
 21 23  1  0  0  0  0
 22 24  1  0  0  0  0
 23 30  1  0  0  0  0
 24 30  1  0  0  0  0
 25 26  1  0  0  0  0
 27 28  1  0  0  0  0
  1 33  1  0  0  0  0
  2 34  1  0  0  0  0
  3 35  1  0  0  0  0
  4 36  1  0  0  0  0
  5 37  1  0  0  0  0
  6 38  1  0  0  0  0
  7 39  1  0  0  0  0
  8 40  1  0  0  0  0
  9 41  1  0  0  0  0
 15 42  1  0  0  0  0
 16 43  1  0  0  0  0
 17 44  1  0  0  0  0
 18 45  1  0  0  0  0
 20 46  1  0  0  0  0
 20 47  1  0  0  0  0
 21 48  1  0  0  0  0
 21 49  1  0  0  0  0
 22 50  1  0  0  0  0
 22 51  1  0  0  0  0
 23 52  1  0  0  0  0
 23 53  1  0  0  0  0
 24 54  1  0  0  0  0
 24 55  1  0  0  0  0
 25 56  1  0  0  0  0
 25 57  1  0  0  0  0
 26 58  1  0  0  0  0
 31 59  1  0  0  0  0
M  END
> <clash_score>
0.6168219295201246

> <docking_score>
-9.071136474609375

> <overlap_score>
0.9706592559814453

$$$$
BENZO_315_2
  -OEChem-08222022193D

 54 57  0     1  0  0  0  0  0999 V2000
    9.0720   -1.1280   24.8640 C   0  0  0  0  0  0  0  0  0  0  0  0
    9.7200   -2.2600   22.8630 C   0  0  0  0  0  0  0  0  0  0  0  0
    8.9960   -2.3380   25.5320 C   0  0  0  0  0  0  0  0  0  0  0  0
    9.6730   -3.4710   23.5300 C   0  0  0  0  0  0  0  0  0  0  0  0
   10.7934    3.1849   21.9605 C   0  0  0  0  0  0  0  0  0  0  0  0
   12.3221    1.9589   22.9580 C   0  0  0  0  0  0  0  0  0  0  0  0
    9.3350   -1.0880   23.5010 C   0  0  0  0  0  0  0  0  0  0  0  0
   10.9611    2.1180   22.8635 C   0  0  0  0  0  0  0  0  0  0  0  0
    9.3070   -3.5340   24.8780 C   0  0  0  0  0  0  0  0  0  0  0  0
    5.8300    0.9190   18.6970 C   0  0  0  0  0  0  0  0  0  0  0  0
    7.3170   -0.1610   19.8550 C   0  0  0  0  0  0  0  0  0  0  0  0
    4.6890    1.6810   18.4640 C   0  0  0  0  0  0  0  0  0  0  0  0
    3.9160    2.0630   19.5520 C   0  0  0  0  0  0  0  0  0  0  0  0
    4.2750    1.7050   20.8490 C   0  0  0  0  0  0  0  0  0  0  0  0
    5.4210    0.9600   21.0930 C   0  0  0  0  0  0  0  0  0  0  0  0
    8.4227   -5.1089   26.6141 C   0  0  0  0  0  0  0  0  0  0  0  0
    9.0420    0.3700   21.5280 C   0  0  0  0  0  0  0  0  0  0  0  0
    8.4174   -7.5521   25.9532 C   0  0  0  0  0  0  0  0  0  0  0  0
   14.2722    3.1281   21.9051 C   0  0  0  0  0  0  0  0  0  0  0  0
    9.8870    1.3260   23.5730 C   0  0  0  0  0  0  0  0  0  0  0  0
    8.6900   -6.5411   27.0525 C   0  0  0  0  0  0  0  0  0  0  0  0
    9.4560    0.1560   22.8130 C   0  0  2  0  0  0  0  0  0  0  0  0
   11.9550    3.6695   21.5134 N   0  0  0  0  0  0  0  0  0  0  0  0
    6.7580    0.3810   17.8350 N   0  0  0  0  0  0  0  0  0  0  0  0
    7.6390   -0.2680   18.5410 N   0  0  0  0  0  0  0  0  0  0  0  0
   12.8657    2.9036   22.1381 N   0  0  0  0  0  0  0  0  0  0  0  0
    6.1790    0.5730   19.9990 N   0  0  0  0  0  0  0  0  0  0  0  0
    9.2546   -4.7423   25.5437 N   0  0  0  0  0  0  0  0  0  0  0  0
    8.1890   -0.7180   20.8700 N   0  0  0  0  0  0  0  0  0  0  0  0
    7.5768   -4.4085   27.1602 O   0  0  0  0  0  0  0  0  0  0  0  0
    9.2690    1.4140   20.9380 O   0  0  0  0  0  0  0  0  0  0  0  0
    8.9202   -0.1986   25.4206 H   0  0  0  0  0  0  0  0  0  0  0  0
   10.0631   -2.2319   21.8252 H   0  0  0  0  0  0  0  0  0  0  0  0
    8.6898   -2.3534   26.5810 H   0  0  0  0  0  0  0  0  0  0  0  0
    9.9254   -4.3899   22.9914 H   0  0  0  0  0  0  0  0  0  0  0  0
    9.8743    3.6318   21.6088 H   0  0  0  0  0  0  0  0  0  0  0  0
   12.9348    1.2719   23.5258 H   0  0  0  0  0  0  0  0  0  0  0  0
    4.3967    1.9772   17.4718 H   0  0  0  0  0  0  0  0  0  0  0  0
    3.0218    2.6486   19.3697 H   0  0  0  0  0  0  0  0  0  0  0  0
    3.6566    2.0043   21.7065 H   0  0  0  0  0  0  0  0  0  0  0  0
    5.7190    0.6877   22.0810 H   0  0  0  0  0  0  0  0  0  0  0  0
    7.3765   -7.4971   25.6176 H   0  0  0  0  0  0  0  0  0  0  0  0
    8.6072   -8.5677   26.3138 H   0  0  0  0  0  0  0  0  0  0  0  0
    9.0599   -7.3717   25.0851 H   0  0  0  0  0  0  0  0  0  0  0  0
   14.5772    2.5070   21.0588 H   0  0  0  0  0  0  0  0  0  0  0  0
   14.4402    4.1857   21.6833 H   0  0  0  0  0  0  0  0  0  0  0  0
   14.8350    2.8566   22.8025 H   0  0  0  0  0  0  0  0  0  0  0  0
   10.2455    1.0419   24.5710 H   0  0  0  0  0  0  0  0  0  0  0  0
    9.0345    1.9965   23.7496 H   0  0  0  0  0  0  0  0  0  0  0  0
    9.7367   -6.6182   27.3685 H   0  0  0  0  0  0  0  0  0  0  0  0
    8.0565   -6.7633   27.9189 H   0  0  0  0  0  0  0  0  0  0  0  0
   10.7927   -0.1029   22.4279 H   0  0  0  0  0  0  0  0  0  0  0  0
    9.9034   -5.4689   25.2194 H   0  0  0  0  0  0  0  0  0  0  0  0
    8.2385   -1.5646   21.0947 H   0  0  0  0  0  0  0  0  0  0  0  0
  1  3  2  0  0  0  0
  1  7  1  0  0  0  0
  2  4  1  0  0  0  0
  2  7  2  0  0  0  0
  3  9  1  0  0  0  0
  4  9  2  0  0  0  0
  5  8  1  0  0  0  0
  5 23  2  0  0  0  0
  6  8  2  0  0  0  0
  6 26  1  0  0  0  0
  7 22  1  0  0  0  0
  8 20  1  0  0  0  0
  9 28  1  0  0  0  0
 10 12  1  0  0  0  0
 10 24  2  0  0  0  0
 10 27  1  0  0  0  0
 11 25  2  0  0  0  0
 11 27  1  0  0  0  0
 11 29  1  0  0  0  0
 12 13  2  0  0  0  0
 13 14  1  0  0  0  0
 14 15  2  0  0  0  0
 15 27  1  0  0  0  0
 16 21  1  0  0  0  0
 16 28  1  0  0  0  0
 16 30  2  0  0  0  0
 17 22  1  0  0  0  0
 17 29  1  0  0  0  0
 17 31  2  0  0  0  0
 18 21  1  0  0  0  0
 19 26  1  0  0  0  0
 20 22  1  6  0  0  0
 23 26  1  0  0  0  0
 24 25  1  0  0  0  0
  1 32  1  0  0  0  0
  2 33  1  0  0  0  0
  3 34  1  0  0  0  0
  4 35  1  0  0  0  0
  5 36  1  0  0  0  0
  6 37  1  0  0  0  0
 12 38  1  0  0  0  0
 13 39  1  0  0  0  0
 14 40  1  0  0  0  0
 15 41  1  0  0  0  0
 18 42  1  0  0  0  0
 18 43  1  0  0  0  0
 18 44  1  0  0  0  0
 19 45  1  0  0  0  0
 19 46  1  0  0  0  0
 19 47  1  0  0  0  0
 20 48  1  0  0  0  0
 20 49  1  0  0  0  0
 21 50  1  0  0  0  0
 21 51  1  0  0  0  0
 22 52  1  0  0  0  0
 28 53  1  0  0  0  0
 29 54  1  0  0  0  0
M  END
> <clash_score>
0.6426266954076744

> <docking_score>
-6.545788764953613

> <overlap_score>
0.9572396278381348

$$$$
BENZO_316_1
  -OEChem-08222022193D

 56 60  0     1  0  0  0  0  0999 V2000
    9.0720   -1.1280   24.8640 C   0  0  0  0  0  0  0  0  0  0  0  0
    9.7200   -2.2600   22.8630 C   0  0  0  0  0  0  0  0  0  0  0  0
    8.9960   -2.3380   25.5320 C   0  0  0  0  0  0  0  0  0  0  0  0
    9.6730   -3.4710   23.5300 C   0  0  0  0  0  0  0  0  0  0  0  0
   12.3968    0.6932   23.7036 C   0  0  0  0  0  0  0  0  0  0  0  0
   13.4249    0.5733   24.6125 C   0  0  0  0  0  0  0  0  0  0  0  0
   11.3289    1.2940   25.6787 C   0  0  0  0  0  0  0  0  0  0  0  0
    9.3350   -1.0880   23.5010 C   0  0  0  0  0  0  0  0  0  0  0  0
   11.1825    1.1108   24.3212 C   0  0  0  0  0  0  0  0  0  0  0  0
    9.3070   -3.5340   24.8780 C   0  0  0  0  0  0  0  0  0  0  0  0
    5.8300    0.9190   18.6970 C   0  0  0  0  0  0  0  0  0  0  0  0
    7.3170   -0.1610   19.8550 C   0  0  0  0  0  0  0  0  0  0  0  0
    4.6890    1.6810   18.4640 C   0  0  0  0  0  0  0  0  0  0  0  0
    3.9160    2.0630   19.5520 C   0  0  0  0  0  0  0  0  0  0  0  0
    4.2750    1.7050   20.8490 C   0  0  0  0  0  0  0  0  0  0  0  0
    5.4210    0.9600   21.0930 C   0  0  0  0  0  0  0  0  0  0  0  0
    9.0420    0.3700   21.5280 C   0  0  0  0  0  0  0  0  0  0  0  0
    7.3637   -6.1365   27.1885 C   0  0  0  0  0  0  0  0  0  0  0  0
    8.1962   -4.9739   27.7340 C   0  0  0  0  0  0  0  0  0  0  0  0
    7.1943   -6.0395   25.6706 C   0  0  0  0  0  0  0  0  0  0  0  0
    9.5197   -4.8493   26.9795 C   0  0  0  0  0  0  0  0  0  0  0  0
    8.5443   -5.8838   24.9636 C   0  0  0  0  0  0  0  0  0  0  0  0
    9.8870    1.3260   23.5730 C   0  0  0  0  0  0  0  0  0  0  0  0
    9.4560    0.1560   22.8130 C   0  0  1  0  0  0  0  0  0  0  0  0
    6.7580    0.3810   17.8350 N   0  0  0  0  0  0  0  0  0  0  0  0
    7.6390   -0.2680   18.5410 N   0  0  0  0  0  0  0  0  0  0  0  0
    6.1790    0.5730   19.9990 N   0  0  0  0  0  0  0  0  0  0  0  0
    9.2563   -4.7385   25.5420 N   0  0  0  0  0  0  0  0  0  0  0  0
    8.1890   -0.7180   20.8700 N   0  0  0  0  0  0  0  0  0  0  0  0
    9.2690    1.4140   20.9380 O   0  0  0  0  0  0  0  0  0  0  0  0
   12.9251    0.9633   26.2032 S   0  0  0  0  0  0  0  0  0  0  0  0
    8.9214   -0.1986   25.4206 H   0  0  0  0  0  0  0  0  0  0  0  0
   10.0622   -2.2326   21.8251 H   0  0  0  0  0  0  0  0  0  0  0  0
    8.6882   -2.3542   26.5803 H   0  0  0  0  0  0  0  0  0  0  0  0
    9.9258   -4.3896   22.9914 H   0  0  0  0  0  0  0  0  0  0  0  0
   12.5144    0.4895   22.6468 H   0  0  0  0  0  0  0  0  0  0  0  0
   14.4455    0.2746   24.4187 H   0  0  0  0  0  0  0  0  0  0  0  0
   10.5774    1.6050   26.3912 H   0  0  0  0  0  0  0  0  0  0  0  0
    4.3967    1.9772   17.4718 H   0  0  0  0  0  0  0  0  0  0  0  0
    3.0218    2.6486   19.3697 H   0  0  0  0  0  0  0  0  0  0  0  0
    3.6566    2.0043   21.7065 H   0  0  0  0  0  0  0  0  0  0  0  0
    5.7190    0.6877   22.0810 H   0  0  0  0  0  0  0  0  0  0  0  0
    7.8484   -7.0905   27.4464 H   0  0  0  0  0  0  0  0  0  0  0  0
    6.3761   -6.1442   27.6721 H   0  0  0  0  0  0  0  0  0  0  0  0
    7.6308   -4.0428   27.6404 H   0  0  0  0  0  0  0  0  0  0  0  0
    8.3917   -5.1316   28.7967 H   0  0  0  0  0  0  0  0  0  0  0  0
    6.6889   -6.9376   25.3006 H   0  0  0  0  0  0  0  0  0  0  0  0
    6.5516   -5.1860   25.4256 H   0  0  0  0  0  0  0  0  0  0  0  0
   10.0494   -3.9643   27.3413 H   0  0  0  0  0  0  0  0  0  0  0  0
   10.1432   -5.7258   27.1775 H   0  0  0  0  0  0  0  0  0  0  0  0
    9.1338   -6.7931   25.0863 H   0  0  0  0  0  0  0  0  0  0  0  0
    8.3657   -5.7262   23.8995 H   0  0  0  0  0  0  0  0  0  0  0  0
    9.1090    1.6445   24.2791 H   0  0  0  0  0  0  0  0  0  0  0  0
   10.0281    2.1766   22.8918 H   0  0  0  0  0  0  0  0  0  0  0  0
   10.7949   -0.0994   22.4253 H   0  0  0  0  0  0  0  0  0  0  0  0
    8.2585   -1.5522   21.1129 H   0  0  0  0  0  0  0  0  0  0  0  0
  1  3  2  0  0  0  0
  1  8  1  0  0  0  0
  2  4  1  0  0  0  0
  2  8  2  0  0  0  0
  3 10  1  0  0  0  0
  4 10  2  0  0  0  0
  5  6  2  0  0  0  0
  5  9  1  0  0  0  0
  6 31  1  0  0  0  0
  7  9  2  0  0  0  0
  7 31  1  0  0  0  0
  8 24  1  0  0  0  0
  9 23  1  0  0  0  0
 10 28  1  0  0  0  0
 11 13  1  0  0  0  0
 11 25  2  0  0  0  0
 11 27  1  0  0  0  0
 12 26  2  0  0  0  0
 12 27  1  0  0  0  0
 12 29  1  0  0  0  0
 13 14  2  0  0  0  0
 14 15  1  0  0  0  0
 15 16  2  0  0  0  0
 16 27  1  0  0  0  0
 17 24  1  1  0  0  0
 17 29  1  0  0  0  0
 17 30  2  0  0  0  0
 18 19  1  0  0  0  0
 18 20  1  0  0  0  0
 19 21  1  0  0  0  0
 20 22  1  0  0  0  0
 21 28  1  0  0  0  0
 22 28  1  0  0  0  0
 23 24  1  0  0  0  0
 25 26  1  0  0  0  0
  1 32  1  0  0  0  0
  2 33  1  0  0  0  0
  3 34  1  0  0  0  0
  4 35  1  0  0  0  0
  5 36  1  0  0  0  0
  6 37  1  0  0  0  0
  7 38  1  0  0  0  0
 13 39  1  0  0  0  0
 14 40  1  0  0  0  0
 15 41  1  0  0  0  0
 16 42  1  0  0  0  0
 18 43  1  0  0  0  0
 18 44  1  0  0  0  0
 19 45  1  0  0  0  0
 19 46  1  0  0  0  0
 20 47  1  0  0  0  0
 20 48  1  0  0  0  0
 21 49  1  0  0  0  0
 21 50  1  0  0  0  0
 22 51  1  0  0  0  0
 22 52  1  0  0  0  0
 23 53  1  0  0  0  0
 23 54  1  0  0  0  0
 24 55  1  0  0  0  0
 29 56  1  0  0  0  0
M  END
> <clash_score>
0.6358218900354776

> <docking_score>
-7.497793197631836

> <overlap_score>
0.9228859543800354

$$$$
BENZO_315_1
  -OEChem-08222022193D

 54 57  0     1  0  0  0  0  0999 V2000
    9.0720   -1.1280   24.8640 C   0  0  0  0  0  0  0  0  0  0  0  0
    9.7200   -2.2600   22.8630 C   0  0  0  0  0  0  0  0  0  0  0  0
    8.9960   -2.3380   25.5320 C   0  0  0  0  0  0  0  0  0  0  0  0
    9.6730   -3.4710   23.5300 C   0  0  0  0  0  0  0  0  0  0  0  0
   12.0720    2.7762   23.5689 C   0  0  0  0  0  0  0  0  0  0  0  0
   12.3651    0.6087   23.3429 C   0  0  0  0  0  0  0  0  0  0  0  0
    9.3350   -1.0880   23.5010 C   0  0  0  0  0  0  0  0  0  0  0  0
   11.3794    1.5528   23.4964 C   0  0  0  0  0  0  0  0  0  0  0  0
    9.3070   -3.5340   24.8780 C   0  0  0  0  0  0  0  0  0  0  0  0
    5.8300    0.9190   18.6970 C   0  0  0  0  0  0  0  0  0  0  0  0
    7.3170   -0.1610   19.8550 C   0  0  0  0  0  0  0  0  0  0  0  0
    4.6890    1.6810   18.4640 C   0  0  0  0  0  0  0  0  0  0  0  0
    3.9160    2.0630   19.5520 C   0  0  0  0  0  0  0  0  0  0  0  0
    4.2750    1.7050   20.8490 C   0  0  0  0  0  0  0  0  0  0  0  0
    5.4210    0.9600   21.0930 C   0  0  0  0  0  0  0  0  0  0  0  0
    8.4227   -5.1089   26.6141 C   0  0  0  0  0  0  0  0  0  0  0  0
    9.0420    0.3700   21.5280 C   0  0  0  0  0  0  0  0  0  0  0  0
    8.4174   -7.5521   25.9532 C   0  0  0  0  0  0  0  0  0  0  0  0
   14.8634    0.7326   23.1949 C   0  0  0  0  0  0  0  0  0  0  0  0
    9.8870    1.3260   23.5730 C   0  0  0  0  0  0  0  0  0  0  0  0
    8.6900   -6.5411   27.0525 C   0  0  0  0  0  0  0  0  0  0  0  0
    9.4560    0.1560   22.8130 C   0  0  1  0  0  0  0  0  0  0  0  0
   13.3955    2.6261   23.4698 N   0  0  0  0  0  0  0  0  0  0  0  0
    6.7580    0.3810   17.8350 N   0  0  0  0  0  0  0  0  0  0  0  0
    7.6390   -0.2680   18.5410 N   0  0  0  0  0  0  0  0  0  0  0  0
   13.5424    1.2972   23.3335 N   0  0  0  0  0  0  0  0  0  0  0  0
    6.1790    0.5730   19.9990 N   0  0  0  0  0  0  0  0  0  0  0  0
    9.2546   -4.7423   25.5437 N   0  0  0  0  0  0  0  0  0  0  0  0
    8.1890   -0.7180   20.8700 N   0  0  0  0  0  0  0  0  0  0  0  0
    7.5768   -4.4085   27.1602 O   0  0  0  0  0  0  0  0  0  0  0  0
    9.2690    1.4140   20.9380 O   0  0  0  0  0  0  0  0  0  0  0  0
    8.9202   -0.1986   25.4206 H   0  0  0  0  0  0  0  0  0  0  0  0
   10.0631   -2.2319   21.8252 H   0  0  0  0  0  0  0  0  0  0  0  0
    8.6898   -2.3534   26.5810 H   0  0  0  0  0  0  0  0  0  0  0  0
    9.9254   -4.3899   22.9914 H   0  0  0  0  0  0  0  0  0  0  0  0
   11.6698    3.7720   23.6907 H   0  0  0  0  0  0  0  0  0  0  0  0
   12.3300   -0.4677   23.2433 H   0  0  0  0  0  0  0  0  0  0  0  0
    4.3967    1.9772   17.4718 H   0  0  0  0  0  0  0  0  0  0  0  0
    3.0218    2.6486   19.3697 H   0  0  0  0  0  0  0  0  0  0  0  0
    3.6566    2.0043   21.7065 H   0  0  0  0  0  0  0  0  0  0  0  0
    5.7190    0.6877   22.0810 H   0  0  0  0  0  0  0  0  0  0  0  0
    7.3765   -7.4971   25.6176 H   0  0  0  0  0  0  0  0  0  0  0  0
    8.6072   -8.5677   26.3138 H   0  0  0  0  0  0  0  0  0  0  0  0
    9.0599   -7.3717   25.0851 H   0  0  0  0  0  0  0  0  0  0  0  0
   15.1060    0.6995   22.1295 H   0  0  0  0  0  0  0  0  0  0  0  0
   15.5839    1.3558   23.7319 H   0  0  0  0  0  0  0  0  0  0  0  0
   14.8726   -0.2742   23.6217 H   0  0  0  0  0  0  0  0  0  0  0  0
    9.5854    1.2495   24.6258 H   0  0  0  0  0  0  0  0  0  0  0  0
    9.3886    2.2282   23.1920 H   0  0  0  0  0  0  0  0  0  0  0  0
    9.7367   -6.6182   27.3685 H   0  0  0  0  0  0  0  0  0  0  0  0
    8.0565   -6.7633   27.9189 H   0  0  0  0  0  0  0  0  0  0  0  0
    8.0686    0.4964   23.2745 H   0  0  0  0  0  0  0  0  0  0  0  0
    9.9034   -5.4689   25.2194 H   0  0  0  0  0  0  0  0  0  0  0  0
    8.2385   -1.5646   21.0947 H   0  0  0  0  0  0  0  0  0  0  0  0
  1  3  2  0  0  0  0
  1  7  1  0  0  0  0
  2  4  1  0  0  0  0
  2  7  2  0  0  0  0
  3  9  1  0  0  0  0
  4  9  2  0  0  0  0
  5  8  1  0  0  0  0
  5 23  2  0  0  0  0
  6  8  2  0  0  0  0
  6 26  1  0  0  0  0
  7 22  1  0  0  0  0
  8 20  1  0  0  0  0
  9 28  1  0  0  0  0
 10 12  1  0  0  0  0
 10 24  2  0  0  0  0
 10 27  1  0  0  0  0
 11 25  2  0  0  0  0
 11 27  1  0  0  0  0
 11 29  1  0  0  0  0
 12 13  2  0  0  0  0
 13 14  1  0  0  0  0
 14 15  2  0  0  0  0
 15 27  1  0  0  0  0
 16 21  1  0  0  0  0
 16 28  1  0  0  0  0
 16 30  2  0  0  0  0
 17 22  1  0  0  0  0
 17 29  1  0  0  0  0
 17 31  2  0  0  0  0
 18 21  1  0  0  0  0
 19 26  1  0  0  0  0
 20 22  1  1  0  0  0
 23 26  1  0  0  0  0
 24 25  1  0  0  0  0
  1 32  1  0  0  0  0
  2 33  1  0  0  0  0
  3 34  1  0  0  0  0
  4 35  1  0  0  0  0
  5 36  1  0  0  0  0
  6 37  1  0  0  0  0
 12 38  1  0  0  0  0
 13 39  1  0  0  0  0
 14 40  1  0  0  0  0
 15 41  1  0  0  0  0
 18 42  1  0  0  0  0
 18 43  1  0  0  0  0
 18 44  1  0  0  0  0
 19 45  1  0  0  0  0
 19 46  1  0  0  0  0
 19 47  1  0  0  0  0
 20 48  1  0  0  0  0
 20 49  1  0  0  0  0
 21 50  1  0  0  0  0
 21 51  1  0  0  0  0
 22 52  1  0  0  0  0
 28 53  1  0  0  0  0
 29 54  1  0  0  0  0
M  END
> <clash_score>
0.6426266954076744

> <docking_score>
-8.394624710083008

> <overlap_score>
1.0034992694854736

$$$$
BENZO_317_2
  -OEChem-08222022193D

 59 63  0     1  0  0  0  0  0999 V2000
   14.1302    2.0067   23.3945 C   0  0  0  0  0  0  0  0  0  0  0  0
   13.2571    3.0838   23.5461 C   0  0  0  0  0  0  0  0  0  0  0  0
   13.6272    0.7090   23.3006 C   0  0  0  0  0  0  0  0  0  0  0  0
   11.8810    2.8633   23.6040 C   0  0  0  0  0  0  0  0  0  0  0  0
   12.2511    0.4885   23.3584 C   0  0  0  0  0  0  0  0  0  0  0  0
    9.0720   -1.1280   24.8640 C   0  0  0  0  0  0  0  0  0  0  0  0
    9.7200   -2.2600   22.8630 C   0  0  0  0  0  0  0  0  0  0  0  0
    8.9960   -2.3380   25.5320 C   0  0  0  0  0  0  0  0  0  0  0  0
    9.6730   -3.4710   23.5300 C   0  0  0  0  0  0  0  0  0  0  0  0
   11.3780    1.5657   23.5101 C   0  0  0  0  0  0  0  0  0  0  0  0
    9.3350   -1.0880   23.5010 C   0  0  0  0  0  0  0  0  0  0  0  0
    9.3070   -3.5340   24.8780 C   0  0  0  0  0  0  0  0  0  0  0  0
    5.8300    0.9190   18.6970 C   0  0  0  0  0  0  0  0  0  0  0  0
    7.3170   -0.1610   19.8550 C   0  0  0  0  0  0  0  0  0  0  0  0
    4.6890    1.6810   18.4640 C   0  0  0  0  0  0  0  0  0  0  0  0
    3.9160    2.0630   19.5520 C   0  0  0  0  0  0  0  0  0  0  0  0
    4.2750    1.7050   20.8490 C   0  0  0  0  0  0  0  0  0  0  0  0
    5.4210    0.9600   21.0930 C   0  0  0  0  0  0  0  0  0  0  0  0
    9.0420    0.3700   21.5280 C   0  0  0  0  0  0  0  0  0  0  0  0
    7.3637   -6.1365   27.1885 C   0  0  0  0  0  0  0  0  0  0  0  0
    8.1962   -4.9739   27.7340 C   0  0  0  0  0  0  0  0  0  0  0  0
    7.1943   -6.0395   25.6706 C   0  0  0  0  0  0  0  0  0  0  0  0
    9.5197   -4.8493   26.9795 C   0  0  0  0  0  0  0  0  0  0  0  0
    8.5443   -5.8838   24.9636 C   0  0  0  0  0  0  0  0  0  0  0  0
    9.8870    1.3260   23.5730 C   0  0  0  0  0  0  0  0  0  0  0  0
    9.4560    0.1560   22.8130 C   0  0  2  0  0  0  0  0  0  0  0  0
    6.7580    0.3810   17.8350 N   0  0  0  0  0  0  0  0  0  0  0  0
    7.6390   -0.2680   18.5410 N   0  0  0  0  0  0  0  0  0  0  0  0
    6.1790    0.5730   19.9990 N   0  0  0  0  0  0  0  0  0  0  0  0
    9.2563   -4.7385   25.5420 N   0  0  0  0  0  0  0  0  0  0  0  0
    8.1890   -0.7180   20.8700 N   0  0  0  0  0  0  0  0  0  0  0  0
    9.2690    1.4140   20.9380 O   0  0  0  0  0  0  0  0  0  0  0  0
   15.2016    2.1786   23.3481 H   0  0  0  0  0  0  0  0  0  0  0  0
   13.6485    4.0944   23.6181 H   0  0  0  0  0  0  0  0  0  0  0  0
   14.3067   -0.1298   23.1814 H   0  0  0  0  0  0  0  0  0  0  0  0
   11.2082    3.7086   23.7225 H   0  0  0  0  0  0  0  0  0  0  0  0
   11.8683   -0.5260   23.2846 H   0  0  0  0  0  0  0  0  0  0  0  0
    8.9214   -0.1986   25.4206 H   0  0  0  0  0  0  0  0  0  0  0  0
   10.0622   -2.2326   21.8251 H   0  0  0  0  0  0  0  0  0  0  0  0
    8.6882   -2.3542   26.5803 H   0  0  0  0  0  0  0  0  0  0  0  0
    9.9258   -4.3896   22.9914 H   0  0  0  0  0  0  0  0  0  0  0  0
    4.3967    1.9772   17.4718 H   0  0  0  0  0  0  0  0  0  0  0  0
    3.0218    2.6486   19.3697 H   0  0  0  0  0  0  0  0  0  0  0  0
    3.6566    2.0043   21.7065 H   0  0  0  0  0  0  0  0  0  0  0  0
    5.7190    0.6877   22.0810 H   0  0  0  0  0  0  0  0  0  0  0  0
    7.8484   -7.0905   27.4464 H   0  0  0  0  0  0  0  0  0  0  0  0
    6.3761   -6.1442   27.6721 H   0  0  0  0  0  0  0  0  0  0  0  0
    7.6308   -4.0428   27.6404 H   0  0  0  0  0  0  0  0  0  0  0  0
    8.3917   -5.1316   28.7967 H   0  0  0  0  0  0  0  0  0  0  0  0
    6.6889   -6.9376   25.3006 H   0  0  0  0  0  0  0  0  0  0  0  0
    6.5516   -5.1860   25.4256 H   0  0  0  0  0  0  0  0  0  0  0  0
   10.0494   -3.9643   27.3413 H   0  0  0  0  0  0  0  0  0  0  0  0
   10.1432   -5.7258   27.1775 H   0  0  0  0  0  0  0  0  0  0  0  0
    9.1338   -6.7931   25.0863 H   0  0  0  0  0  0  0  0  0  0  0  0
    8.3657   -5.7262   23.8995 H   0  0  0  0  0  0  0  0  0  0  0  0
    9.5760    1.2490   24.6231 H   0  0  0  0  0  0  0  0  0  0  0  0
    9.3844    2.2230   23.1853 H   0  0  0  0  0  0  0  0  0  0  0  0
    8.0674    0.5009   23.2732 H   0  0  0  0  0  0  0  0  0  0  0  0
    8.2585   -1.5522   21.1129 H   0  0  0  0  0  0  0  0  0  0  0  0
  1  2  1  0  0  0  0
  1  3  2  0  0  0  0
  2  4  2  0  0  0  0
  3  5  1  0  0  0  0
  4 10  1  0  0  0  0
  5 10  2  0  0  0  0
  6  8  2  0  0  0  0
  6 11  1  0  0  0  0
  7  9  1  0  0  0  0
  7 11  2  0  0  0  0
  8 12  1  0  0  0  0
  9 12  2  0  0  0  0
 10 25  1  0  0  0  0
 11 26  1  0  0  0  0
 12 30  1  0  0  0  0
 13 15  1  0  0  0  0
 13 27  2  0  0  0  0
 13 29  1  0  0  0  0
 14 28  2  0  0  0  0
 14 29  1  0  0  0  0
 14 31  1  0  0  0  0
 15 16  2  0  0  0  0
 16 17  1  0  0  0  0
 17 18  2  0  0  0  0
 18 29  1  0  0  0  0
 19 26  1  6  0  0  0
 19 31  1  0  0  0  0
 19 32  2  0  0  0  0
 20 21  1  0  0  0  0
 20 22  1  0  0  0  0
 21 23  1  0  0  0  0
 22 24  1  0  0  0  0
 23 30  1  0  0  0  0
 24 30  1  0  0  0  0
 25 26  1  0  0  0  0
 27 28  1  0  0  0  0
  1 33  1  0  0  0  0
  2 34  1  0  0  0  0
  3 35  1  0  0  0  0
  4 36  1  0  0  0  0
  5 37  1  0  0  0  0
  6 38  1  0  0  0  0
  7 39  1  0  0  0  0
  8 40  1  0  0  0  0
  9 41  1  0  0  0  0
 15 42  1  0  0  0  0
 16 43  1  0  0  0  0
 17 44  1  0  0  0  0
 18 45  1  0  0  0  0
 20 46  1  0  0  0  0
 20 47  1  0  0  0  0
 21 48  1  0  0  0  0
 21 49  1  0  0  0  0
 22 50  1  0  0  0  0
 22 51  1  0  0  0  0
 23 52  1  0  0  0  0
 23 53  1  0  0  0  0
 24 54  1  0  0  0  0
 24 55  1  0  0  0  0
 25 56  1  0  0  0  0
 25 57  1  0  0  0  0
 26 58  1  0  0  0  0
 31 59  1  0  0  0  0
M  END
> <clash_score>
0

> <docking_score>
-9.071220397949219

> <overlap_score>
1.0136134624481201

$$$$
BENZO_316_2
  -OEChem-08222022193D

 56 60  0     1  0  0  0  0  0999 V2000
    9.0720   -1.1280   24.8640 C   0  0  0  0  0  0  0  0  0  0  0  0
    9.7200   -2.2600   22.8630 C   0  0  0  0  0  0  0  0  0  0  0  0
    8.9960   -2.3380   25.5320 C   0  0  0  0  0  0  0  0  0  0  0  0
    9.6730   -3.4710   23.5300 C   0  0  0  0  0  0  0  0  0  0  0  0
   12.3482    0.5241   23.4467 C   0  0  0  0  0  0  0  0  0  0  0  0
   13.6337    1.0166   23.3986 C   0  0  0  0  0  0  0  0  0  0  0  0
   11.9591    2.8148   23.5083 C   0  0  0  0  0  0  0  0  0  0  0  0
    9.3350   -1.0880   23.5010 C   0  0  0  0  0  0  0  0  0  0  0  0
   11.3780    1.5657   23.5101 C   0  0  0  0  0  0  0  0  0  0  0  0
    9.3070   -3.5340   24.8780 C   0  0  0  0  0  0  0  0  0  0  0  0
    5.8300    0.9190   18.6970 C   0  0  0  0  0  0  0  0  0  0  0  0
    7.3170   -0.1610   19.8550 C   0  0  0  0  0  0  0  0  0  0  0  0
    4.6890    1.6810   18.4640 C   0  0  0  0  0  0  0  0  0  0  0  0
    3.9160    2.0630   19.5520 C   0  0  0  0  0  0  0  0  0  0  0  0
    4.2750    1.7050   20.8490 C   0  0  0  0  0  0  0  0  0  0  0  0
    5.4210    0.9600   21.0930 C   0  0  0  0  0  0  0  0  0  0  0  0
    9.0420    0.3700   21.5280 C   0  0  0  0  0  0  0  0  0  0  0  0
    7.3637   -6.1365   27.1885 C   0  0  0  0  0  0  0  0  0  0  0  0
    8.1962   -4.9739   27.7340 C   0  0  0  0  0  0  0  0  0  0  0  0
    7.1943   -6.0395   25.6706 C   0  0  0  0  0  0  0  0  0  0  0  0
    9.5197   -4.8493   26.9795 C   0  0  0  0  0  0  0  0  0  0  0  0
    8.5443   -5.8838   24.9636 C   0  0  0  0  0  0  0  0  0  0  0  0
    9.8870    1.3260   23.5730 C   0  0  0  0  0  0  0  0  0  0  0  0
    9.4560    0.1560   22.8130 C   0  0  2  0  0  0  0  0  0  0  0  0
    6.7580    0.3810   17.8350 N   0  0  0  0  0  0  0  0  0  0  0  0
    7.6390   -0.2680   18.5410 N   0  0  0  0  0  0  0  0  0  0  0  0
    6.1790    0.5730   19.9990 N   0  0  0  0  0  0  0  0  0  0  0  0
    9.2563   -4.7385   25.5420 N   0  0  0  0  0  0  0  0  0  0  0  0
    8.1890   -0.7180   20.8700 N   0  0  0  0  0  0  0  0  0  0  0  0
    9.2690    1.4140   20.9380 O   0  0  0  0  0  0  0  0  0  0  0  0
   13.6675    2.7284   23.4300 S   0  0  0  0  0  0  0  0  0  0  0  0
    8.9214   -0.1986   25.4206 H   0  0  0  0  0  0  0  0  0  0  0  0
   10.0622   -2.2326   21.8251 H   0  0  0  0  0  0  0  0  0  0  0  0
    8.6882   -2.3542   26.5803 H   0  0  0  0  0  0  0  0  0  0  0  0
    9.9258   -4.3896   22.9914 H   0  0  0  0  0  0  0  0  0  0  0  0
   12.1191   -0.5341   23.4370 H   0  0  0  0  0  0  0  0  0  0  0  0
   14.5547    0.4533   23.3471 H   0  0  0  0  0  0  0  0  0  0  0  0
   11.4660    3.7761   23.5503 H   0  0  0  0  0  0  0  0  0  0  0  0
    4.3967    1.9772   17.4718 H   0  0  0  0  0  0  0  0  0  0  0  0
    3.0218    2.6486   19.3697 H   0  0  0  0  0  0  0  0  0  0  0  0
    3.6566    2.0043   21.7065 H   0  0  0  0  0  0  0  0  0  0  0  0
    5.7190    0.6877   22.0810 H   0  0  0  0  0  0  0  0  0  0  0  0
    7.8484   -7.0905   27.4464 H   0  0  0  0  0  0  0  0  0  0  0  0
    6.3761   -6.1442   27.6721 H   0  0  0  0  0  0  0  0  0  0  0  0
    7.6308   -4.0428   27.6404 H   0  0  0  0  0  0  0  0  0  0  0  0
    8.3917   -5.1316   28.7967 H   0  0  0  0  0  0  0  0  0  0  0  0
    6.6889   -6.9376   25.3006 H   0  0  0  0  0  0  0  0  0  0  0  0
    6.5516   -5.1860   25.4256 H   0  0  0  0  0  0  0  0  0  0  0  0
   10.0494   -3.9643   27.3413 H   0  0  0  0  0  0  0  0  0  0  0  0
   10.1432   -5.7258   27.1775 H   0  0  0  0  0  0  0  0  0  0  0  0
    9.1338   -6.7931   25.0863 H   0  0  0  0  0  0  0  0  0  0  0  0
    8.3657   -5.7262   23.8995 H   0  0  0  0  0  0  0  0  0  0  0  0
    9.5760    1.2490   24.6231 H   0  0  0  0  0  0  0  0  0  0  0  0
    9.3844    2.2230   23.1853 H   0  0  0  0  0  0  0  0  0  0  0  0
    8.0674    0.5009   23.2732 H   0  0  0  0  0  0  0  0  0  0  0  0
    8.2585   -1.5522   21.1129 H   0  0  0  0  0  0  0  0  0  0  0  0
  1  3  2  0  0  0  0
  1  8  1  0  0  0  0
  2  4  1  0  0  0  0
  2  8  2  0  0  0  0
  3 10  1  0  0  0  0
  4 10  2  0  0  0  0
  5  6  2  0  0  0  0
  5  9  1  0  0  0  0
  6 31  1  0  0  0  0
  7  9  2  0  0  0  0
  7 31  1  0  0  0  0
  8 24  1  0  0  0  0
  9 23  1  0  0  0  0
 10 28  1  0  0  0  0
 11 13  1  0  0  0  0
 11 25  2  0  0  0  0
 11 27  1  0  0  0  0
 12 26  2  0  0  0  0
 12 27  1  0  0  0  0
 12 29  1  0  0  0  0
 13 14  2  0  0  0  0
 14 15  1  0  0  0  0
 15 16  2  0  0  0  0
 16 27  1  0  0  0  0
 17 24  1  6  0  0  0
 17 29  1  0  0  0  0
 17 30  2  0  0  0  0
 18 19  1  0  0  0  0
 18 20  1  0  0  0  0
 19 21  1  0  0  0  0
 20 22  1  0  0  0  0
 21 28  1  0  0  0  0
 22 28  1  0  0  0  0
 23 24  1  0  0  0  0
 25 26  1  0  0  0  0
  1 32  1  0  0  0  0
  2 33  1  0  0  0  0
  3 34  1  0  0  0  0
  4 35  1  0  0  0  0
  5 36  1  0  0  0  0
  6 37  1  0  0  0  0
  7 38  1  0  0  0  0
 13 39  1  0  0  0  0
 14 40  1  0  0  0  0
 15 41  1  0  0  0  0
 16 42  1  0  0  0  0
 18 43  1  0  0  0  0
 18 44  1  0  0  0  0
 19 45  1  0  0  0  0
 19 46  1  0  0  0  0
 20 47  1  0  0  0  0
 20 48  1  0  0  0  0
 21 49  1  0  0  0  0
 21 50  1  0  0  0  0
 22 51  1  0  0  0  0
 22 52  1  0  0  0  0
 23 53  1  0  0  0  0
 23 54  1  0  0  0  0
 24 55  1  0  0  0  0
 29 56  1  0  0  0  0
M  END
> <clash_score>
0

> <docking_score>
-9.541755676269531

> <overlap_score>
0.9986698031425476

$$$$
BENZO_321_1
  -OEChem-08222022193D

 47 50  0     1  0  0  0  0  0999 V2000
   14.1341    1.9700   23.3555 C   0  0  0  0  0  0  0  0  0  0  0  0
   13.2717    3.0548   23.5141 C   0  0  0  0  0  0  0  0  0  0  0  0
   13.6192    0.6767   23.2672 C   0  0  0  0  0  0  0  0  0  0  0  0
   11.8943    2.8461   23.5846 C   0  0  0  0  0  0  0  0  0  0  0  0
   12.2418    0.4681   23.3377 C   0  0  0  0  0  0  0  0  0  0  0  0
    8.9960   -2.3380   25.5320 C   0  0  0  0  0  0  0  0  0  0  0  0
    9.6730   -3.4710   23.5300 C   0  0  0  0  0  0  0  0  0  0  0  0
    9.0720   -1.1280   24.8640 C   0  0  0  0  0  0  0  0  0  0  0  0
    9.7200   -2.2600   22.8630 C   0  0  0  0  0  0  0  0  0  0  0  0
    9.3070   -3.5340   24.8780 C   0  0  0  0  0  0  0  0  0  0  0  0
   11.3794    1.5528   23.4964 C   0  0  0  0  0  0  0  0  0  0  0  0
    9.3350   -1.0880   23.5010 C   0  0  0  0  0  0  0  0  0  0  0  0
    5.8300    0.9190   18.6970 C   0  0  0  0  0  0  0  0  0  0  0  0
    7.3170   -0.1610   19.8550 C   0  0  0  0  0  0  0  0  0  0  0  0
    4.6890    1.6810   18.4640 C   0  0  0  0  0  0  0  0  0  0  0  0
    3.9160    2.0630   19.5520 C   0  0  0  0  0  0  0  0  0  0  0  0
    4.2750    1.7050   20.8490 C   0  0  0  0  0  0  0  0  0  0  0  0
    5.4210    0.9600   21.0930 C   0  0  0  0  0  0  0  0  0  0  0  0
    9.0420    0.3700   21.5280 C   0  0  0  0  0  0  0  0  0  0  0  0
    9.2507   -4.8268   25.5895 C   0  0  0  0  0  0  0  0  0  0  0  0
    9.8870    1.3260   23.5730 C   0  0  0  0  0  0  0  0  0  0  0  0
    9.4560    0.1560   22.8130 C   0  0  1  0  0  0  0  0  0  0  0  0
    6.7580    0.3810   17.8350 N   0  0  0  0  0  0  0  0  0  0  0  0
    7.6390   -0.2680   18.5410 N   0  0  0  0  0  0  0  0  0  0  0  0
    6.1790    0.5730   19.9990 N   0  0  0  0  0  0  0  0  0  0  0  0
    8.1890   -0.7180   20.8700 N   0  0  0  0  0  0  0  0  0  0  0  0
    9.2690    1.4140   20.9380 O   0  0  0  0  0  0  0  0  0  0  0  0
   15.2065    2.1328   23.2992 H   0  0  0  0  0  0  0  0  0  0  0  0
   13.6724    4.0620   23.5817 H   0  0  0  0  0  0  0  0  0  0  0  0
   14.2903   -0.1680   23.1426 H   0  0  0  0  0  0  0  0  0  0  0  0
   11.2299    3.6973   23.7085 H   0  0  0  0  0  0  0  0  0  0  0  0
   11.8496   -0.5431   23.2682 H   0  0  0  0  0  0  0  0  0  0  0  0
    8.6904   -2.3557   26.5808 H   0  0  0  0  0  0  0  0  0  0  0  0
    9.9249   -4.3911   22.9935 H   0  0  0  0  0  0  0  0  0  0  0  0
    8.9209   -0.1987   25.4207 H   0  0  0  0  0  0  0  0  0  0  0  0
   10.0640   -2.2315   21.8255 H   0  0  0  0  0  0  0  0  0  0  0  0
    4.3967    1.9772   17.4718 H   0  0  0  0  0  0  0  0  0  0  0  0
    3.0218    2.6486   19.3697 H   0  0  0  0  0  0  0  0  0  0  0  0
    3.6566    2.0043   21.7065 H   0  0  0  0  0  0  0  0  0  0  0  0
    5.7190    0.6877   22.0810 H   0  0  0  0  0  0  0  0  0  0  0  0
    8.2506   -5.2684   25.5009 H   0  0  0  0  0  0  0  0  0  0  0  0
    9.9820   -5.5375   25.1832 H   0  0  0  0  0  0  0  0  0  0  0  0
    9.4843   -4.7055   26.6554 H   0  0  0  0  0  0  0  0  0  0  0  0
    9.5854    1.2495   24.6258 H   0  0  0  0  0  0  0  0  0  0  0  0
    9.3886    2.2282   23.1920 H   0  0  0  0  0  0  0  0  0  0  0  0
    8.0686    0.4964   23.2745 H   0  0  0  0  0  0  0  0  0  0  0  0
    8.2385   -1.5646   21.0947 H   0  0  0  0  0  0  0  0  0  0  0  0
  1  2  1  0  0  0  0
  1  3  2  0  0  0  0
  2  4  2  0  0  0  0
  3  5  1  0  0  0  0
  4 11  1  0  0  0  0
  5 11  2  0  0  0  0
  6  8  2  0  0  0  0
  6 10  1  0  0  0  0
  7  9  1  0  0  0  0
  7 10  2  0  0  0  0
  8 12  1  0  0  0  0
  9 12  2  0  0  0  0
 10 20  1  0  0  0  0
 11 21  1  0  0  0  0
 12 22  1  0  0  0  0
 13 15  1  0  0  0  0
 13 23  2  0  0  0  0
 13 25  1  0  0  0  0
 14 24  2  0  0  0  0
 14 25  1  0  0  0  0
 14 26  1  0  0  0  0
 15 16  2  0  0  0  0
 16 17  1  0  0  0  0
 17 18  2  0  0  0  0
 18 25  1  0  0  0  0
 19 22  1  0  0  0  0
 19 26  1  0  0  0  0
 19 27  2  0  0  0  0
 21 22  1  1  0  0  0
 23 24  1  0  0  0  0
  1 28  1  0  0  0  0
  2 29  1  0  0  0  0
  3 30  1  0  0  0  0
  4 31  1  0  0  0  0
  5 32  1  0  0  0  0
  6 33  1  0  0  0  0
  7 34  1  0  0  0  0
  8 35  1  0  0  0  0
  9 36  1  0  0  0  0
 15 37  1  0  0  0  0
 16 38  1  0  0  0  0
 17 39  1  0  0  0  0
 18 40  1  0  0  0  0
 20 41  1  0  0  0  0
 20 42  1  0  0  0  0
 20 43  1  0  0  0  0
 21 44  1  0  0  0  0
 21 45  1  0  0  0  0
 22 46  1  0  0  0  0
 26 47  1  0  0  0  0
M  END
> <clash_score>
0

> <docking_score>
-9.371936798095703

> <overlap_score>
0.9608623385429382

$$$$
BENZO_321_2
  -OEChem-08222022193D

 47 50  0     1  0  0  0  0  0999 V2000
   12.9427    3.5803   21.5528 C   0  0  0  0  0  0  0  0  0  0  0  0
   13.2971    2.5494   22.4231 C   0  0  0  0  0  0  0  0  0  0  0  0
   11.5975    3.8801   21.3380 C   0  0  0  0  0  0  0  0  0  0  0  0
   12.3064    1.8183   23.0784 C   0  0  0  0  0  0  0  0  0  0  0  0
   10.6067    3.1489   21.9933 C   0  0  0  0  0  0  0  0  0  0  0  0
    8.9960   -2.3380   25.5320 C   0  0  0  0  0  0  0  0  0  0  0  0
    9.6730   -3.4710   23.5300 C   0  0  0  0  0  0  0  0  0  0  0  0
    9.0720   -1.1280   24.8640 C   0  0  0  0  0  0  0  0  0  0  0  0
    9.7200   -2.2600   22.8630 C   0  0  0  0  0  0  0  0  0  0  0  0
    9.3070   -3.5340   24.8780 C   0  0  0  0  0  0  0  0  0  0  0  0
   10.9611    2.1180   22.8635 C   0  0  0  0  0  0  0  0  0  0  0  0
    9.3350   -1.0880   23.5010 C   0  0  0  0  0  0  0  0  0  0  0  0
    5.8300    0.9190   18.6970 C   0  0  0  0  0  0  0  0  0  0  0  0
    7.3170   -0.1610   19.8550 C   0  0  0  0  0  0  0  0  0  0  0  0
    4.6890    1.6810   18.4640 C   0  0  0  0  0  0  0  0  0  0  0  0
    3.9160    2.0630   19.5520 C   0  0  0  0  0  0  0  0  0  0  0  0
    4.2750    1.7050   20.8490 C   0  0  0  0  0  0  0  0  0  0  0  0
    5.4210    0.9600   21.0930 C   0  0  0  0  0  0  0  0  0  0  0  0
    9.0420    0.3700   21.5280 C   0  0  0  0  0  0  0  0  0  0  0  0
    9.2507   -4.8268   25.5895 C   0  0  0  0  0  0  0  0  0  0  0  0
    9.8870    1.3260   23.5730 C   0  0  0  0  0  0  0  0  0  0  0  0
    9.4560    0.1560   22.8130 C   0  0  2  0  0  0  0  0  0  0  0  0
    6.7580    0.3810   17.8350 N   0  0  0  0  0  0  0  0  0  0  0  0
    7.6390   -0.2680   18.5410 N   0  0  0  0  0  0  0  0  0  0  0  0
    6.1790    0.5730   19.9990 N   0  0  0  0  0  0  0  0  0  0  0  0
    8.1890   -0.7180   20.8700 N   0  0  0  0  0  0  0  0  0  0  0  0
    9.2690    1.4140   20.9380 O   0  0  0  0  0  0  0  0  0  0  0  0
   13.7143    4.1504   21.0437 H   0  0  0  0  0  0  0  0  0  0  0  0
   14.3446    2.3166   22.5913 H   0  0  0  0  0  0  0  0  0  0  0  0
   11.3212    4.6833   20.6614 H   0  0  0  0  0  0  0  0  0  0  0  0
   12.5919    1.0167   23.7545 H   0  0  0  0  0  0  0  0  0  0  0  0
    9.5611    3.3895   21.8196 H   0  0  0  0  0  0  0  0  0  0  0  0
    8.6904   -2.3557   26.5808 H   0  0  0  0  0  0  0  0  0  0  0  0
    9.9249   -4.3911   22.9935 H   0  0  0  0  0  0  0  0  0  0  0  0
    8.9209   -0.1987   25.4207 H   0  0  0  0  0  0  0  0  0  0  0  0
   10.0640   -2.2315   21.8255 H   0  0  0  0  0  0  0  0  0  0  0  0
    4.3967    1.9772   17.4718 H   0  0  0  0  0  0  0  0  0  0  0  0
    3.0218    2.6486   19.3697 H   0  0  0  0  0  0  0  0  0  0  0  0
    3.6566    2.0043   21.7065 H   0  0  0  0  0  0  0  0  0  0  0  0
    5.7190    0.6877   22.0810 H   0  0  0  0  0  0  0  0  0  0  0  0
    8.2506   -5.2684   25.5009 H   0  0  0  0  0  0  0  0  0  0  0  0
    9.9820   -5.5375   25.1832 H   0  0  0  0  0  0  0  0  0  0  0  0
    9.4843   -4.7055   26.6554 H   0  0  0  0  0  0  0  0  0  0  0  0
   10.2455    1.0419   24.5710 H   0  0  0  0  0  0  0  0  0  0  0  0
    9.0345    1.9965   23.7496 H   0  0  0  0  0  0  0  0  0  0  0  0
   10.7927   -0.1029   22.4279 H   0  0  0  0  0  0  0  0  0  0  0  0
    8.2385   -1.5646   21.0947 H   0  0  0  0  0  0  0  0  0  0  0  0
  1  2  1  0  0  0  0
  1  3  2  0  0  0  0
  2  4  2  0  0  0  0
  3  5  1  0  0  0  0
  4 11  1  0  0  0  0
  5 11  2  0  0  0  0
  6  8  2  0  0  0  0
  6 10  1  0  0  0  0
  7  9  1  0  0  0  0
  7 10  2  0  0  0  0
  8 12  1  0  0  0  0
  9 12  2  0  0  0  0
 10 20  1  0  0  0  0
 11 21  1  0  0  0  0
 12 22  1  0  0  0  0
 13 15  1  0  0  0  0
 13 23  2  0  0  0  0
 13 25  1  0  0  0  0
 14 24  2  0  0  0  0
 14 25  1  0  0  0  0
 14 26  1  0  0  0  0
 15 16  2  0  0  0  0
 16 17  1  0  0  0  0
 17 18  2  0  0  0  0
 18 25  1  0  0  0  0
 19 22  1  0  0  0  0
 19 26  1  0  0  0  0
 19 27  2  0  0  0  0
 21 22  1  6  0  0  0
 23 24  1  0  0  0  0
  1 28  1  0  0  0  0
  2 29  1  0  0  0  0
  3 30  1  0  0  0  0
  4 31  1  0  0  0  0
  5 32  1  0  0  0  0
  6 33  1  0  0  0  0
  7 34  1  0  0  0  0
  8 35  1  0  0  0  0
  9 36  1  0  0  0  0
 15 37  1  0  0  0  0
 16 38  1  0  0  0  0
 17 39  1  0  0  0  0
 18 40  1  0  0  0  0
 20 41  1  0  0  0  0
 20 42  1  0  0  0  0
 20 43  1  0  0  0  0
 21 44  1  0  0  0  0
 21 45  1  0  0  0  0
 22 46  1  0  0  0  0
 26 47  1  0  0  0  0
M  END
> <clash_score>
0.6163884898919225

> <docking_score>
-9.29212760925293

> <overlap_score>
0.9163943529129028

$$$$
BENZO_318_1
  -OEChem-08222022193D

 59 63  0     1  0  0  0  0  0999 V2000
   13.2943    2.5807   22.4505 C   0  0  0  0  0  0  0  0  0  0  0  0
   12.3047    1.8379   23.0944 C   0  0  0  0  0  0  0  0  0  0  0  0
    9.0720   -1.1280   24.8640 C   0  0  0  0  0  0  0  0  0  0  0  0
    9.7200   -2.2600   22.8630 C   0  0  0  0  0  0  0  0  0  0  0  0
    8.9960   -2.3380   25.5320 C   0  0  0  0  0  0  0  0  0  0  0  0
    9.6730   -3.4710   23.5300 C   0  0  0  0  0  0  0  0  0  0  0  0
   12.9381    3.6176   21.5882 C   0  0  0  0  0  0  0  0  0  0  0  0
   10.6025    3.1690   22.0135 C   0  0  0  0  0  0  0  0  0  0  0  0
    9.3350   -1.0880   23.5010 C   0  0  0  0  0  0  0  0  0  0  0  0
   10.9588    2.1321   22.8759 C   0  0  0  0  0  0  0  0  0  0  0  0
    9.3070   -3.5340   24.8780 C   0  0  0  0  0  0  0  0  0  0  0  0
   11.5922    3.9117   21.3697 C   0  0  0  0  0  0  0  0  0  0  0  0
    5.8300    0.9190   18.6970 C   0  0  0  0  0  0  0  0  0  0  0  0
    7.3170   -0.1610   19.8550 C   0  0  0  0  0  0  0  0  0  0  0  0
    4.6890    1.6810   18.4640 C   0  0  0  0  0  0  0  0  0  0  0  0
    3.9160    2.0630   19.5520 C   0  0  0  0  0  0  0  0  0  0  0  0
    4.2750    1.7050   20.8490 C   0  0  0  0  0  0  0  0  0  0  0  0
    5.4210    0.9600   21.0930 C   0  0  0  0  0  0  0  0  0  0  0  0
    9.0420    0.3700   21.5280 C   0  0  0  0  0  0  0  0  0  0  0  0
    7.3637   -6.1365   27.1885 C   0  0  0  0  0  0  0  0  0  0  0  0
    8.1962   -4.9739   27.7340 C   0  0  0  0  0  0  0  0  0  0  0  0
    7.1943   -6.0395   25.6706 C   0  0  0  0  0  0  0  0  0  0  0  0
    9.5197   -4.8493   26.9795 C   0  0  0  0  0  0  0  0  0  0  0  0
    8.5443   -5.8838   24.9636 C   0  0  0  0  0  0  0  0  0  0  0  0
    9.8870    1.3260   23.5730 C   0  0  0  0  0  0  0  0  0  0  0  0
    9.4560    0.1560   22.8130 C   0  0  1  0  0  0  0  0  0  0  0  0
    6.7580    0.3810   17.8350 N   0  0  0  0  0  0  0  0  0  0  0  0
    7.6390   -0.2680   18.5410 N   0  0  0  0  0  0  0  0  0  0  0  0
    6.1790    0.5730   19.9990 N   0  0  0  0  0  0  0  0  0  0  0  0
    9.2563   -4.7385   25.5420 N   0  0  0  0  0  0  0  0  0  0  0  0
    8.1890   -0.7180   20.8700 N   0  0  0  0  0  0  0  0  0  0  0  0
    9.2690    1.4140   20.9380 O   0  0  0  0  0  0  0  0  0  0  0  0
   11.1532    5.1904   20.3048 Cl  0  0  0  0  0  0  0  0  0  0  0  0
   14.3422    2.3512   22.6208 H   0  0  0  0  0  0  0  0  0  0  0  0
   12.5914    1.0317   23.7645 H   0  0  0  0  0  0  0  0  0  0  0  0
    8.9214   -0.1986   25.4206 H   0  0  0  0  0  0  0  0  0  0  0  0
   10.0622   -2.2326   21.8251 H   0  0  0  0  0  0  0  0  0  0  0  0
    8.6882   -2.3542   26.5803 H   0  0  0  0  0  0  0  0  0  0  0  0
    9.9258   -4.3896   22.9914 H   0  0  0  0  0  0  0  0  0  0  0  0
   13.7201    4.1879   21.0929 H   0  0  0  0  0  0  0  0  0  0  0  0
    9.5518    3.3947   21.8469 H   0  0  0  0  0  0  0  0  0  0  0  0
    4.3967    1.9772   17.4718 H   0  0  0  0  0  0  0  0  0  0  0  0
    3.0218    2.6486   19.3697 H   0  0  0  0  0  0  0  0  0  0  0  0
    3.6566    2.0043   21.7065 H   0  0  0  0  0  0  0  0  0  0  0  0
    5.7190    0.6877   22.0810 H   0  0  0  0  0  0  0  0  0  0  0  0
    7.8484   -7.0905   27.4464 H   0  0  0  0  0  0  0  0  0  0  0  0
    6.3761   -6.1442   27.6721 H   0  0  0  0  0  0  0  0  0  0  0  0
    7.6308   -4.0428   27.6404 H   0  0  0  0  0  0  0  0  0  0  0  0
    8.3917   -5.1316   28.7967 H   0  0  0  0  0  0  0  0  0  0  0  0
    6.6889   -6.9376   25.3006 H   0  0  0  0  0  0  0  0  0  0  0  0
    6.5516   -5.1860   25.4256 H   0  0  0  0  0  0  0  0  0  0  0  0
   10.0494   -3.9643   27.3413 H   0  0  0  0  0  0  0  0  0  0  0  0
   10.1432   -5.7258   27.1775 H   0  0  0  0  0  0  0  0  0  0  0  0
    9.1338   -6.7931   25.0863 H   0  0  0  0  0  0  0  0  0  0  0  0
    8.3657   -5.7262   23.8995 H   0  0  0  0  0  0  0  0  0  0  0  0
   10.2417    1.0375   24.5711 H   0  0  0  0  0  0  0  0  0  0  0  0
    9.0279    1.9881   23.7492 H   0  0  0  0  0  0  0  0  0  0  0  0
   10.7949   -0.0994   22.4253 H   0  0  0  0  0  0  0  0  0  0  0  0
    8.2585   -1.5522   21.1129 H   0  0  0  0  0  0  0  0  0  0  0  0
  1  2  2  0  0  0  0
  1  7  1  0  0  0  0
  2 10  1  0  0  0  0
  3  5  2  0  0  0  0
  3  9  1  0  0  0  0
  4  6  1  0  0  0  0
  4  9  2  0  0  0  0
  5 11  1  0  0  0  0
  6 11  2  0  0  0  0
  7 12  2  0  0  0  0
  8 10  2  0  0  0  0
  8 12  1  0  0  0  0
  9 26  1  0  0  0  0
 10 25  1  0  0  0  0
 11 30  1  0  0  0  0
 12 33  1  0  0  0  0
 13 15  1  0  0  0  0
 13 27  2  0  0  0  0
 13 29  1  0  0  0  0
 14 28  2  0  0  0  0
 14 29  1  0  0  0  0
 14 31  1  0  0  0  0
 15 16  2  0  0  0  0
 16 17  1  0  0  0  0
 17 18  2  0  0  0  0
 18 29  1  0  0  0  0
 19 26  1  1  0  0  0
 19 31  1  0  0  0  0
 19 32  2  0  0  0  0
 20 21  1  0  0  0  0
 20 22  1  0  0  0  0
 21 23  1  0  0  0  0
 22 24  1  0  0  0  0
 23 30  1  0  0  0  0
 24 30  1  0  0  0  0
 25 26  1  0  0  0  0
 27 28  1  0  0  0  0
  1 34  1  0  0  0  0
  2 35  1  0  0  0  0
  3 36  1  0  0  0  0
  4 37  1  0  0  0  0
  5 38  1  0  0  0  0
  6 39  1  0  0  0  0
  7 40  1  0  0  0  0
  8 41  1  0  0  0  0
 15 42  1  0  0  0  0
 16 43  1  0  0  0  0
 17 44  1  0  0  0  0
 18 45  1  0  0  0  0
 20 46  1  0  0  0  0
 20 47  1  0  0  0  0
 21 48  1  0  0  0  0
 21 49  1  0  0  0  0
 22 50  1  0  0  0  0
 22 51  1  0  0  0  0
 23 52  1  0  0  0  0
 23 53  1  0  0  0  0
 24 54  1  0  0  0  0
 24 55  1  0  0  0  0
 25 56  1  0  0  0  0
 25 57  1  0  0  0  0
 26 58  1  0  0  0  0
 31 59  1  0  0  0  0
M  END
> <clash_score>
2.1999107557461057

> <docking_score>
-8.361544609069824

> <overlap_score>
0.9694707989692688

$$$$
BENZO_320_1
  -OEChem-08222022193D

 44 47  0     1  0  0  0  0  0999 V2000
    8.9960   -2.3380   25.5320 C   0  0  0  0  0  0  0  0  0  0  0  0
    9.6730   -3.4710   23.5300 C   0  0  0  0  0  0  0  0  0  0  0  0
    9.0720   -1.1280   24.8640 C   0  0  0  0  0  0  0  0  0  0  0  0
    9.7200   -2.2600   22.8630 C   0  0  0  0  0  0  0  0  0  0  0  0
   12.3398    0.5029   23.4216 C   0  0  0  0  0  0  0  0  0  0  0  0
   13.6291    0.9843   23.3622 C   0  0  0  0  0  0  0  0  0  0  0  0
   11.9713    2.7968   23.4917 C   0  0  0  0  0  0  0  0  0  0  0  0
    9.3070   -3.5340   24.8780 C   0  0  0  0  0  0  0  0  0  0  0  0
    9.3350   -1.0880   23.5010 C   0  0  0  0  0  0  0  0  0  0  0  0
   11.3794    1.5528   23.4964 C   0  0  0  0  0  0  0  0  0  0  0  0
    5.8300    0.9190   18.6970 C   0  0  0  0  0  0  0  0  0  0  0  0
    7.3170   -0.1610   19.8550 C   0  0  0  0  0  0  0  0  0  0  0  0
    4.6890    1.6810   18.4640 C   0  0  0  0  0  0  0  0  0  0  0  0
    3.9160    2.0630   19.5520 C   0  0  0  0  0  0  0  0  0  0  0  0
    4.2750    1.7050   20.8490 C   0  0  0  0  0  0  0  0  0  0  0  0
    5.4210    0.9600   21.0930 C   0  0  0  0  0  0  0  0  0  0  0  0
    9.0420    0.3700   21.5280 C   0  0  0  0  0  0  0  0  0  0  0  0
    9.2507   -4.8268   25.5895 C   0  0  0  0  0  0  0  0  0  0  0  0
    9.8870    1.3260   23.5730 C   0  0  0  0  0  0  0  0  0  0  0  0
    9.4560    0.1560   22.8130 C   0  0  1  0  0  0  0  0  0  0  0  0
    6.7580    0.3810   17.8350 N   0  0  0  0  0  0  0  0  0  0  0  0
    7.6390   -0.2680   18.5410 N   0  0  0  0  0  0  0  0  0  0  0  0
    6.1790    0.5730   19.9990 N   0  0  0  0  0  0  0  0  0  0  0  0
    8.1890   -0.7180   20.8700 N   0  0  0  0  0  0  0  0  0  0  0  0
    9.2690    1.4140   20.9380 O   0  0  0  0  0  0  0  0  0  0  0  0
   13.6781    2.6957   23.3969 S   0  0  0  0  0  0  0  0  0  0  0  0
    8.6904   -2.3557   26.5808 H   0  0  0  0  0  0  0  0  0  0  0  0
    9.9249   -4.3911   22.9935 H   0  0  0  0  0  0  0  0  0  0  0  0
    8.9209   -0.1987   25.4207 H   0  0  0  0  0  0  0  0  0  0  0  0
   10.0640   -2.2315   21.8255 H   0  0  0  0  0  0  0  0  0  0  0  0
   12.1014   -0.5532   23.4119 H   0  0  0  0  0  0  0  0  0  0  0  0
   14.5445    0.4131   23.3009 H   0  0  0  0  0  0  0  0  0  0  0  0
   11.4871    3.7623   23.5403 H   0  0  0  0  0  0  0  0  0  0  0  0
    4.3967    1.9772   17.4718 H   0  0  0  0  0  0  0  0  0  0  0  0
    3.0218    2.6486   19.3697 H   0  0  0  0  0  0  0  0  0  0  0  0
    3.6566    2.0043   21.7065 H   0  0  0  0  0  0  0  0  0  0  0  0
    5.7190    0.6877   22.0810 H   0  0  0  0  0  0  0  0  0  0  0  0
    8.2506   -5.2684   25.5009 H   0  0  0  0  0  0  0  0  0  0  0  0
    9.9820   -5.5375   25.1832 H   0  0  0  0  0  0  0  0  0  0  0  0
    9.4843   -4.7055   26.6554 H   0  0  0  0  0  0  0  0  0  0  0  0
    9.5854    1.2495   24.6258 H   0  0  0  0  0  0  0  0  0  0  0  0
    9.3886    2.2282   23.1920 H   0  0  0  0  0  0  0  0  0  0  0  0
    8.0686    0.4964   23.2745 H   0  0  0  0  0  0  0  0  0  0  0  0
    8.2385   -1.5646   21.0947 H   0  0  0  0  0  0  0  0  0  0  0  0
  1  3  2  0  0  0  0
  1  8  1  0  0  0  0
  2  4  1  0  0  0  0
  2  8  2  0  0  0  0
  3  9  1  0  0  0  0
  4  9  2  0  0  0  0
  5  6  2  0  0  0  0
  5 10  1  0  0  0  0
  6 26  1  0  0  0  0
  7 10  2  0  0  0  0
  7 26  1  0  0  0  0
  8 18  1  0  0  0  0
  9 20  1  0  0  0  0
 10 19  1  0  0  0  0
 11 13  1  0  0  0  0
 11 21  2  0  0  0  0
 11 23  1  0  0  0  0
 12 22  2  0  0  0  0
 12 23  1  0  0  0  0
 12 24  1  0  0  0  0
 13 14  2  0  0  0  0
 14 15  1  0  0  0  0
 15 16  2  0  0  0  0
 16 23  1  0  0  0  0
 17 20  1  0  0  0  0
 17 24  1  0  0  0  0
 17 25  2  0  0  0  0
 19 20  1  1  0  0  0
 21 22  1  0  0  0  0
  1 27  1  0  0  0  0
  2 28  1  0  0  0  0
  3 29  1  0  0  0  0
  4 30  1  0  0  0  0
  5 31  1  0  0  0  0
  6 32  1  0  0  0  0
  7 33  1  0  0  0  0
 13 34  1  0  0  0  0
 14 35  1  0  0  0  0
 15 36  1  0  0  0  0
 16 37  1  0  0  0  0
 18 38  1  0  0  0  0
 18 39  1  0  0  0  0
 18 40  1  0  0  0  0
 19 41  1  0  0  0  0
 19 42  1  0  0  0  0
 20 43  1  0  0  0  0
 24 44  1  0  0  0  0
M  END
> <clash_score>
0

> <docking_score>
-9.836116790771484

> <overlap_score>
0.9454271197319031

$$$$
BENZO_320_2
  -OEChem-08222022193D

 44 47  0     1  0  0  0  0  0999 V2000
    8.9960   -2.3380   25.5320 C   0  0  0  0  0  0  0  0  0  0  0  0
    9.6730   -3.4710   23.5300 C   0  0  0  0  0  0  0  0  0  0  0  0
    9.0720   -1.1280   24.8640 C   0  0  0  0  0  0  0  0  0  0  0  0
    9.7200   -2.2600   22.8630 C   0  0  0  0  0  0  0  0  0  0  0  0
   12.3907    0.6679   23.6950 C   0  0  0  0  0  0  0  0  0  0  0  0
   13.4189    0.5308   24.6014 C   0  0  0  0  0  0  0  0  0  0  0  0
   11.3314    1.2632   25.6764 C   0  0  0  0  0  0  0  0  0  0  0  0
    9.3070   -3.5340   24.8780 C   0  0  0  0  0  0  0  0  0  0  0  0
    9.3350   -1.0880   23.5010 C   0  0  0  0  0  0  0  0  0  0  0  0
   11.1814    1.0923   24.3176 C   0  0  0  0  0  0  0  0  0  0  0  0
    5.8300    0.9190   18.6970 C   0  0  0  0  0  0  0  0  0  0  0  0
    7.3170   -0.1610   19.8550 C   0  0  0  0  0  0  0  0  0  0  0  0
    4.6890    1.6810   18.4640 C   0  0  0  0  0  0  0  0  0  0  0  0
    3.9160    2.0630   19.5520 C   0  0  0  0  0  0  0  0  0  0  0  0
    4.2750    1.7050   20.8490 C   0  0  0  0  0  0  0  0  0  0  0  0
    5.4210    0.9600   21.0930 C   0  0  0  0  0  0  0  0  0  0  0  0
    9.0420    0.3700   21.5280 C   0  0  0  0  0  0  0  0  0  0  0  0
    9.2507   -4.8268   25.5895 C   0  0  0  0  0  0  0  0  0  0  0  0
    9.8870    1.3260   23.5730 C   0  0  0  0  0  0  0  0  0  0  0  0
    9.4560    0.1560   22.8130 C   0  0  2  0  0  0  0  0  0  0  0  0
    6.7580    0.3810   17.8350 N   0  0  0  0  0  0  0  0  0  0  0  0
    7.6390   -0.2680   18.5410 N   0  0  0  0  0  0  0  0  0  0  0  0
    6.1790    0.5730   19.9990 N   0  0  0  0  0  0  0  0  0  0  0  0
    8.1890   -0.7180   20.8700 N   0  0  0  0  0  0  0  0  0  0  0  0
    9.2690    1.4140   20.9380 O   0  0  0  0  0  0  0  0  0  0  0  0
   12.9250    0.9128   26.1959 S   0  0  0  0  0  0  0  0  0  0  0  0
    8.6904   -2.3557   26.5808 H   0  0  0  0  0  0  0  0  0  0  0  0
    9.9249   -4.3911   22.9935 H   0  0  0  0  0  0  0  0  0  0  0  0
    8.9209   -0.1987   25.4207 H   0  0  0  0  0  0  0  0  0  0  0  0
   10.0640   -2.2315   21.8255 H   0  0  0  0  0  0  0  0  0  0  0  0
   12.5049    0.4716   22.6364 H   0  0  0  0  0  0  0  0  0  0  0  0
   14.4362    0.2239   24.4037 H   0  0  0  0  0  0  0  0  0  0  0  0
   10.5839    1.5757   26.3924 H   0  0  0  0  0  0  0  0  0  0  0  0
    4.3967    1.9772   17.4718 H   0  0  0  0  0  0  0  0  0  0  0  0
    3.0218    2.6486   19.3697 H   0  0  0  0  0  0  0  0  0  0  0  0
    3.6566    2.0043   21.7065 H   0  0  0  0  0  0  0  0  0  0  0  0
    5.7190    0.6877   22.0810 H   0  0  0  0  0  0  0  0  0  0  0  0
    8.2506   -5.2684   25.5009 H   0  0  0  0  0  0  0  0  0  0  0  0
    9.9820   -5.5375   25.1832 H   0  0  0  0  0  0  0  0  0  0  0  0
    9.4843   -4.7055   26.6554 H   0  0  0  0  0  0  0  0  0  0  0  0
    9.1131    1.6463   24.2828 H   0  0  0  0  0  0  0  0  0  0  0  0
   10.0354    2.1807   22.8984 H   0  0  0  0  0  0  0  0  0  0  0  0
   10.7927   -0.1029   22.4279 H   0  0  0  0  0  0  0  0  0  0  0  0
    8.2385   -1.5646   21.0947 H   0  0  0  0  0  0  0  0  0  0  0  0
  1  3  2  0  0  0  0
  1  8  1  0  0  0  0
  2  4  1  0  0  0  0
  2  8  2  0  0  0  0
  3  9  1  0  0  0  0
  4  9  2  0  0  0  0
  5  6  2  0  0  0  0
  5 10  1  0  0  0  0
  6 26  1  0  0  0  0
  7 10  2  0  0  0  0
  7 26  1  0  0  0  0
  8 18  1  0  0  0  0
  9 20  1  0  0  0  0
 10 19  1  0  0  0  0
 11 13  1  0  0  0  0
 11 21  2  0  0  0  0
 11 23  1  0  0  0  0
 12 22  2  0  0  0  0
 12 23  1  0  0  0  0
 12 24  1  0  0  0  0
 13 14  2  0  0  0  0
 14 15  1  0  0  0  0
 15 16  2  0  0  0  0
 16 23  1  0  0  0  0
 17 20  1  0  0  0  0
 17 24  1  0  0  0  0
 17 25  2  0  0  0  0
 19 20  1  6  0  0  0
 21 22  1  0  0  0  0
  1 27  1  0  0  0  0
  2 28  1  0  0  0  0
  3 29  1  0  0  0  0
  4 30  1  0  0  0  0
  5 31  1  0  0  0  0
  6 32  1  0  0  0  0
  7 33  1  0  0  0  0
 13 34  1  0  0  0  0
 14 35  1  0  0  0  0
 15 36  1  0  0  0  0
 16 37  1  0  0  0  0
 18 38  1  0  0  0  0
 18 39  1  0  0  0  0
 18 40  1  0  0  0  0
 19 41  1  0  0  0  0
 19 42  1  0  0  0  0
 20 43  1  0  0  0  0
 24 44  1  0  0  0  0
M  END
> <clash_score>
0.6216871897272661

> <docking_score>
-7.721956253051758

> <overlap_score>
0.8681577444076538

$$$$
BENZO_319_2
  -OEChem-08222022193D

 59 63  0     1  0  0  0  0  0999 V2000
    9.0720   -1.1280   24.8640 C   0  0  0  0  0  0  0  0  0  0  0  0
    9.7200   -2.2600   22.8630 C   0  0  0  0  0  0  0  0  0  0  0  0
    8.9960   -2.3380   25.5320 C   0  0  0  0  0  0  0  0  0  0  0  0
    9.6730   -3.4710   23.5300 C   0  0  0  0  0  0  0  0  0  0  0  0
   12.3549    1.9792   22.9728 C   0  0  0  0  0  0  0  0  0  0  0  0
   10.7877    3.1780   22.0023 C   0  0  0  0  0  0  0  0  0  0  0  0
    9.3350   -1.0880   23.5010 C   0  0  0  0  0  0  0  0  0  0  0  0
   10.9588    2.1321   22.8759 C   0  0  0  0  0  0  0  0  0  0  0  0
    9.3070   -3.5340   24.8780 C   0  0  0  0  0  0  0  0  0  0  0  0
    5.8300    0.9190   18.6970 C   0  0  0  0  0  0  0  0  0  0  0  0
    7.3170   -0.1610   19.8550 C   0  0  0  0  0  0  0  0  0  0  0  0
    4.6890    1.6810   18.4640 C   0  0  0  0  0  0  0  0  0  0  0  0
    3.9160    2.0630   19.5520 C   0  0  0  0  0  0  0  0  0  0  0  0
    4.2750    1.7050   20.8490 C   0  0  0  0  0  0  0  0  0  0  0  0
    5.4210    0.9600   21.0930 C   0  0  0  0  0  0  0  0  0  0  0  0
    9.0420    0.3700   21.5280 C   0  0  0  0  0  0  0  0  0  0  0  0
    7.3637   -6.1365   27.1885 C   0  0  0  0  0  0  0  0  0  0  0  0
    8.1962   -4.9739   27.7340 C   0  0  0  0  0  0  0  0  0  0  0  0
    7.1943   -6.0395   25.6706 C   0  0  0  0  0  0  0  0  0  0  0  0
    9.5197   -4.8493   26.9795 C   0  0  0  0  0  0  0  0  0  0  0  0
    8.5443   -5.8838   24.9636 C   0  0  0  0  0  0  0  0  0  0  0  0
   12.3765    4.6444   20.7357 C   0  0  0  0  0  0  0  0  0  0  0  0
    9.8870    1.3260   23.5730 C   0  0  0  0  0  0  0  0  0  0  0  0
    9.4560    0.1560   22.8130 C   0  0  2  0  0  0  0  0  0  0  0  0
   13.0232    2.8576   22.2206 N   0  0  0  0  0  0  0  0  0  0  0  0
    6.7580    0.3810   17.8350 N   0  0  0  0  0  0  0  0  0  0  0  0
    7.6390   -0.2680   18.5410 N   0  0  0  0  0  0  0  0  0  0  0  0
   12.0428    3.5725   21.6427 N   0  0  0  0  0  0  0  0  0  0  0  0
    6.1790    0.5730   19.9990 N   0  0  0  0  0  0  0  0  0  0  0  0
    9.2563   -4.7385   25.5420 N   0  0  0  0  0  0  0  0  0  0  0  0
    8.1890   -0.7180   20.8700 N   0  0  0  0  0  0  0  0  0  0  0  0
    9.2690    1.4140   20.9380 O   0  0  0  0  0  0  0  0  0  0  0  0
    8.9214   -0.1986   25.4206 H   0  0  0  0  0  0  0  0  0  0  0  0
   10.0622   -2.2326   21.8251 H   0  0  0  0  0  0  0  0  0  0  0  0
    8.6882   -2.3542   26.5803 H   0  0  0  0  0  0  0  0  0  0  0  0
    9.9258   -4.3896   22.9914 H   0  0  0  0  0  0  0  0  0  0  0  0
   12.9154    1.2645   23.5587 H   0  0  0  0  0  0  0  0  0  0  0  0
    9.9018    3.6623   21.6145 H   0  0  0  0  0  0  0  0  0  0  0  0
    4.3967    1.9772   17.4718 H   0  0  0  0  0  0  0  0  0  0  0  0
    3.0218    2.6486   19.3697 H   0  0  0  0  0  0  0  0  0  0  0  0
    3.6566    2.0043   21.7065 H   0  0  0  0  0  0  0  0  0  0  0  0
    5.7190    0.6877   22.0810 H   0  0  0  0  0  0  0  0  0  0  0  0
    7.8484   -7.0905   27.4464 H   0  0  0  0  0  0  0  0  0  0  0  0
    6.3761   -6.1442   27.6721 H   0  0  0  0  0  0  0  0  0  0  0  0
    7.6308   -4.0428   27.6404 H   0  0  0  0  0  0  0  0  0  0  0  0
    8.3917   -5.1316   28.7967 H   0  0  0  0  0  0  0  0  0  0  0  0
    6.6889   -6.9376   25.3006 H   0  0  0  0  0  0  0  0  0  0  0  0
    6.5516   -5.1860   25.4256 H   0  0  0  0  0  0  0  0  0  0  0  0
   10.0494   -3.9643   27.3413 H   0  0  0  0  0  0  0  0  0  0  0  0
   10.1432   -5.7258   27.1775 H   0  0  0  0  0  0  0  0  0  0  0  0
    9.1338   -6.7931   25.0863 H   0  0  0  0  0  0  0  0  0  0  0  0
    8.3657   -5.7262   23.8995 H   0  0  0  0  0  0  0  0  0  0  0  0
   12.4726    5.5632   21.3202 H   0  0  0  0  0  0  0  0  0  0  0  0
   13.3178    4.4131   20.2294 H   0  0  0  0  0  0  0  0  0  0  0  0
   11.5839    4.7460   19.9892 H   0  0  0  0  0  0  0  0  0  0  0  0
   10.2417    1.0375   24.5711 H   0  0  0  0  0  0  0  0  0  0  0  0
    9.0279    1.9881   23.7492 H   0  0  0  0  0  0  0  0  0  0  0  0
   10.7949   -0.0994   22.4253 H   0  0  0  0  0  0  0  0  0  0  0  0
    8.2585   -1.5522   21.1129 H   0  0  0  0  0  0  0  0  0  0  0  0
  1  3  2  0  0  0  0
  1  7  1  0  0  0  0
  2  4  1  0  0  0  0
  2  7  2  0  0  0  0
  3  9  1  0  0  0  0
  4  9  2  0  0  0  0
  5  8  1  0  0  0  0
  5 25  2  0  0  0  0
  6  8  2  0  0  0  0
  6 28  1  0  0  0  0
  7 24  1  0  0  0  0
  8 23  1  0  0  0  0
  9 30  1  0  0  0  0
 10 12  1  0  0  0  0
 10 26  2  0  0  0  0
 10 29  1  0  0  0  0
 11 27  2  0  0  0  0
 11 29  1  0  0  0  0
 11 31  1  0  0  0  0
 12 13  2  0  0  0  0
 13 14  1  0  0  0  0
 14 15  2  0  0  0  0
 15 29  1  0  0  0  0
 16 24  1  0  0  0  0
 16 31  1  0  0  0  0
 16 32  2  0  0  0  0
 17 18  1  0  0  0  0
 17 19  1  0  0  0  0
 18 20  1  0  0  0  0
 19 21  1  0  0  0  0
 20 30  1  0  0  0  0
 21 30  1  0  0  0  0
 22 28  1  0  0  0  0
 23 24  1  6  0  0  0
 25 28  1  0  0  0  0
 26 27  1  0  0  0  0
  1 33  1  0  0  0  0
  2 34  1  0  0  0  0
  3 35  1  0  0  0  0
  4 36  1  0  0  0  0
  5 37  1  0  0  0  0
  6 38  1  0  0  0  0
 12 39  1  0  0  0  0
 13 40  1  0  0  0  0
 14 41  1  0  0  0  0
 15 42  1  0  0  0  0
 17 43  1  0  0  0  0
 17 44  1  0  0  0  0
 18 45  1  0  0  0  0
 18 46  1  0  0  0  0
 19 47  1  0  0  0  0
 19 48  1  0  0  0  0
 20 49  1  0  0  0  0
 20 50  1  0  0  0  0
 21 51  1  0  0  0  0
 21 52  1  0  0  0  0
 22 53  1  0  0  0  0
 22 54  1  0  0  0  0
 22 55  1  0  0  0  0
 23 56  1  0  0  0  0
 23 57  1  0  0  0  0
 24 58  1  0  0  0  0
 31 59  1  0  0  0  0
M  END
> <clash_score>
0

> <docking_score>
-7.8349609375

> <overlap_score>
0.9639798402786255

$$$$
BENZO_318_2
  -OEChem-08222022193D

 59 63  0     1  0  0  0  0  0999 V2000
   13.6270    0.7091   23.2981 C   0  0  0  0  0  0  0  0  0  0  0  0
   12.2510    0.4886   23.3574 C   0  0  0  0  0  0  0  0  0  0  0  0
    9.0720   -1.1280   24.8640 C   0  0  0  0  0  0  0  0  0  0  0  0
    9.7200   -2.2600   22.8630 C   0  0  0  0  0  0  0  0  0  0  0  0
    8.9960   -2.3380   25.5320 C   0  0  0  0  0  0  0  0  0  0  0  0
    9.6730   -3.4710   23.5300 C   0  0  0  0  0  0  0  0  0  0  0  0
   14.1301    2.0068   23.3918 C   0  0  0  0  0  0  0  0  0  0  0  0
   11.8810    2.8633   23.6037 C   0  0  0  0  0  0  0  0  0  0  0  0
    9.3350   -1.0880   23.5010 C   0  0  0  0  0  0  0  0  0  0  0  0
   11.3780    1.5657   23.5101 C   0  0  0  0  0  0  0  0  0  0  0  0
    9.3070   -3.5340   24.8780 C   0  0  0  0  0  0  0  0  0  0  0  0
   13.2570    3.0839   23.5445 C   0  0  0  0  0  0  0  0  0  0  0  0
    5.8300    0.9190   18.6970 C   0  0  0  0  0  0  0  0  0  0  0  0
    7.3170   -0.1610   19.8550 C   0  0  0  0  0  0  0  0  0  0  0  0
    4.6890    1.6810   18.4640 C   0  0  0  0  0  0  0  0  0  0  0  0
    3.9160    2.0630   19.5520 C   0  0  0  0  0  0  0  0  0  0  0  0
    4.2750    1.7050   20.8490 C   0  0  0  0  0  0  0  0  0  0  0  0
    5.4210    0.9600   21.0930 C   0  0  0  0  0  0  0  0  0  0  0  0
    9.0420    0.3700   21.5280 C   0  0  0  0  0  0  0  0  0  0  0  0
    7.3637   -6.1365   27.1885 C   0  0  0  0  0  0  0  0  0  0  0  0
    8.1962   -4.9739   27.7340 C   0  0  0  0  0  0  0  0  0  0  0  0
    7.1943   -6.0395   25.6706 C   0  0  0  0  0  0  0  0  0  0  0  0
    9.5197   -4.8493   26.9795 C   0  0  0  0  0  0  0  0  0  0  0  0
    8.5443   -5.8838   24.9636 C   0  0  0  0  0  0  0  0  0  0  0  0
    9.8870    1.3260   23.5730 C   0  0  0  0  0  0  0  0  0  0  0  0
    9.4560    0.1560   22.8130 C   0  0  2  0  0  0  0  0  0  0  0  0
    6.7580    0.3810   17.8350 N   0  0  0  0  0  0  0  0  0  0  0  0
    7.6390   -0.2680   18.5410 N   0  0  0  0  0  0  0  0  0  0  0  0
    6.1790    0.5730   19.9990 N   0  0  0  0  0  0  0  0  0  0  0  0
    9.2563   -4.7385   25.5420 N   0  0  0  0  0  0  0  0  0  0  0  0
    8.1890   -0.7180   20.8700 N   0  0  0  0  0  0  0  0  0  0  0  0
    9.2690    1.4140   20.9380 O   0  0  0  0  0  0  0  0  0  0  0  0
   13.8782    4.6848   23.6588 Cl  0  0  0  0  0  0  0  0  0  0  0  0
   14.3065   -0.1299   23.1790 H   0  0  0  0  0  0  0  0  0  0  0  0
   11.8679   -0.5259   23.2835 H   0  0  0  0  0  0  0  0  0  0  0  0
    8.9214   -0.1986   25.4206 H   0  0  0  0  0  0  0  0  0  0  0  0
   10.0622   -2.2326   21.8251 H   0  0  0  0  0  0  0  0  0  0  0  0
    8.6882   -2.3542   26.5803 H   0  0  0  0  0  0  0  0  0  0  0  0
    9.9258   -4.3896   22.9914 H   0  0  0  0  0  0  0  0  0  0  0  0
   15.2048    2.1638   23.3438 H   0  0  0  0  0  0  0  0  0  0  0  0
   11.1962    3.6997   23.7233 H   0  0  0  0  0  0  0  0  0  0  0  0
    4.3967    1.9772   17.4718 H   0  0  0  0  0  0  0  0  0  0  0  0
    3.0218    2.6486   19.3697 H   0  0  0  0  0  0  0  0  0  0  0  0
    3.6566    2.0043   21.7065 H   0  0  0  0  0  0  0  0  0  0  0  0
    5.7190    0.6877   22.0810 H   0  0  0  0  0  0  0  0  0  0  0  0
    7.8484   -7.0905   27.4464 H   0  0  0  0  0  0  0  0  0  0  0  0
    6.3761   -6.1442   27.6721 H   0  0  0  0  0  0  0  0  0  0  0  0
    7.6308   -4.0428   27.6404 H   0  0  0  0  0  0  0  0  0  0  0  0
    8.3917   -5.1316   28.7967 H   0  0  0  0  0  0  0  0  0  0  0  0
    6.6889   -6.9376   25.3006 H   0  0  0  0  0  0  0  0  0  0  0  0
    6.5516   -5.1860   25.4256 H   0  0  0  0  0  0  0  0  0  0  0  0
   10.0494   -3.9643   27.3413 H   0  0  0  0  0  0  0  0  0  0  0  0
   10.1432   -5.7258   27.1775 H   0  0  0  0  0  0  0  0  0  0  0  0
    9.1338   -6.7931   25.0863 H   0  0  0  0  0  0  0  0  0  0  0  0
    8.3657   -5.7262   23.8995 H   0  0  0  0  0  0  0  0  0  0  0  0
    9.5760    1.2490   24.6231 H   0  0  0  0  0  0  0  0  0  0  0  0
    9.3844    2.2230   23.1853 H   0  0  0  0  0  0  0  0  0  0  0  0
    8.0674    0.5009   23.2732 H   0  0  0  0  0  0  0  0  0  0  0  0
    8.2585   -1.5522   21.1129 H   0  0  0  0  0  0  0  0  0  0  0  0
  1  2  2  0  0  0  0
  1  7  1  0  0  0  0
  2 10  1  0  0  0  0
  3  5  2  0  0  0  0
  3  9  1  0  0  0  0
  4  6  1  0  0  0  0
  4  9  2  0  0  0  0
  5 11  1  0  0  0  0
  6 11  2  0  0  0  0
  7 12  2  0  0  0  0
  8 10  2  0  0  0  0
  8 12  1  0  0  0  0
  9 26  1  0  0  0  0
 10 25  1  0  0  0  0
 11 30  1  0  0  0  0
 12 33  1  0  0  0  0
 13 15  1  0  0  0  0
 13 27  2  0  0  0  0
 13 29  1  0  0  0  0
 14 28  2  0  0  0  0
 14 29  1  0  0  0  0
 14 31  1  0  0  0  0
 15 16  2  0  0  0  0
 16 17  1  0  0  0  0
 17 18  2  0  0  0  0
 18 29  1  0  0  0  0
 19 26  1  6  0  0  0
 19 31  1  0  0  0  0
 19 32  2  0  0  0  0
 20 21  1  0  0  0  0
 20 22  1  0  0  0  0
 21 23  1  0  0  0  0
 22 24  1  0  0  0  0
 23 30  1  0  0  0  0
 24 30  1  0  0  0  0
 25 26  1  0  0  0  0
 27 28  1  0  0  0  0
  1 34  1  0  0  0  0
  2 35  1  0  0  0  0
  3 36  1  0  0  0  0
  4 37  1  0  0  0  0
  5 38  1  0  0  0  0
  6 39  1  0  0  0  0
  7 40  1  0  0  0  0
  8 41  1  0  0  0  0
 15 42  1  0  0  0  0
 16 43  1  0  0  0  0
 17 44  1  0  0  0  0
 18 45  1  0  0  0  0
 20 46  1  0  0  0  0
 20 47  1  0  0  0  0
 21 48  1  0  0  0  0
 21 49  1  0  0  0  0
 22 50  1  0  0  0  0
 22 51  1  0  0  0  0
 23 52  1  0  0  0  0
 23 53  1  0  0  0  0
 24 54  1  0  0  0  0
 24 55  1  0  0  0  0
 25 56  1  0  0  0  0
 25 57  1  0  0  0  0
 26 58  1  0  0  0  0
 31 59  1  0  0  0  0
M  END
> <clash_score>
0

> <docking_score>
-8.780830383300781

> <overlap_score>
1.0154396295547485

$$$$
BENZO_319_1
  -OEChem-08222022193D

 59 63  0     1  0  0  0  0  0999 V2000
    9.0720   -1.1280   24.8640 C   0  0  0  0  0  0  0  0  0  0  0  0
    9.7200   -2.2600   22.8630 C   0  0  0  0  0  0  0  0  0  0  0  0
    8.9960   -2.3380   25.5320 C   0  0  0  0  0  0  0  0  0  0  0  0
    9.6730   -3.4710   23.5300 C   0  0  0  0  0  0  0  0  0  0  0  0
   12.0594    2.7949   23.5898 C   0  0  0  0  0  0  0  0  0  0  0  0
   12.3731    0.6302   23.3648 C   0  0  0  0  0  0  0  0  0  0  0  0
    9.3350   -1.0880   23.5010 C   0  0  0  0  0  0  0  0  0  0  0  0
   11.3780    1.5657   23.5101 C   0  0  0  0  0  0  0  0  0  0  0  0
    9.3070   -3.5340   24.8780 C   0  0  0  0  0  0  0  0  0  0  0  0
    5.8300    0.9190   18.6970 C   0  0  0  0  0  0  0  0  0  0  0  0
    7.3170   -0.1610   19.8550 C   0  0  0  0  0  0  0  0  0  0  0  0
    4.6890    1.6810   18.4640 C   0  0  0  0  0  0  0  0  0  0  0  0
    3.9160    2.0630   19.5520 C   0  0  0  0  0  0  0  0  0  0  0  0
    4.2750    1.7050   20.8490 C   0  0  0  0  0  0  0  0  0  0  0  0
    5.4210    0.9600   21.0930 C   0  0  0  0  0  0  0  0  0  0  0  0
    9.0420    0.3700   21.5280 C   0  0  0  0  0  0  0  0  0  0  0  0
    7.3637   -6.1365   27.1885 C   0  0  0  0  0  0  0  0  0  0  0  0
    8.1962   -4.9739   27.7340 C   0  0  0  0  0  0  0  0  0  0  0  0
    7.1943   -6.0395   25.6706 C   0  0  0  0  0  0  0  0  0  0  0  0
    9.5197   -4.8493   26.9795 C   0  0  0  0  0  0  0  0  0  0  0  0
    8.5443   -5.8838   24.9636 C   0  0  0  0  0  0  0  0  0  0  0  0
   14.8715    0.7757   23.2396 C   0  0  0  0  0  0  0  0  0  0  0  0
    9.8870    1.3260   23.5730 C   0  0  0  0  0  0  0  0  0  0  0  0
    9.4560    0.1560   22.8130 C   0  0  1  0  0  0  0  0  0  0  0  0
   13.3850    2.6563   23.5026 N   0  0  0  0  0  0  0  0  0  0  0  0
    6.7580    0.3810   17.8350 N   0  0  0  0  0  0  0  0  0  0  0  0
    7.6390   -0.2680   18.5410 N   0  0  0  0  0  0  0  0  0  0  0  0
   13.5445    1.3288   23.3666 N   0  0  0  0  0  0  0  0  0  0  0  0
    6.1790    0.5730   19.9990 N   0  0  0  0  0  0  0  0  0  0  0  0
    9.2563   -4.7385   25.5420 N   0  0  0  0  0  0  0  0  0  0  0  0
    8.1890   -0.7180   20.8700 N   0  0  0  0  0  0  0  0  0  0  0  0
    9.2690    1.4140   20.9380 O   0  0  0  0  0  0  0  0  0  0  0  0
    8.9214   -0.1986   25.4206 H   0  0  0  0  0  0  0  0  0  0  0  0
   10.0622   -2.2326   21.8251 H   0  0  0  0  0  0  0  0  0  0  0  0
    8.6882   -2.3542   26.5803 H   0  0  0  0  0  0  0  0  0  0  0  0
    9.9258   -4.3896   22.9914 H   0  0  0  0  0  0  0  0  0  0  0  0
   11.6476    3.7871   23.7088 H   0  0  0  0  0  0  0  0  0  0  0  0
   12.3482   -0.4464   23.2641 H   0  0  0  0  0  0  0  0  0  0  0  0
    4.3967    1.9772   17.4718 H   0  0  0  0  0  0  0  0  0  0  0  0
    3.0218    2.6486   19.3697 H   0  0  0  0  0  0  0  0  0  0  0  0
    3.6566    2.0043   21.7065 H   0  0  0  0  0  0  0  0  0  0  0  0
    5.7190    0.6877   22.0810 H   0  0  0  0  0  0  0  0  0  0  0  0
    7.8484   -7.0905   27.4464 H   0  0  0  0  0  0  0  0  0  0  0  0
    6.3761   -6.1442   27.6721 H   0  0  0  0  0  0  0  0  0  0  0  0
    7.6308   -4.0428   27.6404 H   0  0  0  0  0  0  0  0  0  0  0  0
    8.3917   -5.1316   28.7967 H   0  0  0  0  0  0  0  0  0  0  0  0
    6.6889   -6.9376   25.3006 H   0  0  0  0  0  0  0  0  0  0  0  0
    6.5516   -5.1860   25.4256 H   0  0  0  0  0  0  0  0  0  0  0  0
   10.0494   -3.9643   27.3413 H   0  0  0  0  0  0  0  0  0  0  0  0
   10.1432   -5.7258   27.1775 H   0  0  0  0  0  0  0  0  0  0  0  0
    9.1338   -6.7931   25.0863 H   0  0  0  0  0  0  0  0  0  0  0  0
    8.3657   -5.7262   23.8995 H   0  0  0  0  0  0  0  0  0  0  0  0
   15.1241    0.7456   22.1764 H   0  0  0  0  0  0  0  0  0  0  0  0
   15.5818    1.4045   23.7836 H   0  0  0  0  0  0  0  0  0  0  0  0
   14.8855   -0.2314   23.6656 H   0  0  0  0  0  0  0  0  0  0  0  0
    9.5760    1.2490   24.6231 H   0  0  0  0  0  0  0  0  0  0  0  0
    9.3844    2.2230   23.1853 H   0  0  0  0  0  0  0  0  0  0  0  0
    8.0674    0.5009   23.2732 H   0  0  0  0  0  0  0  0  0  0  0  0
    8.2585   -1.5522   21.1129 H   0  0  0  0  0  0  0  0  0  0  0  0
  1  3  2  0  0  0  0
  1  7  1  0  0  0  0
  2  4  1  0  0  0  0
  2  7  2  0  0  0  0
  3  9  1  0  0  0  0
  4  9  2  0  0  0  0
  5  8  1  0  0  0  0
  5 25  2  0  0  0  0
  6  8  2  0  0  0  0
  6 28  1  0  0  0  0
  7 24  1  0  0  0  0
  8 23  1  0  0  0  0
  9 30  1  0  0  0  0
 10 12  1  0  0  0  0
 10 26  2  0  0  0  0
 10 29  1  0  0  0  0
 11 27  2  0  0  0  0
 11 29  1  0  0  0  0
 11 31  1  0  0  0  0
 12 13  2  0  0  0  0
 13 14  1  0  0  0  0
 14 15  2  0  0  0  0
 15 29  1  0  0  0  0
 16 24  1  0  0  0  0
 16 31  1  0  0  0  0
 16 32  2  0  0  0  0
 17 18  1  0  0  0  0
 17 19  1  0  0  0  0
 18 20  1  0  0  0  0
 19 21  1  0  0  0  0
 20 30  1  0  0  0  0
 21 30  1  0  0  0  0
 22 28  1  0  0  0  0
 23 24  1  1  0  0  0
 25 28  1  0  0  0  0
 26 27  1  0  0  0  0
  1 33  1  0  0  0  0
  2 34  1  0  0  0  0
  3 35  1  0  0  0  0
  4 36  1  0  0  0  0
  5 37  1  0  0  0  0
  6 38  1  0  0  0  0
 12 39  1  0  0  0  0
 13 40  1  0  0  0  0
 14 41  1  0  0  0  0
 15 42  1  0  0  0  0
 17 43  1  0  0  0  0
 17 44  1  0  0  0  0
 18 45  1  0  0  0  0
 18 46  1  0  0  0  0
 19 47  1  0  0  0  0
 19 48  1  0  0  0  0
 20 49  1  0  0  0  0
 20 50  1  0  0  0  0
 21 51  1  0  0  0  0
 21 52  1  0  0  0  0
 22 53  1  0  0  0  0
 22 54  1  0  0  0  0
 22 55  1  0  0  0  0
 23 56  1  0  0  0  0
 23 57  1  0  0  0  0
 24 58  1  0  0  0  0
 31 59  1  0  0  0  0
M  END
> <clash_score>
0

> <docking_score>
-9.09053897857666

> <overlap_score>
1.0146235227584839

$$$$
BENZO_323_2
  -OEChem-08222022193D

 47 50  0     1  0  0  0  0  0999 V2000
    8.9960   -2.3380   25.5320 C   0  0  0  0  0  0  0  0  0  0  0  0
    9.6730   -3.4710   23.5300 C   0  0  0  0  0  0  0  0  0  0  0  0
    9.0720   -1.1280   24.8640 C   0  0  0  0  0  0  0  0  0  0  0  0
    9.7200   -2.2600   22.8630 C   0  0  0  0  0  0  0  0  0  0  0  0
   12.3565    1.9564   22.9554 C   0  0  0  0  0  0  0  0  0  0  0  0
   10.7932    3.1569   21.9808 C   0  0  0  0  0  0  0  0  0  0  0  0
    9.3070   -3.5340   24.8780 C   0  0  0  0  0  0  0  0  0  0  0  0
    9.3350   -1.0880   23.5010 C   0  0  0  0  0  0  0  0  0  0  0  0
   10.9611    2.1180   22.8635 C   0  0  0  0  0  0  0  0  0  0  0  0
    5.8300    0.9190   18.6970 C   0  0  0  0  0  0  0  0  0  0  0  0
    7.3170   -0.1610   19.8550 C   0  0  0  0  0  0  0  0  0  0  0  0
    4.6890    1.6810   18.4640 C   0  0  0  0  0  0  0  0  0  0  0  0
    3.9160    2.0630   19.5520 C   0  0  0  0  0  0  0  0  0  0  0  0
    4.2750    1.7050   20.8490 C   0  0  0  0  0  0  0  0  0  0  0  0
    5.4210    0.9600   21.0930 C   0  0  0  0  0  0  0  0  0  0  0  0
    9.0420    0.3700   21.5280 C   0  0  0  0  0  0  0  0  0  0  0  0
    9.2507   -4.8268   25.5895 C   0  0  0  0  0  0  0  0  0  0  0  0
   12.3862    4.6002   20.6932 C   0  0  0  0  0  0  0  0  0  0  0  0
    9.8870    1.3260   23.5730 C   0  0  0  0  0  0  0  0  0  0  0  0
    9.4560    0.1560   22.8130 C   0  0  2  0  0  0  0  0  0  0  0  0
   13.0274    2.8231   22.1920 N   0  0  0  0  0  0  0  0  0  0  0  0
    6.7580    0.3810   17.8350 N   0  0  0  0  0  0  0  0  0  0  0  0
    7.6390   -0.2680   18.5410 N   0  0  0  0  0  0  0  0  0  0  0  0
   12.0493    3.5392   21.6118 N   0  0  0  0  0  0  0  0  0  0  0  0
    6.1790    0.5730   19.9990 N   0  0  0  0  0  0  0  0  0  0  0  0
    8.1890   -0.7180   20.8700 N   0  0  0  0  0  0  0  0  0  0  0  0
    9.2690    1.4140   20.9380 O   0  0  0  0  0  0  0  0  0  0  0  0
    8.6904   -2.3557   26.5808 H   0  0  0  0  0  0  0  0  0  0  0  0
    9.9249   -4.3911   22.9935 H   0  0  0  0  0  0  0  0  0  0  0  0
    8.9209   -0.1987   25.4207 H   0  0  0  0  0  0  0  0  0  0  0  0
   10.0640   -2.2315   21.8255 H   0  0  0  0  0  0  0  0  0  0  0  0
   12.9148    1.2434   23.5455 H   0  0  0  0  0  0  0  0  0  0  0  0
    9.9088    3.6436   21.5925 H   0  0  0  0  0  0  0  0  0  0  0  0
    4.3967    1.9772   17.4718 H   0  0  0  0  0  0  0  0  0  0  0  0
    3.0218    2.6486   19.3697 H   0  0  0  0  0  0  0  0  0  0  0  0
    3.6566    2.0043   21.7065 H   0  0  0  0  0  0  0  0  0  0  0  0
    5.7190    0.6877   22.0810 H   0  0  0  0  0  0  0  0  0  0  0  0
    8.2506   -5.2684   25.5009 H   0  0  0  0  0  0  0  0  0  0  0  0
    9.9820   -5.5375   25.1832 H   0  0  0  0  0  0  0  0  0  0  0  0
    9.4843   -4.7055   26.6554 H   0  0  0  0  0  0  0  0  0  0  0  0
   12.4913    5.5238   21.2686 H   0  0  0  0  0  0  0  0  0  0  0  0
   13.3235    4.3577   20.1848 H   0  0  0  0  0  0  0  0  0  0  0  0
   11.5908    4.7003   19.9494 H   0  0  0  0  0  0  0  0  0  0  0  0
   10.2455    1.0419   24.5710 H   0  0  0  0  0  0  0  0  0  0  0  0
    9.0345    1.9965   23.7496 H   0  0  0  0  0  0  0  0  0  0  0  0
   10.7927   -0.1029   22.4279 H   0  0  0  0  0  0  0  0  0  0  0  0
    8.2385   -1.5646   21.0947 H   0  0  0  0  0  0  0  0  0  0  0  0
  1  3  2  0  0  0  0
  1  7  1  0  0  0  0
  2  4  1  0  0  0  0
  2  7  2  0  0  0  0
  3  8  1  0  0  0  0
  4  8  2  0  0  0  0
  5  9  1  0  0  0  0
  5 21  2  0  0  0  0
  6  9  2  0  0  0  0
  6 24  1  0  0  0  0
  7 17  1  0  0  0  0
  8 20  1  0  0  0  0
  9 19  1  0  0  0  0
 10 12  1  0  0  0  0
 10 22  2  0  0  0  0
 10 25  1  0  0  0  0
 11 23  2  0  0  0  0
 11 25  1  0  0  0  0
 11 26  1  0  0  0  0
 12 13  2  0  0  0  0
 13 14  1  0  0  0  0
 14 15  2  0  0  0  0
 15 25  1  0  0  0  0
 16 20  1  0  0  0  0
 16 26  1  0  0  0  0
 16 27  2  0  0  0  0
 18 24  1  0  0  0  0
 19 20  1  6  0  0  0
 21 24  1  0  0  0  0
 22 23  1  0  0  0  0
  1 28  1  0  0  0  0
  2 29  1  0  0  0  0
  3 30  1  0  0  0  0
  4 31  1  0  0  0  0
  5 32  1  0  0  0  0
  6 33  1  0  0  0  0
 12 34  1  0  0  0  0
 13 35  1  0  0  0  0
 14 36  1  0  0  0  0
 15 37  1  0  0  0  0
 17 38  1  0  0  0  0
 17 39  1  0  0  0  0
 17 40  1  0  0  0  0
 18 41  1  0  0  0  0
 18 42  1  0  0  0  0
 18 43  1  0  0  0  0
 19 44  1  0  0  0  0
 19 45  1  0  0  0  0
 20 46  1  0  0  0  0
 26 47  1  0  0  0  0
M  END
> <clash_score>
0

> <docking_score>
-8.047972679138184

> <overlap_score>
0.9096471667289734

$$$$
BENZO_323_1
  -OEChem-08222022193D

 47 50  0     1  0  0  0  0  0999 V2000
    8.9960   -2.3380   25.5320 C   0  0  0  0  0  0  0  0  0  0  0  0
    9.6730   -3.4710   23.5300 C   0  0  0  0  0  0  0  0  0  0  0  0
    9.0720   -1.1280   24.8640 C   0  0  0  0  0  0  0  0  0  0  0  0
    9.7200   -2.2600   22.8630 C   0  0  0  0  0  0  0  0  0  0  0  0
   12.0720    2.7762   23.5689 C   0  0  0  0  0  0  0  0  0  0  0  0
   12.3651    0.6087   23.3429 C   0  0  0  0  0  0  0  0  0  0  0  0
    9.3070   -3.5340   24.8780 C   0  0  0  0  0  0  0  0  0  0  0  0
    9.3350   -1.0880   23.5010 C   0  0  0  0  0  0  0  0  0  0  0  0
   11.3794    1.5528   23.4964 C   0  0  0  0  0  0  0  0  0  0  0  0
    5.8300    0.9190   18.6970 C   0  0  0  0  0  0  0  0  0  0  0  0
    7.3170   -0.1610   19.8550 C   0  0  0  0  0  0  0  0  0  0  0  0
    4.6890    1.6810   18.4640 C   0  0  0  0  0  0  0  0  0  0  0  0
    3.9160    2.0630   19.5520 C   0  0  0  0  0  0  0  0  0  0  0  0
    4.2750    1.7050   20.8490 C   0  0  0  0  0  0  0  0  0  0  0  0
    5.4210    0.9600   21.0930 C   0  0  0  0  0  0  0  0  0  0  0  0
    9.0420    0.3700   21.5280 C   0  0  0  0  0  0  0  0  0  0  0  0
    9.2507   -4.8268   25.5895 C   0  0  0  0  0  0  0  0  0  0  0  0
   14.8634    0.7326   23.1949 C   0  0  0  0  0  0  0  0  0  0  0  0
    9.8870    1.3260   23.5730 C   0  0  0  0  0  0  0  0  0  0  0  0
    9.4560    0.1560   22.8130 C   0  0  1  0  0  0  0  0  0  0  0  0
   13.3955    2.6261   23.4698 N   0  0  0  0  0  0  0  0  0  0  0  0
    6.7580    0.3810   17.8350 N   0  0  0  0  0  0  0  0  0  0  0  0
    7.6390   -0.2680   18.5410 N   0  0  0  0  0  0  0  0  0  0  0  0
   13.5424    1.2972   23.3335 N   0  0  0  0  0  0  0  0  0  0  0  0
    6.1790    0.5730   19.9990 N   0  0  0  0  0  0  0  0  0  0  0  0
    8.1890   -0.7180   20.8700 N   0  0  0  0  0  0  0  0  0  0  0  0
    9.2690    1.4140   20.9380 O   0  0  0  0  0  0  0  0  0  0  0  0
    8.6904   -2.3557   26.5808 H   0  0  0  0  0  0  0  0  0  0  0  0
    9.9249   -4.3911   22.9935 H   0  0  0  0  0  0  0  0  0  0  0  0
    8.9209   -0.1987   25.4207 H   0  0  0  0  0  0  0  0  0  0  0  0
   10.0640   -2.2315   21.8255 H   0  0  0  0  0  0  0  0  0  0  0  0
   11.6698    3.7720   23.6907 H   0  0  0  0  0  0  0  0  0  0  0  0
   12.3300   -0.4677   23.2433 H   0  0  0  0  0  0  0  0  0  0  0  0
    4.3967    1.9772   17.4718 H   0  0  0  0  0  0  0  0  0  0  0  0
    3.0218    2.6486   19.3697 H   0  0  0  0  0  0  0  0  0  0  0  0
    3.6566    2.0043   21.7065 H   0  0  0  0  0  0  0  0  0  0  0  0
    5.7190    0.6877   22.0810 H   0  0  0  0  0  0  0  0  0  0  0  0
    8.2506   -5.2684   25.5009 H   0  0  0  0  0  0  0  0  0  0  0  0
    9.9820   -5.5375   25.1832 H   0  0  0  0  0  0  0  0  0  0  0  0
    9.4843   -4.7055   26.6554 H   0  0  0  0  0  0  0  0  0  0  0  0
   15.1060    0.6995   22.1295 H   0  0  0  0  0  0  0  0  0  0  0  0
   15.5839    1.3558   23.7319 H   0  0  0  0  0  0  0  0  0  0  0  0
   14.8726   -0.2742   23.6217 H   0  0  0  0  0  0  0  0  0  0  0  0
    9.5854    1.2495   24.6258 H   0  0  0  0  0  0  0  0  0  0  0  0
    9.3886    2.2282   23.1920 H   0  0  0  0  0  0  0  0  0  0  0  0
    8.0686    0.4964   23.2745 H   0  0  0  0  0  0  0  0  0  0  0  0
    8.2385   -1.5646   21.0947 H   0  0  0  0  0  0  0  0  0  0  0  0
  1  3  2  0  0  0  0
  1  7  1  0  0  0  0
  2  4  1  0  0  0  0
  2  7  2  0  0  0  0
  3  8  1  0  0  0  0
  4  8  2  0  0  0  0
  5  9  1  0  0  0  0
  5 21  2  0  0  0  0
  6  9  2  0  0  0  0
  6 24  1  0  0  0  0
  7 17  1  0  0  0  0
  8 20  1  0  0  0  0
  9 19  1  0  0  0  0
 10 12  1  0  0  0  0
 10 22  2  0  0  0  0
 10 25  1  0  0  0  0
 11 23  2  0  0  0  0
 11 25  1  0  0  0  0
 11 26  1  0  0  0  0
 12 13  2  0  0  0  0
 13 14  1  0  0  0  0
 14 15  2  0  0  0  0
 15 25  1  0  0  0  0
 16 20  1  0  0  0  0
 16 26  1  0  0  0  0
 16 27  2  0  0  0  0
 18 24  1  0  0  0  0
 19 20  1  1  0  0  0
 21 24  1  0  0  0  0
 22 23  1  0  0  0  0
  1 28  1  0  0  0  0
  2 29  1  0  0  0  0
  3 30  1  0  0  0  0
  4 31  1  0  0  0  0
  5 32  1  0  0  0  0
  6 33  1  0  0  0  0
 12 34  1  0  0  0  0
 13 35  1  0  0  0  0
 14 36  1  0  0  0  0
 15 37  1  0  0  0  0
 17 38  1  0  0  0  0
 17 39  1  0  0  0  0
 17 40  1  0  0  0  0
 18 41  1  0  0  0  0
 18 42  1  0  0  0  0
 18 43  1  0  0  0  0
 19 44  1  0  0  0  0
 19 45  1  0  0  0  0
 20 46  1  0  0  0  0
 26 47  1  0  0  0  0
M  END
> <clash_score>
0

> <docking_score>
-9.412548065185547

> <overlap_score>
0.9617199301719666

$$$$
BENZO_322_1
  -OEChem-08222022193D

 47 50  0     1  0  0  0  0  0999 V2000
   13.6189    0.6768   23.2647 C   0  0  0  0  0  0  0  0  0  0  0  0
   12.2417    0.4681   23.3366 C   0  0  0  0  0  0  0  0  0  0  0  0
    8.9960   -2.3380   25.5320 C   0  0  0  0  0  0  0  0  0  0  0  0
    9.6730   -3.4710   23.5300 C   0  0  0  0  0  0  0  0  0  0  0  0
    9.0720   -1.1280   24.8640 C   0  0  0  0  0  0  0  0  0  0  0  0
    9.7200   -2.2600   22.8630 C   0  0  0  0  0  0  0  0  0  0  0  0
   14.1339    1.9702   23.3527 C   0  0  0  0  0  0  0  0  0  0  0  0
   11.8943    2.8462   23.5844 C   0  0  0  0  0  0  0  0  0  0  0  0
    9.3070   -3.5340   24.8780 C   0  0  0  0  0  0  0  0  0  0  0  0
    9.3350   -1.0880   23.5010 C   0  0  0  0  0  0  0  0  0  0  0  0
   11.3794    1.5528   23.4964 C   0  0  0  0  0  0  0  0  0  0  0  0
   13.2716    3.0548   23.5125 C   0  0  0  0  0  0  0  0  0  0  0  0
    5.8300    0.9190   18.6970 C   0  0  0  0  0  0  0  0  0  0  0  0
    7.3170   -0.1610   19.8550 C   0  0  0  0  0  0  0  0  0  0  0  0
    4.6890    1.6810   18.4640 C   0  0  0  0  0  0  0  0  0  0  0  0
    3.9160    2.0630   19.5520 C   0  0  0  0  0  0  0  0  0  0  0  0
    4.2750    1.7050   20.8490 C   0  0  0  0  0  0  0  0  0  0  0  0
    5.4210    0.9600   21.0930 C   0  0  0  0  0  0  0  0  0  0  0  0
    9.0420    0.3700   21.5280 C   0  0  0  0  0  0  0  0  0  0  0  0
    9.2507   -4.8268   25.5895 C   0  0  0  0  0  0  0  0  0  0  0  0
    9.8870    1.3260   23.5730 C   0  0  0  0  0  0  0  0  0  0  0  0
    9.4560    0.1560   22.8130 C   0  0  1  0  0  0  0  0  0  0  0  0
    6.7580    0.3810   17.8350 N   0  0  0  0  0  0  0  0  0  0  0  0
    7.6390   -0.2680   18.5410 N   0  0  0  0  0  0  0  0  0  0  0  0
    6.1790    0.5730   19.9990 N   0  0  0  0  0  0  0  0  0  0  0  0
    8.1890   -0.7180   20.8700 N   0  0  0  0  0  0  0  0  0  0  0  0
    9.2690    1.4140   20.9380 O   0  0  0  0  0  0  0  0  0  0  0  0
   13.9075    4.6504   23.6198 Cl  0  0  0  0  0  0  0  0  0  0  0  0
   14.2901   -0.1681   23.1402 H   0  0  0  0  0  0  0  0  0  0  0  0
   11.8492   -0.5431   23.2671 H   0  0  0  0  0  0  0  0  0  0  0  0
    8.6904   -2.3557   26.5808 H   0  0  0  0  0  0  0  0  0  0  0  0
    9.9249   -4.3911   22.9935 H   0  0  0  0  0  0  0  0  0  0  0  0
    8.9209   -0.1987   25.4207 H   0  0  0  0  0  0  0  0  0  0  0  0
   10.0640   -2.2315   21.8255 H   0  0  0  0  0  0  0  0  0  0  0  0
   15.2095    2.1179   23.2949 H   0  0  0  0  0  0  0  0  0  0  0  0
   11.2178    3.6885   23.7094 H   0  0  0  0  0  0  0  0  0  0  0  0
    4.3967    1.9772   17.4718 H   0  0  0  0  0  0  0  0  0  0  0  0
    3.0218    2.6486   19.3697 H   0  0  0  0  0  0  0  0  0  0  0  0
    3.6566    2.0043   21.7065 H   0  0  0  0  0  0  0  0  0  0  0  0
    5.7190    0.6877   22.0810 H   0  0  0  0  0  0  0  0  0  0  0  0
    8.2506   -5.2684   25.5009 H   0  0  0  0  0  0  0  0  0  0  0  0
    9.9820   -5.5375   25.1832 H   0  0  0  0  0  0  0  0  0  0  0  0
    9.4843   -4.7055   26.6554 H   0  0  0  0  0  0  0  0  0  0  0  0
    9.5854    1.2495   24.6258 H   0  0  0  0  0  0  0  0  0  0  0  0
    9.3886    2.2282   23.1920 H   0  0  0  0  0  0  0  0  0  0  0  0
    8.0686    0.4964   23.2745 H   0  0  0  0  0  0  0  0  0  0  0  0
    8.2385   -1.5646   21.0947 H   0  0  0  0  0  0  0  0  0  0  0  0
  1  2  2  0  0  0  0
  1  7  1  0  0  0  0
  2 11  1  0  0  0  0
  3  5  2  0  0  0  0
  3  9  1  0  0  0  0
  4  6  1  0  0  0  0
  4  9  2  0  0  0  0
  5 10  1  0  0  0  0
  6 10  2  0  0  0  0
  7 12  2  0  0  0  0
  8 11  2  0  0  0  0
  8 12  1  0  0  0  0
  9 20  1  0  0  0  0
 10 22  1  0  0  0  0
 11 21  1  0  0  0  0
 12 28  1  0  0  0  0
 13 15  1  0  0  0  0
 13 23  2  0  0  0  0
 13 25  1  0  0  0  0
 14 24  2  0  0  0  0
 14 25  1  0  0  0  0
 14 26  1  0  0  0  0
 15 16  2  0  0  0  0
 16 17  1  0  0  0  0
 17 18  2  0  0  0  0
 18 25  1  0  0  0  0
 19 22  1  0  0  0  0
 19 26  1  0  0  0  0
 19 27  2  0  0  0  0
 21 22  1  1  0  0  0
 23 24  1  0  0  0  0
  1 29  1  0  0  0  0
  2 30  1  0  0  0  0
  3 31  1  0  0  0  0
  4 32  1  0  0  0  0
  5 33  1  0  0  0  0
  6 34  1  0  0  0  0
  7 35  1  0  0  0  0
  8 36  1  0  0  0  0
 15 37  1  0  0  0  0
 16 38  1  0  0  0  0
 17 39  1  0  0  0  0
 18 40  1  0  0  0  0
 20 41  1  0  0  0  0
 20 42  1  0  0  0  0
 20 43  1  0  0  0  0
 21 44  1  0  0  0  0
 21 45  1  0  0  0  0
 22 46  1  0  0  0  0
 26 47  1  0  0  0  0
M  END
> <clash_score>
0

> <docking_score>
-9.081308364868164

> <overlap_score>
0.9629615545272827

$$$$
BENZO_322_2
  -OEChem-08222022193D

 47 50  0     1  0  0  0  0  0999 V2000
   13.2976    2.5464   22.4233 C   0  0  0  0  0  0  0  0  0  0  0  0
   12.3059    1.8167   23.0786 C   0  0  0  0  0  0  0  0  0  0  0  0
    8.9960   -2.3380   25.5320 C   0  0  0  0  0  0  0  0  0  0  0  0
    9.6730   -3.4710   23.5300 C   0  0  0  0  0  0  0  0  0  0  0  0
    9.0720   -1.1280   24.8640 C   0  0  0  0  0  0  0  0  0  0  0  0
    9.7200   -2.2600   22.8630 C   0  0  0  0  0  0  0  0  0  0  0  0
   12.9446    3.5777   21.5528 C   0  0  0  0  0  0  0  0  0  0  0  0
   10.6080    3.1492   21.9930 C   0  0  0  0  0  0  0  0  0  0  0  0
    9.3070   -3.5340   24.8780 C   0  0  0  0  0  0  0  0  0  0  0  0
    9.3350   -1.0880   23.5010 C   0  0  0  0  0  0  0  0  0  0  0  0
   10.9611    2.1180   22.8635 C   0  0  0  0  0  0  0  0  0  0  0  0
   11.5998    3.8790   21.3377 C   0  0  0  0  0  0  0  0  0  0  0  0
    5.8300    0.9190   18.6970 C   0  0  0  0  0  0  0  0  0  0  0  0
    7.3170   -0.1610   19.8550 C   0  0  0  0  0  0  0  0  0  0  0  0
    4.6890    1.6810   18.4640 C   0  0  0  0  0  0  0  0  0  0  0  0
    3.9160    2.0630   19.5520 C   0  0  0  0  0  0  0  0  0  0  0  0
    4.2750    1.7050   20.8490 C   0  0  0  0  0  0  0  0  0  0  0  0
    5.4210    0.9600   21.0930 C   0  0  0  0  0  0  0  0  0  0  0  0
    9.0420    0.3700   21.5280 C   0  0  0  0  0  0  0  0  0  0  0  0
    9.2507   -4.8268   25.5895 C   0  0  0  0  0  0  0  0  0  0  0  0
    9.8870    1.3260   23.5730 C   0  0  0  0  0  0  0  0  0  0  0  0
    9.4560    0.1560   22.8130 C   0  0  2  0  0  0  0  0  0  0  0  0
    6.7580    0.3810   17.8350 N   0  0  0  0  0  0  0  0  0  0  0  0
    7.6390   -0.2680   18.5410 N   0  0  0  0  0  0  0  0  0  0  0  0
    6.1790    0.5730   19.9990 N   0  0  0  0  0  0  0  0  0  0  0  0
    8.1890   -0.7180   20.8700 N   0  0  0  0  0  0  0  0  0  0  0  0
    9.2690    1.4140   20.9380 O   0  0  0  0  0  0  0  0  0  0  0  0
   11.1647    5.1506   20.2627 Cl  0  0  0  0  0  0  0  0  0  0  0  0
   14.3447    2.3114   22.5909 H   0  0  0  0  0  0  0  0  0  0  0  0
   12.5902    1.0148   23.7550 H   0  0  0  0  0  0  0  0  0  0  0  0
    8.6904   -2.3557   26.5808 H   0  0  0  0  0  0  0  0  0  0  0  0
    9.9249   -4.3911   22.9935 H   0  0  0  0  0  0  0  0  0  0  0  0
    8.9209   -0.1987   25.4207 H   0  0  0  0  0  0  0  0  0  0  0  0
   10.0640   -2.2315   21.8255 H   0  0  0  0  0  0  0  0  0  0  0  0
   13.7282    4.1379   21.0487 H   0  0  0  0  0  0  0  0  0  0  0  0
    9.5581    3.3806   21.8290 H   0  0  0  0  0  0  0  0  0  0  0  0
    4.3967    1.9772   17.4718 H   0  0  0  0  0  0  0  0  0  0  0  0
    3.0218    2.6486   19.3697 H   0  0  0  0  0  0  0  0  0  0  0  0
    3.6566    2.0043   21.7065 H   0  0  0  0  0  0  0  0  0  0  0  0
    5.7190    0.6877   22.0810 H   0  0  0  0  0  0  0  0  0  0  0  0
    8.2506   -5.2684   25.5009 H   0  0  0  0  0  0  0  0  0  0  0  0
    9.9820   -5.5375   25.1832 H   0  0  0  0  0  0  0  0  0  0  0  0
    9.4843   -4.7055   26.6554 H   0  0  0  0  0  0  0  0  0  0  0  0
   10.2455    1.0419   24.5710 H   0  0  0  0  0  0  0  0  0  0  0  0
    9.0345    1.9965   23.7496 H   0  0  0  0  0  0  0  0  0  0  0  0
   10.7927   -0.1029   22.4279 H   0  0  0  0  0  0  0  0  0  0  0  0
    8.2385   -1.5646   21.0947 H   0  0  0  0  0  0  0  0  0  0  0  0
  1  2  2  0  0  0  0
  1  7  1  0  0  0  0
  2 11  1  0  0  0  0
  3  5  2  0  0  0  0
  3  9  1  0  0  0  0
  4  6  1  0  0  0  0
  4  9  2  0  0  0  0
  5 10  1  0  0  0  0
  6 10  2  0  0  0  0
  7 12  2  0  0  0  0
  8 11  2  0  0  0  0
  8 12  1  0  0  0  0
  9 20  1  0  0  0  0
 10 22  1  0  0  0  0
 11 21  1  0  0  0  0
 12 28  1  0  0  0  0
 13 15  1  0  0  0  0
 13 23  2  0  0  0  0
 13 25  1  0  0  0  0
 14 24  2  0  0  0  0
 14 25  1  0  0  0  0
 14 26  1  0  0  0  0
 15 16  2  0  0  0  0
 16 17  1  0  0  0  0
 17 18  2  0  0  0  0
 18 25  1  0  0  0  0
 19 22  1  0  0  0  0
 19 26  1  0  0  0  0
 19 27  2  0  0  0  0
 21 22  1  6  0  0  0
 23 24  1  0  0  0  0
  1 29  1  0  0  0  0
  2 30  1  0  0  0  0
  3 31  1  0  0  0  0
  4 32  1  0  0  0  0
  5 33  1  0  0  0  0
  6 34  1  0  0  0  0
  7 35  1  0  0  0  0
  8 36  1  0  0  0  0
 15 37  1  0  0  0  0
 16 38  1  0  0  0  0
 17 39  1  0  0  0  0
 18 40  1  0  0  0  0
 20 41  1  0  0  0  0
 20 42  1  0  0  0  0
 20 43  1  0  0  0  0
 21 44  1  0  0  0  0
 21 45  1  0  0  0  0
 22 46  1  0  0  0  0
 26 47  1  0  0  0  0
M  END
> <clash_score>
2.2103005309889943

> <docking_score>
-8.583154678344727

> <overlap_score>
0.9152684211730957

$$$$
BENZO_324_1
  -OEChem-08222022193D

 45 48  0     1  0  0  0  0  0999 V2000
    9.0720   -1.1280   24.8640 C   0  0  0  0  0  0  0  0  0  0  0  0
    9.7200   -2.2600   22.8630 C   0  0  0  0  0  0  0  0  0  0  0  0
    8.9960   -2.3380   25.5320 C   0  0  0  0  0  0  0  0  0  0  0  0
    9.6730   -3.4710   23.5300 C   0  0  0  0  0  0  0  0  0  0  0  0
   12.3398    0.5029   23.4216 C   0  0  0  0  0  0  0  0  0  0  0  0
   13.6291    0.9843   23.3622 C   0  0  0  0  0  0  0  0  0  0  0  0
   11.9713    2.7968   23.4917 C   0  0  0  0  0  0  0  0  0  0  0  0
    9.3350   -1.0880   23.5010 C   0  0  0  0  0  0  0  0  0  0  0  0
   11.3794    1.5528   23.4964 C   0  0  0  0  0  0  0  0  0  0  0  0
    9.3070   -3.5340   24.8780 C   0  0  0  0  0  0  0  0  0  0  0  0
    5.8300    0.9190   18.6970 C   0  0  0  0  0  0  0  0  0  0  0  0
    7.3170   -0.1610   19.8550 C   0  0  0  0  0  0  0  0  0  0  0  0
    4.6890    1.6810   18.4640 C   0  0  0  0  0  0  0  0  0  0  0  0
    3.9160    2.0630   19.5520 C   0  0  0  0  0  0  0  0  0  0  0  0
    4.2750    1.7050   20.8490 C   0  0  0  0  0  0  0  0  0  0  0  0
    5.4210    0.9600   21.0930 C   0  0  0  0  0  0  0  0  0  0  0  0
    9.0420    0.3700   21.5280 C   0  0  0  0  0  0  0  0  0  0  0  0
    9.5904   -5.8808   24.7806 C   0  0  0  0  0  0  0  0  0  0  0  0
    9.8870    1.3260   23.5730 C   0  0  0  0  0  0  0  0  0  0  0  0
    9.4560    0.1560   22.8130 C   0  0  1  0  0  0  0  0  0  0  0  0
    6.7580    0.3810   17.8350 N   0  0  0  0  0  0  0  0  0  0  0  0
    7.6390   -0.2680   18.5410 N   0  0  0  0  0  0  0  0  0  0  0  0
    6.1790    0.5730   19.9990 N   0  0  0  0  0  0  0  0  0  0  0  0
    8.1890   -0.7180   20.8700 N   0  0  0  0  0  0  0  0  0  0  0  0
    9.2690    1.4140   20.9380 O   0  0  0  0  0  0  0  0  0  0  0  0
    9.2567   -4.7121   25.5280 O   0  0  0  0  0  0  0  0  0  0  0  0
   13.6781    2.6957   23.3969 S   0  0  0  0  0  0  0  0  0  0  0  0
    8.9224   -0.1986   25.4209 H   0  0  0  0  0  0  0  0  0  0  0  0
   10.0638   -2.2321   21.8253 H   0  0  0  0  0  0  0  0  0  0  0  0
    8.6903   -2.3588   26.5807 H   0  0  0  0  0  0  0  0  0  0  0  0
    9.9258   -4.3917   22.9962 H   0  0  0  0  0  0  0  0  0  0  0  0
   12.1014   -0.5532   23.4119 H   0  0  0  0  0  0  0  0  0  0  0  0
   14.5445    0.4131   23.3009 H   0  0  0  0  0  0  0  0  0  0  0  0
   11.4871    3.7623   23.5403 H   0  0  0  0  0  0  0  0  0  0  0  0
    4.3967    1.9772   17.4718 H   0  0  0  0  0  0  0  0  0  0  0  0
    3.0218    2.6486   19.3697 H   0  0  0  0  0  0  0  0  0  0  0  0
    3.6566    2.0043   21.7065 H   0  0  0  0  0  0  0  0  0  0  0  0
    5.7190    0.6877   22.0810 H   0  0  0  0  0  0  0  0  0  0  0  0
    9.5095   -6.7607   25.4235 H   0  0  0  0  0  0  0  0  0  0  0  0
   10.6094   -5.7898   24.3961 H   0  0  0  0  0  0  0  0  0  0  0  0
    8.8947   -5.9784   23.9439 H   0  0  0  0  0  0  0  0  0  0  0  0
    9.5854    1.2495   24.6258 H   0  0  0  0  0  0  0  0  0  0  0  0
    9.3886    2.2282   23.1920 H   0  0  0  0  0  0  0  0  0  0  0  0
    8.0686    0.4964   23.2745 H   0  0  0  0  0  0  0  0  0  0  0  0
    8.2385   -1.5646   21.0947 H   0  0  0  0  0  0  0  0  0  0  0  0
  1  3  2  0  0  0  0
  1  8  1  0  0  0  0
  2  4  1  0  0  0  0
  2  8  2  0  0  0  0
  3 10  1  0  0  0  0
  4 10  2  0  0  0  0
  5  6  2  0  0  0  0
  5  9  1  0  0  0  0
  6 27  1  0  0  0  0
  7  9  2  0  0  0  0
  7 27  1  0  0  0  0
  8 20  1  0  0  0  0
  9 19  1  0  0  0  0
 10 26  1  0  0  0  0
 11 13  1  0  0  0  0
 11 21  2  0  0  0  0
 11 23  1  0  0  0  0
 12 22  2  0  0  0  0
 12 23  1  0  0  0  0
 12 24  1  0  0  0  0
 13 14  2  0  0  0  0
 14 15  1  0  0  0  0
 15 16  2  0  0  0  0
 16 23  1  0  0  0  0
 17 20  1  0  0  0  0
 17 24  1  0  0  0  0
 17 25  2  0  0  0  0
 18 26  1  0  0  0  0
 19 20  1  1  0  0  0
 21 22  1  0  0  0  0
  1 28  1  0  0  0  0
  2 29  1  0  0  0  0
  3 30  1  0  0  0  0
  4 31  1  0  0  0  0
  5 32  1  0  0  0  0
  6 33  1  0  0  0  0
  7 34  1  0  0  0  0
 13 35  1  0  0  0  0
 14 36  1  0  0  0  0
 15 37  1  0  0  0  0
 16 38  1  0  0  0  0
 18 39  1  0  0  0  0
 18 40  1  0  0  0  0
 18 41  1  0  0  0  0
 19 42  1  0  0  0  0
 19 43  1  0  0  0  0
 20 44  1  0  0  0  0
 24 45  1  0  0  0  0
M  END
> <clash_score>
0

> <docking_score>
-9.543008804321289

> <overlap_score>
0.970275342464447

$$$$
BENZO_325_1
  -OEChem-08222022193D

 48 51  0     1  0  0  0  0  0999 V2000
   14.1341    1.9700   23.3555 C   0  0  0  0  0  0  0  0  0  0  0  0
   13.2717    3.0548   23.5141 C   0  0  0  0  0  0  0  0  0  0  0  0
   13.6192    0.6767   23.2672 C   0  0  0  0  0  0  0  0  0  0  0  0
   11.8943    2.8461   23.5846 C   0  0  0  0  0  0  0  0  0  0  0  0
   12.2418    0.4681   23.3377 C   0  0  0  0  0  0  0  0  0  0  0  0
    9.0720   -1.1280   24.8640 C   0  0  0  0  0  0  0  0  0  0  0  0
    9.7200   -2.2600   22.8630 C   0  0  0  0  0  0  0  0  0  0  0  0
    8.9960   -2.3380   25.5320 C   0  0  0  0  0  0  0  0  0  0  0  0
    9.6730   -3.4710   23.5300 C   0  0  0  0  0  0  0  0  0  0  0  0
   11.3794    1.5528   23.4964 C   0  0  0  0  0  0  0  0  0  0  0  0
    9.3350   -1.0880   23.5010 C   0  0  0  0  0  0  0  0  0  0  0  0
    9.3070   -3.5340   24.8780 C   0  0  0  0  0  0  0  0  0  0  0  0
    5.8300    0.9190   18.6970 C   0  0  0  0  0  0  0  0  0  0  0  0
    7.3170   -0.1610   19.8550 C   0  0  0  0  0  0  0  0  0  0  0  0
    4.6890    1.6810   18.4640 C   0  0  0  0  0  0  0  0  0  0  0  0
    3.9160    2.0630   19.5520 C   0  0  0  0  0  0  0  0  0  0  0  0
    4.2750    1.7050   20.8490 C   0  0  0  0  0  0  0  0  0  0  0  0
    5.4210    0.9600   21.0930 C   0  0  0  0  0  0  0  0  0  0  0  0
    9.0420    0.3700   21.5280 C   0  0  0  0  0  0  0  0  0  0  0  0
    8.8744   -4.6797   26.9022 C   0  0  0  0  0  0  0  0  0  0  0  0
    9.8870    1.3260   23.5730 C   0  0  0  0  0  0  0  0  0  0  0  0
    9.4560    0.1560   22.8130 C   0  0  1  0  0  0  0  0  0  0  0  0
    6.7580    0.3810   17.8350 N   0  0  0  0  0  0  0  0  0  0  0  0
    7.6390   -0.2680   18.5410 N   0  0  0  0  0  0  0  0  0  0  0  0
    6.1790    0.5730   19.9990 N   0  0  0  0  0  0  0  0  0  0  0  0
    8.1890   -0.7180   20.8700 N   0  0  0  0  0  0  0  0  0  0  0  0
    9.2690    1.4140   20.9380 O   0  0  0  0  0  0  0  0  0  0  0  0
    9.2567   -4.7121   25.5280 O   0  0  0  0  0  0  0  0  0  0  0  0
   15.2065    2.1328   23.2992 H   0  0  0  0  0  0  0  0  0  0  0  0
   13.6724    4.0620   23.5817 H   0  0  0  0  0  0  0  0  0  0  0  0
   14.2903   -0.1680   23.1426 H   0  0  0  0  0  0  0  0  0  0  0  0
   11.2299    3.6973   23.7085 H   0  0  0  0  0  0  0  0  0  0  0  0
   11.8496   -0.5431   23.2682 H   0  0  0  0  0  0  0  0  0  0  0  0
    8.9224   -0.1986   25.4209 H   0  0  0  0  0  0  0  0  0  0  0  0
   10.0638   -2.2321   21.8253 H   0  0  0  0  0  0  0  0  0  0  0  0
    8.6903   -2.3588   26.5807 H   0  0  0  0  0  0  0  0  0  0  0  0
    9.9258   -4.3917   22.9962 H   0  0  0  0  0  0  0  0  0  0  0  0
    4.3967    1.9772   17.4718 H   0  0  0  0  0  0  0  0  0  0  0  0
    3.0218    2.6486   19.3697 H   0  0  0  0  0  0  0  0  0  0  0  0
    3.6566    2.0043   21.7065 H   0  0  0  0  0  0  0  0  0  0  0  0
    5.7190    0.6877   22.0810 H   0  0  0  0  0  0  0  0  0  0  0  0
    8.8744   -5.6954   27.3053 H   0  0  0  0  0  0  0  0  0  0  0  0
    7.8781   -4.2399   26.9939 H   0  0  0  0  0  0  0  0  0  0  0  0
    9.5921   -4.0702   27.4565 H   0  0  0  0  0  0  0  0  0  0  0  0
    9.5854    1.2495   24.6258 H   0  0  0  0  0  0  0  0  0  0  0  0
    9.3886    2.2282   23.1920 H   0  0  0  0  0  0  0  0  0  0  0  0
    8.0686    0.4964   23.2745 H   0  0  0  0  0  0  0  0  0  0  0  0
    8.2385   -1.5646   21.0947 H   0  0  0  0  0  0  0  0  0  0  0  0
  1  2  1  0  0  0  0
  1  3  2  0  0  0  0
  2  4  2  0  0  0  0
  3  5  1  0  0  0  0
  4 10  1  0  0  0  0
  5 10  2  0  0  0  0
  6  8  2  0  0  0  0
  6 11  1  0  0  0  0
  7  9  1  0  0  0  0
  7 11  2  0  0  0  0
  8 12  1  0  0  0  0
  9 12  2  0  0  0  0
 10 21  1  0  0  0  0
 11 22  1  0  0  0  0
 12 28  1  0  0  0  0
 13 15  1  0  0  0  0
 13 23  2  0  0  0  0
 13 25  1  0  0  0  0
 14 24  2  0  0  0  0
 14 25  1  0  0  0  0
 14 26  1  0  0  0  0
 15 16  2  0  0  0  0
 16 17  1  0  0  0  0
 17 18  2  0  0  0  0
 18 25  1  0  0  0  0
 19 22  1  0  0  0  0
 19 26  1  0  0  0  0
 19 27  2  0  0  0  0
 20 28  1  0  0  0  0
 21 22  1  1  0  0  0
 23 24  1  0  0  0  0
  1 29  1  0  0  0  0
  2 30  1  0  0  0  0
  3 31  1  0  0  0  0
  4 32  1  0  0  0  0
  5 33  1  0  0  0  0
  6 34  1  0  0  0  0
  7 35  1  0  0  0  0
  8 36  1  0  0  0  0
  9 37  1  0  0  0  0
 15 38  1  0  0  0  0
 16 39  1  0  0  0  0
 17 40  1  0  0  0  0
 18 41  1  0  0  0  0
 20 42  1  0  0  0  0
 20 43  1  0  0  0  0
 20 44  1  0  0  0  0
 21 45  1  0  0  0  0
 21 46  1  0  0  0  0
 22 47  1  0  0  0  0
 26 48  1  0  0  0  0
M  END
> <clash_score>
0

> <docking_score>
-9.106318473815918

> <overlap_score>
0.9831550717353821

$$$$
BENZO_325_2
  -OEChem-08222022193D

 48 51  0     1  0  0  0  0  0999 V2000
   12.9427    3.5803   21.5528 C   0  0  0  0  0  0  0  0  0  0  0  0
   13.2971    2.5494   22.4231 C   0  0  0  0  0  0  0  0  0  0  0  0
   11.5975    3.8801   21.3380 C   0  0  0  0  0  0  0  0  0  0  0  0
   12.3064    1.8183   23.0784 C   0  0  0  0  0  0  0  0  0  0  0  0
   10.6067    3.1489   21.9933 C   0  0  0  0  0  0  0  0  0  0  0  0
    9.0720   -1.1280   24.8640 C   0  0  0  0  0  0  0  0  0  0  0  0
    9.7200   -2.2600   22.8630 C   0  0  0  0  0  0  0  0  0  0  0  0
    8.9960   -2.3380   25.5320 C   0  0  0  0  0  0  0  0  0  0  0  0
    9.6730   -3.4710   23.5300 C   0  0  0  0  0  0  0  0  0  0  0  0
   10.9611    2.1180   22.8635 C   0  0  0  0  0  0  0  0  0  0  0  0
    9.3350   -1.0880   23.5010 C   0  0  0  0  0  0  0  0  0  0  0  0
    9.3070   -3.5340   24.8780 C   0  0  0  0  0  0  0  0  0  0  0  0
    5.8300    0.9190   18.6970 C   0  0  0  0  0  0  0  0  0  0  0  0
    7.3170   -0.1610   19.8550 C   0  0  0  0  0  0  0  0  0  0  0  0
    4.6890    1.6810   18.4640 C   0  0  0  0  0  0  0  0  0  0  0  0
    3.9160    2.0630   19.5520 C   0  0  0  0  0  0  0  0  0  0  0  0
    4.2750    1.7050   20.8490 C   0  0  0  0  0  0  0  0  0  0  0  0
    5.4210    0.9600   21.0930 C   0  0  0  0  0  0  0  0  0  0  0  0
    9.0420    0.3700   21.5280 C   0  0  0  0  0  0  0  0  0  0  0  0
    8.8744   -4.6797   26.9022 C   0  0  0  0  0  0  0  0  0  0  0  0
    9.8870    1.3260   23.5730 C   0  0  0  0  0  0  0  0  0  0  0  0
    9.4560    0.1560   22.8130 C   0  0  2  0  0  0  0  0  0  0  0  0
    6.7580    0.3810   17.8350 N   0  0  0  0  0  0  0  0  0  0  0  0
    7.6390   -0.2680   18.5410 N   0  0  0  0  0  0  0  0  0  0  0  0
    6.1790    0.5730   19.9990 N   0  0  0  0  0  0  0  0  0  0  0  0
    8.1890   -0.7180   20.8700 N   0  0  0  0  0  0  0  0  0  0  0  0
    9.2690    1.4140   20.9380 O   0  0  0  0  0  0  0  0  0  0  0  0
    9.2567   -4.7121   25.5280 O   0  0  0  0  0  0  0  0  0  0  0  0
   13.7143    4.1504   21.0437 H   0  0  0  0  0  0  0  0  0  0  0  0
   14.3446    2.3166   22.5913 H   0  0  0  0  0  0  0  0  0  0  0  0
   11.3212    4.6833   20.6614 H   0  0  0  0  0  0  0  0  0  0  0  0
   12.5919    1.0167   23.7545 H   0  0  0  0  0  0  0  0  0  0  0  0
    9.5611    3.3895   21.8196 H   0  0  0  0  0  0  0  0  0  0  0  0
    8.9224   -0.1986   25.4209 H   0  0  0  0  0  0  0  0  0  0  0  0
   10.0638   -2.2321   21.8253 H   0  0  0  0  0  0  0  0  0  0  0  0
    8.6903   -2.3588   26.5807 H   0  0  0  0  0  0  0  0  0  0  0  0
    9.9258   -4.3917   22.9962 H   0  0  0  0  0  0  0  0  0  0  0  0
    4.3967    1.9772   17.4718 H   0  0  0  0  0  0  0  0  0  0  0  0
    3.0218    2.6486   19.3697 H   0  0  0  0  0  0  0  0  0  0  0  0
    3.6566    2.0043   21.7065 H   0  0  0  0  0  0  0  0  0  0  0  0
    5.7190    0.6877   22.0810 H   0  0  0  0  0  0  0  0  0  0  0  0
    8.8744   -5.6954   27.3053 H   0  0  0  0  0  0  0  0  0  0  0  0
    7.8781   -4.2399   26.9939 H   0  0  0  0  0  0  0  0  0  0  0  0
    9.5921   -4.0702   27.4565 H   0  0  0  0  0  0  0  0  0  0  0  0
   10.2455    1.0419   24.5710 H   0  0  0  0  0  0  0  0  0  0  0  0
    9.0345    1.9965   23.7496 H   0  0  0  0  0  0  0  0  0  0  0  0
   10.7927   -0.1029   22.4279 H   0  0  0  0  0  0  0  0  0  0  0  0
    8.2385   -1.5646   21.0947 H   0  0  0  0  0  0  0  0  0  0  0  0
  1  2  1  0  0  0  0
  1  3  2  0  0  0  0
  2  4  2  0  0  0  0
  3  5  1  0  0  0  0
  4 10  1  0  0  0  0
  5 10  2  0  0  0  0
  6  8  2  0  0  0  0
  6 11  1  0  0  0  0
  7  9  1  0  0  0  0
  7 11  2  0  0  0  0
  8 12  1  0  0  0  0
  9 12  2  0  0  0  0
 10 21  1  0  0  0  0
 11 22  1  0  0  0  0
 12 28  1  0  0  0  0
 13 15  1  0  0  0  0
 13 23  2  0  0  0  0
 13 25  1  0  0  0  0
 14 24  2  0  0  0  0
 14 25  1  0  0  0  0
 14 26  1  0  0  0  0
 15 16  2  0  0  0  0
 16 17  1  0  0  0  0
 17 18  2  0  0  0  0
 18 25  1  0  0  0  0
 19 22  1  0  0  0  0
 19 26  1  0  0  0  0
 19 27  2  0  0  0  0
 20 28  1  0  0  0  0
 21 22  1  6  0  0  0
 23 24  1  0  0  0  0
  1 29  1  0  0  0  0
  2 30  1  0  0  0  0
  3 31  1  0  0  0  0
  4 32  1  0  0  0  0
  5 33  1  0  0  0  0
  6 34  1  0  0  0  0
  7 35  1  0  0  0  0
  8 36  1  0  0  0  0
  9 37  1  0  0  0  0
 15 38  1  0  0  0  0
 16 39  1  0  0  0  0
 17 40  1  0  0  0  0
 18 41  1  0  0  0  0
 20 42  1  0  0  0  0
 20 43  1  0  0  0  0
 20 44  1  0  0  0  0
 21 45  1  0  0  0  0
 21 46  1  0  0  0  0
 22 47  1  0  0  0  0
 26 48  1  0  0  0  0
M  END
> <clash_score>
0.6163884898919225

> <docking_score>
-9.026508331298828

> <overlap_score>
0.9387645125389099

$$$$
BENZO_324_2
  -OEChem-08222022193D

 45 48  0     1  0  0  0  0  0999 V2000
    9.0720   -1.1280   24.8640 C   0  0  0  0  0  0  0  0  0  0  0  0
    9.7200   -2.2600   22.8630 C   0  0  0  0  0  0  0  0  0  0  0  0
    8.9960   -2.3380   25.5320 C   0  0  0  0  0  0  0  0  0  0  0  0
    9.6730   -3.4710   23.5300 C   0  0  0  0  0  0  0  0  0  0  0  0
   12.3907    0.6679   23.6950 C   0  0  0  0  0  0  0  0  0  0  0  0
   13.4189    0.5308   24.6014 C   0  0  0  0  0  0  0  0  0  0  0  0
   11.3314    1.2632   25.6764 C   0  0  0  0  0  0  0  0  0  0  0  0
    9.3350   -1.0880   23.5010 C   0  0  0  0  0  0  0  0  0  0  0  0
   11.1814    1.0923   24.3176 C   0  0  0  0  0  0  0  0  0  0  0  0
    9.3070   -3.5340   24.8780 C   0  0  0  0  0  0  0  0  0  0  0  0
    5.8300    0.9190   18.6970 C   0  0  0  0  0  0  0  0  0  0  0  0
    7.3170   -0.1610   19.8550 C   0  0  0  0  0  0  0  0  0  0  0  0
    4.6890    1.6810   18.4640 C   0  0  0  0  0  0  0  0  0  0  0  0
    3.9160    2.0630   19.5520 C   0  0  0  0  0  0  0  0  0  0  0  0
    4.2750    1.7050   20.8490 C   0  0  0  0  0  0  0  0  0  0  0  0
    5.4210    0.9600   21.0930 C   0  0  0  0  0  0  0  0  0  0  0  0
    9.0420    0.3700   21.5280 C   0  0  0  0  0  0  0  0  0  0  0  0
    8.8744   -4.6797   26.9022 C   0  0  0  0  0  0  0  0  0  0  0  0
    9.8870    1.3260   23.5730 C   0  0  0  0  0  0  0  0  0  0  0  0
    9.4560    0.1560   22.8130 C   0  0  2  0  0  0  0  0  0  0  0  0
    6.7580    0.3810   17.8350 N   0  0  0  0  0  0  0  0  0  0  0  0
    7.6390   -0.2680   18.5410 N   0  0  0  0  0  0  0  0  0  0  0  0
    6.1790    0.5730   19.9990 N   0  0  0  0  0  0  0  0  0  0  0  0
    8.1890   -0.7180   20.8700 N   0  0  0  0  0  0  0  0  0  0  0  0
    9.2690    1.4140   20.9380 O   0  0  0  0  0  0  0  0  0  0  0  0
    9.2567   -4.7121   25.5280 O   0  0  0  0  0  0  0  0  0  0  0  0
   12.9250    0.9128   26.1959 S   0  0  0  0  0  0  0  0  0  0  0  0
    8.9224   -0.1986   25.4209 H   0  0  0  0  0  0  0  0  0  0  0  0
   10.0638   -2.2321   21.8253 H   0  0  0  0  0  0  0  0  0  0  0  0
    8.6903   -2.3588   26.5807 H   0  0  0  0  0  0  0  0  0  0  0  0
    9.9258   -4.3917   22.9962 H   0  0  0  0  0  0  0  0  0  0  0  0
   12.5049    0.4716   22.6364 H   0  0  0  0  0  0  0  0  0  0  0  0
   14.4362    0.2239   24.4037 H   0  0  0  0  0  0  0  0  0  0  0  0
   10.5839    1.5757   26.3924 H   0  0  0  0  0  0  0  0  0  0  0  0
    4.3967    1.9772   17.4718 H   0  0  0  0  0  0  0  0  0  0  0  0
    3.0218    2.6486   19.3697 H   0  0  0  0  0  0  0  0  0  0  0  0
    3.6566    2.0043   21.7065 H   0  0  0  0  0  0  0  0  0  0  0  0
    5.7190    0.6877   22.0810 H   0  0  0  0  0  0  0  0  0  0  0  0
    8.8744   -5.6954   27.3053 H   0  0  0  0  0  0  0  0  0  0  0  0
    7.8781   -4.2399   26.9939 H   0  0  0  0  0  0  0  0  0  0  0  0
    9.5921   -4.0702   27.4565 H   0  0  0  0  0  0  0  0  0  0  0  0
    9.1131    1.6463   24.2828 H   0  0  0  0  0  0  0  0  0  0  0  0
   10.0354    2.1807   22.8984 H   0  0  0  0  0  0  0  0  0  0  0  0
   10.7927   -0.1029   22.4279 H   0  0  0  0  0  0  0  0  0  0  0  0
    8.2385   -1.5646   21.0947 H   0  0  0  0  0  0  0  0  0  0  0  0
  1  3  2  0  0  0  0
  1  8  1  0  0  0  0
  2  4  1  0  0  0  0
  2  8  2  0  0  0  0
  3 10  1  0  0  0  0
  4 10  2  0  0  0  0
  5  6  2  0  0  0  0
  5  9  1  0  0  0  0
  6 27  1  0  0  0  0
  7  9  2  0  0  0  0
  7 27  1  0  0  0  0
  8 20  1  0  0  0  0
  9 19  1  0  0  0  0
 10 26  1  0  0  0  0
 11 13  1  0  0  0  0
 11 21  2  0  0  0  0
 11 23  1  0  0  0  0
 12 22  2  0  0  0  0
 12 23  1  0  0  0  0
 12 24  1  0  0  0  0
 13 14  2  0  0  0  0
 14 15  1  0  0  0  0
 15 16  2  0  0  0  0
 16 23  1  0  0  0  0
 17 20  1  0  0  0  0
 17 24  1  0  0  0  0
 17 25  2  0  0  0  0
 18 26  1  0  0  0  0
 19 20  1  6  0  0  0
 21 22  1  0  0  0  0
  1 28  1  0  0  0  0
  2 29  1  0  0  0  0
  3 30  1  0  0  0  0
  4 31  1  0  0  0  0
  5 32  1  0  0  0  0
  6 33  1  0  0  0  0
  7 34  1  0  0  0  0
 13 35  1  0  0  0  0
 14 36  1  0  0  0  0
 15 37  1  0  0  0  0
 16 38  1  0  0  0  0
 18 39  1  0  0  0  0
 18 40  1  0  0  0  0
 18 41  1  0  0  0  0
 19 42  1  0  0  0  0
 19 43  1  0  0  0  0
 20 44  1  0  0  0  0
 24 45  1  0  0  0  0
M  END
> <clash_score>
0.6216871897272661

> <docking_score>
-7.45633602142334

> <overlap_score>
0.8906731009483337

$$$$
BENZO_327_1
  -OEChem-08222022193D

 48 51  0     1  0  0  0  0  0999 V2000
    9.0720   -1.1280   24.8640 C   0  0  0  0  0  0  0  0  0  0  0  0
    9.7200   -2.2600   22.8630 C   0  0  0  0  0  0  0  0  0  0  0  0
    8.9960   -2.3380   25.5320 C   0  0  0  0  0  0  0  0  0  0  0  0
    9.6730   -3.4710   23.5300 C   0  0  0  0  0  0  0  0  0  0  0  0
   12.0720    2.7762   23.5689 C   0  0  0  0  0  0  0  0  0  0  0  0
   12.3651    0.6087   23.3429 C   0  0  0  0  0  0  0  0  0  0  0  0
    9.3350   -1.0880   23.5010 C   0  0  0  0  0  0  0  0  0  0  0  0
   11.3794    1.5528   23.4964 C   0  0  0  0  0  0  0  0  0  0  0  0
    9.3070   -3.5340   24.8780 C   0  0  0  0  0  0  0  0  0  0  0  0
    5.8300    0.9190   18.6970 C   0  0  0  0  0  0  0  0  0  0  0  0
    7.3170   -0.1610   19.8550 C   0  0  0  0  0  0  0  0  0  0  0  0
    4.6890    1.6810   18.4640 C   0  0  0  0  0  0  0  0  0  0  0  0
    3.9160    2.0630   19.5520 C   0  0  0  0  0  0  0  0  0  0  0  0
    4.2750    1.7050   20.8490 C   0  0  0  0  0  0  0  0  0  0  0  0
    5.4210    0.9600   21.0930 C   0  0  0  0  0  0  0  0  0  0  0  0
    9.0420    0.3700   21.5280 C   0  0  0  0  0  0  0  0  0  0  0  0
   14.8634    0.7326   23.1949 C   0  0  0  0  0  0  0  0  0  0  0  0
    8.8744   -4.6797   26.9022 C   0  0  0  0  0  0  0  0  0  0  0  0
    9.8870    1.3260   23.5730 C   0  0  0  0  0  0  0  0  0  0  0  0
    9.4560    0.1560   22.8130 C   0  0  1  0  0  0  0  0  0  0  0  0
   13.3955    2.6261   23.4698 N   0  0  0  0  0  0  0  0  0  0  0  0
    6.7580    0.3810   17.8350 N   0  0  0  0  0  0  0  0  0  0  0  0
    7.6390   -0.2680   18.5410 N   0  0  0  0  0  0  0  0  0  0  0  0
   13.5424    1.2972   23.3335 N   0  0  0  0  0  0  0  0  0  0  0  0
    6.1790    0.5730   19.9990 N   0  0  0  0  0  0  0  0  0  0  0  0
    8.1890   -0.7180   20.8700 N   0  0  0  0  0  0  0  0  0  0  0  0
    9.2690    1.4140   20.9380 O   0  0  0  0  0  0  0  0  0  0  0  0
    9.2567   -4.7121   25.5280 O   0  0  0  0  0  0  0  0  0  0  0  0
    8.9224   -0.1986   25.4209 H   0  0  0  0  0  0  0  0  0  0  0  0
   10.0638   -2.2321   21.8253 H   0  0  0  0  0  0  0  0  0  0  0  0
    8.6903   -2.3588   26.5807 H   0  0  0  0  0  0  0  0  0  0  0  0
    9.9258   -4.3917   22.9962 H   0  0  0  0  0  0  0  0  0  0  0  0
   11.6698    3.7720   23.6907 H   0  0  0  0  0  0  0  0  0  0  0  0
   12.3300   -0.4677   23.2433 H   0  0  0  0  0  0  0  0  0  0  0  0
    4.3967    1.9772   17.4718 H   0  0  0  0  0  0  0  0  0  0  0  0
    3.0218    2.6486   19.3697 H   0  0  0  0  0  0  0  0  0  0  0  0
    3.6566    2.0043   21.7065 H   0  0  0  0  0  0  0  0  0  0  0  0
    5.7190    0.6877   22.0810 H   0  0  0  0  0  0  0  0  0  0  0  0
   15.1060    0.6995   22.1295 H   0  0  0  0  0  0  0  0  0  0  0  0
   15.5839    1.3558   23.7319 H   0  0  0  0  0  0  0  0  0  0  0  0
   14.8726   -0.2742   23.6217 H   0  0  0  0  0  0  0  0  0  0  0  0
    8.8744   -5.6954   27.3053 H   0  0  0  0  0  0  0  0  0  0  0  0
    7.8781   -4.2399   26.9939 H   0  0  0  0  0  0  0  0  0  0  0  0
    9.5921   -4.0702   27.4565 H   0  0  0  0  0  0  0  0  0  0  0  0
    9.5854    1.2495   24.6258 H   0  0  0  0  0  0  0  0  0  0  0  0
    9.3886    2.2282   23.1920 H   0  0  0  0  0  0  0  0  0  0  0  0
    8.0686    0.4964   23.2745 H   0  0  0  0  0  0  0  0  0  0  0  0
    8.2385   -1.5646   21.0947 H   0  0  0  0  0  0  0  0  0  0  0  0
  1  3  2  0  0  0  0
  1  7  1  0  0  0  0
  2  4  1  0  0  0  0
  2  7  2  0  0  0  0
  3  9  1  0  0  0  0
  4  9  2  0  0  0  0
  5  8  1  0  0  0  0
  5 21  2  0  0  0  0
  6  8  2  0  0  0  0
  6 24  1  0  0  0  0
  7 20  1  0  0  0  0
  8 19  1  0  0  0  0
  9 28  1  0  0  0  0
 10 12  1  0  0  0  0
 10 22  2  0  0  0  0
 10 25  1  0  0  0  0
 11 23  2  0  0  0  0
 11 25  1  0  0  0  0
 11 26  1  0  0  0  0
 12 13  2  0  0  0  0
 13 14  1  0  0  0  0
 14 15  2  0  0  0  0
 15 25  1  0  0  0  0
 16 20  1  0  0  0  0
 16 26  1  0  0  0  0
 16 27  2  0  0  0  0
 17 24  1  0  0  0  0
 18 28  1  0  0  0  0
 19 20  1  1  0  0  0
 21 24  1  0  0  0  0
 22 23  1  0  0  0  0
  1 29  1  0  0  0  0
  2 30  1  0  0  0  0
  3 31  1  0  0  0  0
  4 32  1  0  0  0  0
  5 33  1  0  0  0  0
  6 34  1  0  0  0  0
 12 35  1  0  0  0  0
 13 36  1  0  0  0  0
 14 37  1  0  0  0  0
 15 38  1  0  0  0  0
 17 39  1  0  0  0  0
 17 40  1  0  0  0  0
 17 41  1  0  0  0  0
 18 42  1  0  0  0  0
 18 43  1  0  0  0  0
 18 44  1  0  0  0  0
 19 45  1  0  0  0  0
 19 46  1  0  0  0  0
 20 47  1  0  0  0  0
 26 48  1  0  0  0  0
M  END
> <clash_score>
0

> <docking_score>
-9.146928787231445

> <overlap_score>
0.9840041399002075

$$$$
BENZO_326_2
  -OEChem-08222022193D

 48 51  0     1  0  0  0  0  0999 V2000
   13.2976    2.5464   22.4233 C   0  0  0  0  0  0  0  0  0  0  0  0
   12.3059    1.8167   23.0786 C   0  0  0  0  0  0  0  0  0  0  0  0
    9.0720   -1.1280   24.8640 C   0  0  0  0  0  0  0  0  0  0  0  0
    9.7200   -2.2600   22.8630 C   0  0  0  0  0  0  0  0  0  0  0  0
    8.9960   -2.3380   25.5320 C   0  0  0  0  0  0  0  0  0  0  0  0
    9.6730   -3.4710   23.5300 C   0  0  0  0  0  0  0  0  0  0  0  0
   12.9446    3.5777   21.5528 C   0  0  0  0  0  0  0  0  0  0  0  0
   10.6080    3.1492   21.9930 C   0  0  0  0  0  0  0  0  0  0  0  0
    9.3350   -1.0880   23.5010 C   0  0  0  0  0  0  0  0  0  0  0  0
   10.9611    2.1180   22.8635 C   0  0  0  0  0  0  0  0  0  0  0  0
    9.3070   -3.5340   24.8780 C   0  0  0  0  0  0  0  0  0  0  0  0
   11.5998    3.8790   21.3377 C   0  0  0  0  0  0  0  0  0  0  0  0
    5.8300    0.9190   18.6970 C   0  0  0  0  0  0  0  0  0  0  0  0
    7.3170   -0.1610   19.8550 C   0  0  0  0  0  0  0  0  0  0  0  0
    4.6890    1.6810   18.4640 C   0  0  0  0  0  0  0  0  0  0  0  0
    3.9160    2.0630   19.5520 C   0  0  0  0  0  0  0  0  0  0  0  0
    4.2750    1.7050   20.8490 C   0  0  0  0  0  0  0  0  0  0  0  0
    5.4210    0.9600   21.0930 C   0  0  0  0  0  0  0  0  0  0  0  0
    9.0420    0.3700   21.5280 C   0  0  0  0  0  0  0  0  0  0  0  0
    9.5904   -5.8808   24.7806 C   0  0  0  0  0  0  0  0  0  0  0  0
    9.8870    1.3260   23.5730 C   0  0  0  0  0  0  0  0  0  0  0  0
    9.4560    0.1560   22.8130 C   0  0  2  0  0  0  0  0  0  0  0  0
    6.7580    0.3810   17.8350 N   0  0  0  0  0  0  0  0  0  0  0  0
    7.6390   -0.2680   18.5410 N   0  0  0  0  0  0  0  0  0  0  0  0
    6.1790    0.5730   19.9990 N   0  0  0  0  0  0  0  0  0  0  0  0
    8.1890   -0.7180   20.8700 N   0  0  0  0  0  0  0  0  0  0  0  0
    9.2690    1.4140   20.9380 O   0  0  0  0  0  0  0  0  0  0  0  0
    9.2567   -4.7121   25.5280 O   0  0  0  0  0  0  0  0  0  0  0  0
   11.1647    5.1506   20.2627 Cl  0  0  0  0  0  0  0  0  0  0  0  0
   14.3447    2.3114   22.5909 H   0  0  0  0  0  0  0  0  0  0  0  0
   12.5902    1.0148   23.7550 H   0  0  0  0  0  0  0  0  0  0  0  0
    8.9224   -0.1986   25.4209 H   0  0  0  0  0  0  0  0  0  0  0  0
   10.0638   -2.2321   21.8253 H   0  0  0  0  0  0  0  0  0  0  0  0
    8.6903   -2.3588   26.5807 H   0  0  0  0  0  0  0  0  0  0  0  0
    9.9258   -4.3917   22.9962 H   0  0  0  0  0  0  0  0  0  0  0  0
   13.7282    4.1379   21.0487 H   0  0  0  0  0  0  0  0  0  0  0  0
    9.5581    3.3806   21.8290 H   0  0  0  0  0  0  0  0  0  0  0  0
    4.3967    1.9772   17.4718 H   0  0  0  0  0  0  0  0  0  0  0  0
    3.0218    2.6486   19.3697 H   0  0  0  0  0  0  0  0  0  0  0  0
    3.6566    2.0043   21.7065 H   0  0  0  0  0  0  0  0  0  0  0  0
    5.7190    0.6877   22.0810 H   0  0  0  0  0  0  0  0  0  0  0  0
    9.5095   -6.7607   25.4235 H   0  0  0  0  0  0  0  0  0  0  0  0
   10.6094   -5.7898   24.3961 H   0  0  0  0  0  0  0  0  0  0  0  0
    8.8947   -5.9784   23.9439 H   0  0  0  0  0  0  0  0  0  0  0  0
   10.2455    1.0419   24.5710 H   0  0  0  0  0  0  0  0  0  0  0  0
    9.0345    1.9965   23.7496 H   0  0  0  0  0  0  0  0  0  0  0  0
   10.7927   -0.1029   22.4279 H   0  0  0  0  0  0  0  0  0  0  0  0
    8.2385   -1.5646   21.0947 H   0  0  0  0  0  0  0  0  0  0  0  0
  1  2  2  0  0  0  0
  1  7  1  0  0  0  0
  2 10  1  0  0  0  0
  3  5  2  0  0  0  0
  3  9  1  0  0  0  0
  4  6  1  0  0  0  0
  4  9  2  0  0  0  0
  5 11  1  0  0  0  0
  6 11  2  0  0  0  0
  7 12  2  0  0  0  0
  8 10  2  0  0  0  0
  8 12  1  0  0  0  0
  9 22  1  0  0  0  0
 10 21  1  0  0  0  0
 11 28  1  0  0  0  0
 12 29  1  0  0  0  0
 13 15  1  0  0  0  0
 13 23  2  0  0  0  0
 13 25  1  0  0  0  0
 14 24  2  0  0  0  0
 14 25  1  0  0  0  0
 14 26  1  0  0  0  0
 15 16  2  0  0  0  0
 16 17  1  0  0  0  0
 17 18  2  0  0  0  0
 18 25  1  0  0  0  0
 19 22  1  0  0  0  0
 19 26  1  0  0  0  0
 19 27  2  0  0  0  0
 20 28  1  0  0  0  0
 21 22  1  6  0  0  0
 23 24  1  0  0  0  0
  1 30  1  0  0  0  0
  2 31  1  0  0  0  0
  3 32  1  0  0  0  0
  4 33  1  0  0  0  0
  5 34  1  0  0  0  0
  6 35  1  0  0  0  0
  7 36  1  0  0  0  0
  8 37  1  0  0  0  0
 15 38  1  0  0  0  0
 16 39  1  0  0  0  0
 17 40  1  0  0  0  0
 18 41  1  0  0  0  0
 20 42  1  0  0  0  0
 20 43  1  0  0  0  0
 20 44  1  0  0  0  0
 21 45  1  0  0  0  0
 21 46  1  0  0  0  0
 22 47  1  0  0  0  0
 26 48  1  0  0  0  0
M  END
> <clash_score>
2.2103005309889943

> <docking_score>
-8.290046691894531

> <overlap_score>
0.9400749802589417

$$$$
BENZO_326_1
  -OEChem-08222022193D

 48 51  0     1  0  0  0  0  0999 V2000
   13.6189    0.6768   23.2647 C   0  0  0  0  0  0  0  0  0  0  0  0
   12.2417    0.4681   23.3366 C   0  0  0  0  0  0  0  0  0  0  0  0
    9.0720   -1.1280   24.8640 C   0  0  0  0  0  0  0  0  0  0  0  0
    9.7200   -2.2600   22.8630 C   0  0  0  0  0  0  0  0  0  0  0  0
    8.9960   -2.3380   25.5320 C   0  0  0  0  0  0  0  0  0  0  0  0
    9.6730   -3.4710   23.5300 C   0  0  0  0  0  0  0  0  0  0  0  0
   14.1339    1.9702   23.3527 C   0  0  0  0  0  0  0  0  0  0  0  0
   11.8943    2.8462   23.5844 C   0  0  0  0  0  0  0  0  0  0  0  0
    9.3350   -1.0880   23.5010 C   0  0  0  0  0  0  0  0  0  0  0  0
   11.3794    1.5528   23.4964 C   0  0  0  0  0  0  0  0  0  0  0  0
    9.3070   -3.5340   24.8780 C   0  0  0  0  0  0  0  0  0  0  0  0
   13.2716    3.0548   23.5125 C   0  0  0  0  0  0  0  0  0  0  0  0
    5.8300    0.9190   18.6970 C   0  0  0  0  0  0  0  0  0  0  0  0
    7.3170   -0.1610   19.8550 C   0  0  0  0  0  0  0  0  0  0  0  0
    4.6890    1.6810   18.4640 C   0  0  0  0  0  0  0  0  0  0  0  0
    3.9160    2.0630   19.5520 C   0  0  0  0  0  0  0  0  0  0  0  0
    4.2750    1.7050   20.8490 C   0  0  0  0  0  0  0  0  0  0  0  0
    5.4210    0.9600   21.0930 C   0  0  0  0  0  0  0  0  0  0  0  0
    9.0420    0.3700   21.5280 C   0  0  0  0  0  0  0  0  0  0  0  0
    8.8744   -4.6797   26.9022 C   0  0  0  0  0  0  0  0  0  0  0  0
    9.8870    1.3260   23.5730 C   0  0  0  0  0  0  0  0  0  0  0  0
    9.4560    0.1560   22.8130 C   0  0  1  0  0  0  0  0  0  0  0  0
    6.7580    0.3810   17.8350 N   0  0  0  0  0  0  0  0  0  0  0  0
    7.6390   -0.2680   18.5410 N   0  0  0  0  0  0  0  0  0  0  0  0
    6.1790    0.5730   19.9990 N   0  0  0  0  0  0  0  0  0  0  0  0
    8.1890   -0.7180   20.8700 N   0  0  0  0  0  0  0  0  0  0  0  0
    9.2690    1.4140   20.9380 O   0  0  0  0  0  0  0  0  0  0  0  0
    9.2567   -4.7121   25.5280 O   0  0  0  0  0  0  0  0  0  0  0  0
   13.9075    4.6504   23.6198 Cl  0  0  0  0  0  0  0  0  0  0  0  0
   14.2901   -0.1681   23.1402 H   0  0  0  0  0  0  0  0  0  0  0  0
   11.8492   -0.5431   23.2671 H   0  0  0  0  0  0  0  0  0  0  0  0
    8.9224   -0.1986   25.4209 H   0  0  0  0  0  0  0  0  0  0  0  0
   10.0638   -2.2321   21.8253 H   0  0  0  0  0  0  0  0  0  0  0  0
    8.6903   -2.3588   26.5807 H   0  0  0  0  0  0  0  0  0  0  0  0
    9.9258   -4.3917   22.9962 H   0  0  0  0  0  0  0  0  0  0  0  0
   15.2095    2.1179   23.2949 H   0  0  0  0  0  0  0  0  0  0  0  0
   11.2178    3.6885   23.7094 H   0  0  0  0  0  0  0  0  0  0  0  0
    4.3967    1.9772   17.4718 H   0  0  0  0  0  0  0  0  0  0  0  0
    3.0218    2.6486   19.3697 H   0  0  0  0  0  0  0  0  0  0  0  0
    3.6566    2.0043   21.7065 H   0  0  0  0  0  0  0  0  0  0  0  0
    5.7190    0.6877   22.0810 H   0  0  0  0  0  0  0  0  0  0  0  0
    8.8744   -5.6954   27.3053 H   0  0  0  0  0  0  0  0  0  0  0  0
    7.8781   -4.2399   26.9939 H   0  0  0  0  0  0  0  0  0  0  0  0
    9.5921   -4.0702   27.4565 H   0  0  0  0  0  0  0  0  0  0  0  0
    9.5854    1.2495   24.6258 H   0  0  0  0  0  0  0  0  0  0  0  0
    9.3886    2.2282   23.1920 H   0  0  0  0  0  0  0  0  0  0  0  0
    8.0686    0.4964   23.2745 H   0  0  0  0  0  0  0  0  0  0  0  0
    8.2385   -1.5646   21.0947 H   0  0  0  0  0  0  0  0  0  0  0  0
  1  2  2  0  0  0  0
  1  7  1  0  0  0  0
  2 10  1  0  0  0  0
  3  5  2  0  0  0  0
  3  9  1  0  0  0  0
  4  6  1  0  0  0  0
  4  9  2  0  0  0  0
  5 11  1  0  0  0  0
  6 11  2  0  0  0  0
  7 12  2  0  0  0  0
  8 10  2  0  0  0  0
  8 12  1  0  0  0  0
  9 22  1  0  0  0  0
 10 21  1  0  0  0  0
 11 28  1  0  0  0  0
 12 29  1  0  0  0  0
 13 15  1  0  0  0  0
 13 23  2  0  0  0  0
 13 25  1  0  0  0  0
 14 24  2  0  0  0  0
 14 25  1  0  0  0  0
 14 26  1  0  0  0  0
 15 16  2  0  0  0  0
 16 17  1  0  0  0  0
 17 18  2  0  0  0  0
 18 25  1  0  0  0  0
 19 22  1  0  0  0  0
 19 26  1  0  0  0  0
 19 27  2  0  0  0  0
 20 28  1  0  0  0  0
 21 22  1  1  0  0  0
 23 24  1  0  0  0  0
  1 30  1  0  0  0  0
  2 31  1  0  0  0  0
  3 32  1  0  0  0  0
  4 33  1  0  0  0  0
  5 34  1  0  0  0  0
  6 35  1  0  0  0  0
  7 36  1  0  0  0  0
  8 37  1  0  0  0  0
 15 38  1  0  0  0  0
 16 39  1  0  0  0  0
 17 40  1  0  0  0  0
 18 41  1  0  0  0  0
 20 42  1  0  0  0  0
 20 43  1  0  0  0  0
 20 44  1  0  0  0  0
 21 45  1  0  0  0  0
 21 46  1  0  0  0  0
 22 47  1  0  0  0  0
 26 48  1  0  0  0  0
M  END
> <clash_score>
0

> <docking_score>
-8.815689086914062

> <overlap_score>
0.9852195978164673

$$$$
BENZO_327_2
  -OEChem-08222022193D

 48 51  0     1  0  0  0  0  0999 V2000
    9.0720   -1.1280   24.8640 C   0  0  0  0  0  0  0  0  0  0  0  0
    9.7200   -2.2600   22.8630 C   0  0  0  0  0  0  0  0  0  0  0  0
    8.9960   -2.3380   25.5320 C   0  0  0  0  0  0  0  0  0  0  0  0
    9.6730   -3.4710   23.5300 C   0  0  0  0  0  0  0  0  0  0  0  0
   12.3565    1.9564   22.9554 C   0  0  0  0  0  0  0  0  0  0  0  0
   10.7932    3.1569   21.9808 C   0  0  0  0  0  0  0  0  0  0  0  0
    9.3350   -1.0880   23.5010 C   0  0  0  0  0  0  0  0  0  0  0  0
   10.9611    2.1180   22.8635 C   0  0  0  0  0  0  0  0  0  0  0  0
    9.3070   -3.5340   24.8780 C   0  0  0  0  0  0  0  0  0  0  0  0
    5.8300    0.9190   18.6970 C   0  0  0  0  0  0  0  0  0  0  0  0
    7.3170   -0.1610   19.8550 C   0  0  0  0  0  0  0  0  0  0  0  0
    4.6890    1.6810   18.4640 C   0  0  0  0  0  0  0  0  0  0  0  0
    3.9160    2.0630   19.5520 C   0  0  0  0  0  0  0  0  0  0  0  0
    4.2750    1.7050   20.8490 C   0  0  0  0  0  0  0  0  0  0  0  0
    5.4210    0.9600   21.0930 C   0  0  0  0  0  0  0  0  0  0  0  0
    9.0420    0.3700   21.5280 C   0  0  0  0  0  0  0  0  0  0  0  0
   12.3862    4.6002   20.6932 C   0  0  0  0  0  0  0  0  0  0  0  0
    8.8744   -4.6797   26.9022 C   0  0  0  0  0  0  0  0  0  0  0  0
    9.8870    1.3260   23.5730 C   0  0  0  0  0  0  0  0  0  0  0  0
    9.4560    0.1560   22.8130 C   0  0  2  0  0  0  0  0  0  0  0  0
   13.0274    2.8231   22.1920 N   0  0  0  0  0  0  0  0  0  0  0  0
    6.7580    0.3810   17.8350 N   0  0  0  0  0  0  0  0  0  0  0  0
    7.6390   -0.2680   18.5410 N   0  0  0  0  0  0  0  0  0  0  0  0
   12.0493    3.5392   21.6118 N   0  0  0  0  0  0  0  0  0  0  0  0
    6.1790    0.5730   19.9990 N   0  0  0  0  0  0  0  0  0  0  0  0
    8.1890   -0.7180   20.8700 N   0  0  0  0  0  0  0  0  0  0  0  0
    9.2690    1.4140   20.9380 O   0  0  0  0  0  0  0  0  0  0  0  0
    9.2567   -4.7121   25.5280 O   0  0  0  0  0  0  0  0  0  0  0  0
    8.9224   -0.1986   25.4209 H   0  0  0  0  0  0  0  0  0  0  0  0
   10.0638   -2.2321   21.8253 H   0  0  0  0  0  0  0  0  0  0  0  0
    8.6903   -2.3588   26.5807 H   0  0  0  0  0  0  0  0  0  0  0  0
    9.9258   -4.3917   22.9962 H   0  0  0  0  0  0  0  0  0  0  0  0
   12.9148    1.2434   23.5455 H   0  0  0  0  0  0  0  0  0  0  0  0
    9.9088    3.6436   21.5925 H   0  0  0  0  0  0  0  0  0  0  0  0
    4.3967    1.9772   17.4718 H   0  0  0  0  0  0  0  0  0  0  0  0
    3.0218    2.6486   19.3697 H   0  0  0  0  0  0  0  0  0  0  0  0
    3.6566    2.0043   21.7065 H   0  0  0  0  0  0  0  0  0  0  0  0
    5.7190    0.6877   22.0810 H   0  0  0  0  0  0  0  0  0  0  0  0
   12.4913    5.5238   21.2686 H   0  0  0  0  0  0  0  0  0  0  0  0
   13.3235    4.3577   20.1848 H   0  0  0  0  0  0  0  0  0  0  0  0
   11.5908    4.7003   19.9494 H   0  0  0  0  0  0  0  0  0  0  0  0
    8.8744   -5.6954   27.3053 H   0  0  0  0  0  0  0  0  0  0  0  0
    7.8781   -4.2399   26.9939 H   0  0  0  0  0  0  0  0  0  0  0  0
    9.5921   -4.0702   27.4565 H   0  0  0  0  0  0  0  0  0  0  0  0
   10.2455    1.0419   24.5710 H   0  0  0  0  0  0  0  0  0  0  0  0
    9.0345    1.9965   23.7496 H   0  0  0  0  0  0  0  0  0  0  0  0
   10.7927   -0.1029   22.4279 H   0  0  0  0  0  0  0  0  0  0  0  0
    8.2385   -1.5646   21.0947 H   0  0  0  0  0  0  0  0  0  0  0  0
  1  3  2  0  0  0  0
  1  7  1  0  0  0  0
  2  4  1  0  0  0  0
  2  7  2  0  0  0  0
  3  9  1  0  0  0  0
  4  9  2  0  0  0  0
  5  8  1  0  0  0  0
  5 21  2  0  0  0  0
  6  8  2  0  0  0  0
  6 24  1  0  0  0  0
  7 20  1  0  0  0  0
  8 19  1  0  0  0  0
  9 28  1  0  0  0  0
 10 12  1  0  0  0  0
 10 22  2  0  0  0  0
 10 25  1  0  0  0  0
 11 23  2  0  0  0  0
 11 25  1  0  0  0  0
 11 26  1  0  0  0  0
 12 13  2  0  0  0  0
 13 14  1  0  0  0  0
 14 15  2  0  0  0  0
 15 25  1  0  0  0  0
 16 20  1  0  0  0  0
 16 26  1  0  0  0  0
 16 27  2  0  0  0  0
 17 24  1  0  0  0  0
 18 28  1  0  0  0  0
 19 20  1  6  0  0  0
 21 24  1  0  0  0  0
 22 23  1  0  0  0  0
  1 29  1  0  0  0  0
  2 30  1  0  0  0  0
  3 31  1  0  0  0  0
  4 32  1  0  0  0  0
  5 33  1  0  0  0  0
  6 34  1  0  0  0  0
 12 35  1  0  0  0  0
 13 36  1  0  0  0  0
 14 37  1  0  0  0  0
 15 38  1  0  0  0  0
 17 39  1  0  0  0  0
 17 40  1  0  0  0  0
 17 41  1  0  0  0  0
 18 42  1  0  0  0  0
 18 43  1  0  0  0  0
 18 44  1  0  0  0  0
 19 45  1  0  0  0  0
 19 46  1  0  0  0  0
 20 47  1  0  0  0  0
 26 48  1  0  0  0  0
M  END
> <clash_score>
0

> <docking_score>
-7.782351493835449

> <overlap_score>
0.9320231676101685

$$$$
BENZO_329_1
  -OEChem-08222022193D

 58 62  0     1  0  0  0  0  0999 V2000
   12.9362    3.6201   21.5881 C   0  0  0  0  0  0  0  0  0  0  0  0
   13.2938    2.5836   22.4503 C   0  0  0  0  0  0  0  0  0  0  0  0
   11.5899    3.9127   21.3699 C   0  0  0  0  0  0  0  0  0  0  0  0
   12.3051    1.8395   23.0941 C   0  0  0  0  0  0  0  0  0  0  0  0
   10.6012    3.1686   22.0138 C   0  0  0  0  0  0  0  0  0  0  0  0
    9.0720   -1.1280   24.8640 C   0  0  0  0  0  0  0  0  0  0  0  0
    9.7200   -2.2600   22.8630 C   0  0  0  0  0  0  0  0  0  0  0  0
    8.9960   -2.3380   25.5320 C   0  0  0  0  0  0  0  0  0  0  0  0
    9.6730   -3.4710   23.5300 C   0  0  0  0  0  0  0  0  0  0  0  0
   10.9588    2.1320   22.8759 C   0  0  0  0  0  0  0  0  0  0  0  0
    9.3350   -1.0880   23.5010 C   0  0  0  0  0  0  0  0  0  0  0  0
    9.3070   -3.5340   24.8780 C   0  0  0  0  0  0  0  0  0  0  0  0
    5.8300    0.9190   18.6970 C   0  0  0  0  0  0  0  0  0  0  0  0
    7.3170   -0.1610   19.8550 C   0  0  0  0  0  0  0  0  0  0  0  0
    4.6890    1.6810   18.4640 C   0  0  0  0  0  0  0  0  0  0  0  0
    3.9160    2.0630   19.5520 C   0  0  0  0  0  0  0  0  0  0  0  0
    4.2750    1.7050   20.8490 C   0  0  0  0  0  0  0  0  0  0  0  0
    5.4210    0.9600   21.0930 C   0  0  0  0  0  0  0  0  0  0  0  0
    8.3596   -5.0074   26.6306 C   0  0  0  0  0  0  0  0  0  0  0  0
    9.0420    0.3700   21.5280 C   0  0  0  0  0  0  0  0  0  0  0  0
    8.4719   -6.3982   27.2294 C   0  0  0  0  0  0  0  0  0  0  0  0
    9.9251   -6.7607   27.4801 C   0  0  0  0  0  0  0  0  0  0  0  0
   10.7833   -6.6095   26.2280 C   0  0  0  0  0  0  0  0  0  0  0  0
   10.0539   -5.9100   25.0821 C   0  0  0  0  0  0  0  0  0  0  0  0
    9.8870    1.3260   23.5730 C   0  0  0  0  0  0  0  0  0  0  0  0
    9.4560    0.1560   22.8130 C   0  0  1  0  0  0  0  0  0  0  0  0
    6.7580    0.3810   17.8350 N   0  0  0  0  0  0  0  0  0  0  0  0
    7.6390   -0.2680   18.5410 N   0  0  0  0  0  0  0  0  0  0  0  0
    6.1790    0.5730   19.9990 N   0  0  0  0  0  0  0  0  0  0  0  0
    9.2529   -4.7797   25.5643 N   0  0  0  0  0  0  0  0  0  0  0  0
    8.1890   -0.7180   20.8700 N   0  0  0  0  0  0  0  0  0  0  0  0
    7.4954   -4.2357   27.0448 O   0  0  0  0  0  0  0  0  0  0  0  0
    9.2690    1.4140   20.9380 O   0  0  0  0  0  0  0  0  0  0  0  0
   13.7061    4.2003   21.0880 H   0  0  0  0  0  0  0  0  0  0  0  0
   14.3420    2.3564   22.6212 H   0  0  0  0  0  0  0  0  0  0  0  0
   11.3111    4.7204   20.6996 H   0  0  0  0  0  0  0  0  0  0  0  0
   12.5931    1.0335   23.7640 H   0  0  0  0  0  0  0  0  0  0  0  0
    9.5548    3.4036   21.8376 H   0  0  0  0  0  0  0  0  0  0  0  0
    8.9202   -0.1986   25.4206 H   0  0  0  0  0  0  0  0  0  0  0  0
   10.0631   -2.2319   21.8252 H   0  0  0  0  0  0  0  0  0  0  0  0
    8.6898   -2.3534   26.5810 H   0  0  0  0  0  0  0  0  0  0  0  0
    9.9254   -4.3899   22.9914 H   0  0  0  0  0  0  0  0  0  0  0  0
    4.3967    1.9772   17.4718 H   0  0  0  0  0  0  0  0  0  0  0  0
    3.0218    2.6486   19.3697 H   0  0  0  0  0  0  0  0  0  0  0  0
    3.6566    2.0043   21.7065 H   0  0  0  0  0  0  0  0  0  0  0  0
    5.7190    0.6877   22.0810 H   0  0  0  0  0  0  0  0  0  0  0  0
    7.9324   -6.4149   28.1639 H   0  0  0  0  0  0  0  0  0  0  0  0
    8.0254   -7.0921   26.5330 H   0  0  0  0  0  0  0  0  0  0  0  0
   10.3386   -6.1268   28.2921 H   0  0  0  0  0  0  0  0  0  0  0  0
    9.9903   -7.8025   27.8535 H   0  0  0  0  0  0  0  0  0  0  0  0
   11.7036   -6.0405   26.4770 H   0  0  0  0  0  0  0  0  0  0  0  0
   11.1411   -7.6069   25.8917 H   0  0  0  0  0  0  0  0  0  0  0  0
   10.7783   -5.5162   24.3756 H   0  0  0  0  0  0  0  0  0  0  0  0
    9.4042   -6.6189   24.5805 H   0  0  0  0  0  0  0  0  0  0  0  0
   10.2417    1.0375   24.5711 H   0  0  0  0  0  0  0  0  0  0  0  0
    9.0279    1.9881   23.7492 H   0  0  0  0  0  0  0  0  0  0  0  0
   10.7949   -0.0994   22.4253 H   0  0  0  0  0  0  0  0  0  0  0  0
    8.2585   -1.5522   21.1129 H   0  0  0  0  0  0  0  0  0  0  0  0
  1  2  1  0  0  0  0
  1  3  2  0  0  0  0
  2  4  2  0  0  0  0
  3  5  1  0  0  0  0
  4 10  1  0  0  0  0
  5 10  2  0  0  0  0
  6  8  2  0  0  0  0
  6 11  1  0  0  0  0
  7  9  1  0  0  0  0
  7 11  2  0  0  0  0
  8 12  1  0  0  0  0
  9 12  2  0  0  0  0
 10 25  1  0  0  0  0
 11 26  1  0  0  0  0
 12 30  1  0  0  0  0
 13 15  1  0  0  0  0
 13 27  2  0  0  0  0
 13 29  1  0  0  0  0
 14 28  2  0  0  0  0
 14 29  1  0  0  0  0
 14 31  1  0  0  0  0
 15 16  2  0  0  0  0
 16 17  1  0  0  0  0
 17 18  2  0  0  0  0
 18 29  1  0  0  0  0
 19 21  1  0  0  0  0
 19 30  1  0  0  0  0
 19 32  2  0  0  0  0
 20 26  1  1  0  0  0
 20 31  1  0  0  0  0
 20 33  2  0  0  0  0
 21 22  1  0  0  0  0
 22 23  1  0  0  0  0
 23 24  1  0  0  0  0
 24 30  1  0  0  0  0
 25 26  1  0  0  0  0
 27 28  1  0  0  0  0
  1 34  1  0  0  0  0
  2 35  1  0  0  0  0
  3 36  1  0  0  0  0
  4 37  1  0  0  0  0
  5 38  1  0  0  0  0
  6 39  1  0  0  0  0
  7 40  1  0  0  0  0
  8 41  1  0  0  0  0
  9 42  1  0  0  0  0
 15 43  1  0  0  0  0
 16 44  1  0  0  0  0
 17 45  1  0  0  0  0
 18 46  1  0  0  0  0
 21 47  1  0  0  0  0
 21 48  1  0  0  0  0
 22 49  1  0  0  0  0
 22 50  1  0  0  0  0
 23 51  1  0  0  0  0
 23 52  1  0  0  0  0
 24 53  1  0  0  0  0
 24 54  1  0  0  0  0
 25 55  1  0  0  0  0
 25 56  1  0  0  0  0
 26 57  1  0  0  0  0
 31 58  1  0  0  0  0
M  END
> <clash_score>
1.3959141479736985

> <docking_score>
-8.412018775939941

> <overlap_score>
0.9816223978996277

$$$$
BENZO_329_2
  -OEChem-08222022193D

 58 62  0     1  0  0  0  0  0999 V2000
   14.1299    2.0083   23.3926 C   0  0  0  0  0  0  0  0  0  0  0  0
   13.5950    1.2059   24.4004 C   0  0  0  0  0  0  0  0  0  0  0  0
   13.2889    2.5894   22.4436 C   0  0  0  0  0  0  0  0  0  0  0  0
   12.2191    0.9845   24.4591 C   0  0  0  0  0  0  0  0  0  0  0  0
   11.9129    2.3681   22.5023 C   0  0  0  0  0  0  0  0  0  0  0  0
    9.0720   -1.1280   24.8640 C   0  0  0  0  0  0  0  0  0  0  0  0
    9.7200   -2.2600   22.8630 C   0  0  0  0  0  0  0  0  0  0  0  0
    8.9960   -2.3380   25.5320 C   0  0  0  0  0  0  0  0  0  0  0  0
    9.6730   -3.4710   23.5300 C   0  0  0  0  0  0  0  0  0  0  0  0
   11.3780    1.5656   23.5101 C   0  0  0  0  0  0  0  0  0  0  0  0
    9.3350   -1.0880   23.5010 C   0  0  0  0  0  0  0  0  0  0  0  0
    9.3070   -3.5340   24.8780 C   0  0  0  0  0  0  0  0  0  0  0  0
    5.8300    0.9190   18.6970 C   0  0  0  0  0  0  0  0  0  0  0  0
    7.3170   -0.1610   19.8550 C   0  0  0  0  0  0  0  0  0  0  0  0
    4.6890    1.6810   18.4640 C   0  0  0  0  0  0  0  0  0  0  0  0
    3.9160    2.0630   19.5520 C   0  0  0  0  0  0  0  0  0  0  0  0
    4.2750    1.7050   20.8490 C   0  0  0  0  0  0  0  0  0  0  0  0
    5.4210    0.9600   21.0930 C   0  0  0  0  0  0  0  0  0  0  0  0
    8.3596   -5.0074   26.6306 C   0  0  0  0  0  0  0  0  0  0  0  0
    9.0420    0.3700   21.5280 C   0  0  0  0  0  0  0  0  0  0  0  0
    8.4719   -6.3982   27.2294 C   0  0  0  0  0  0  0  0  0  0  0  0
    9.9251   -6.7607   27.4801 C   0  0  0  0  0  0  0  0  0  0  0  0
   10.7833   -6.6095   26.2280 C   0  0  0  0  0  0  0  0  0  0  0  0
   10.0539   -5.9100   25.0821 C   0  0  0  0  0  0  0  0  0  0  0  0
    9.8870    1.3260   23.5730 C   0  0  0  0  0  0  0  0  0  0  0  0
    9.4560    0.1560   22.8130 C   0  0  2  0  0  0  0  0  0  0  0  0
    6.7580    0.3810   17.8350 N   0  0  0  0  0  0  0  0  0  0  0  0
    7.6390   -0.2680   18.5410 N   0  0  0  0  0  0  0  0  0  0  0  0
    6.1790    0.5730   19.9990 N   0  0  0  0  0  0  0  0  0  0  0  0
    9.2529   -4.7797   25.5643 N   0  0  0  0  0  0  0  0  0  0  0  0
    8.1890   -0.7180   20.8700 N   0  0  0  0  0  0  0  0  0  0  0  0
    7.4954   -4.2357   27.0448 O   0  0  0  0  0  0  0  0  0  0  0  0
    9.2690    1.4140   20.9380 O   0  0  0  0  0  0  0  0  0  0  0  0
   15.2011    2.1816   23.3478 H   0  0  0  0  0  0  0  0  0  0  0  0
   14.2496    0.7542   25.1401 H   0  0  0  0  0  0  0  0  0  0  0  0
   13.7049    3.2151   21.6595 H   0  0  0  0  0  0  0  0  0  0  0  0
   11.8112    0.3577   25.2478 H   0  0  0  0  0  0  0  0  0  0  0  0
   11.2654    2.8248   21.7586 H   0  0  0  0  0  0  0  0  0  0  0  0
    8.9202   -0.1986   25.4206 H   0  0  0  0  0  0  0  0  0  0  0  0
   10.0631   -2.2319   21.8252 H   0  0  0  0  0  0  0  0  0  0  0  0
    8.6898   -2.3534   26.5810 H   0  0  0  0  0  0  0  0  0  0  0  0
    9.9254   -4.3899   22.9914 H   0  0  0  0  0  0  0  0  0  0  0  0
    4.3967    1.9772   17.4718 H   0  0  0  0  0  0  0  0  0  0  0  0
    3.0218    2.6486   19.3697 H   0  0  0  0  0  0  0  0  0  0  0  0
    3.6566    2.0043   21.7065 H   0  0  0  0  0  0  0  0  0  0  0  0
    5.7190    0.6877   22.0810 H   0  0  0  0  0  0  0  0  0  0  0  0
    7.9324   -6.4149   28.1639 H   0  0  0  0  0  0  0  0  0  0  0  0
    8.0254   -7.0921   26.5330 H   0  0  0  0  0  0  0  0  0  0  0  0
   10.3386   -6.1268   28.2921 H   0  0  0  0  0  0  0  0  0  0  0  0
    9.9903   -7.8025   27.8535 H   0  0  0  0  0  0  0  0  0  0  0  0
   11.7036   -6.0405   26.4770 H   0  0  0  0  0  0  0  0  0  0  0  0
   11.1411   -7.6069   25.8917 H   0  0  0  0  0  0  0  0  0  0  0  0
   10.7783   -5.5162   24.3756 H   0  0  0  0  0  0  0  0  0  0  0  0
    9.4042   -6.6189   24.5805 H   0  0  0  0  0  0  0  0  0  0  0  0
    9.5761    1.2490   24.6231 H   0  0  0  0  0  0  0  0  0  0  0  0
    9.3845    2.2231   23.1854 H   0  0  0  0  0  0  0  0  0  0  0  0
    8.0674    0.5009   23.2732 H   0  0  0  0  0  0  0  0  0  0  0  0
    8.2585   -1.5522   21.1129 H   0  0  0  0  0  0  0  0  0  0  0  0
  1  2  1  0  0  0  0
  1  3  2  0  0  0  0
  2  4  2  0  0  0  0
  3  5  1  0  0  0  0
  4 10  1  0  0  0  0
  5 10  2  0  0  0  0
  6  8  2  0  0  0  0
  6 11  1  0  0  0  0
  7  9  1  0  0  0  0
  7 11  2  0  0  0  0
  8 12  1  0  0  0  0
  9 12  2  0  0  0  0
 10 25  1  0  0  0  0
 11 26  1  0  0  0  0
 12 30  1  0  0  0  0
 13 15  1  0  0  0  0
 13 27  2  0  0  0  0
 13 29  1  0  0  0  0
 14 28  2  0  0  0  0
 14 29  1  0  0  0  0
 14 31  1  0  0  0  0
 15 16  2  0  0  0  0
 16 17  1  0  0  0  0
 17 18  2  0  0  0  0
 18 29  1  0  0  0  0
 19 21  1  0  0  0  0
 19 30  1  0  0  0  0
 19 32  2  0  0  0  0
 20 26  1  6  0  0  0
 20 31  1  0  0  0  0
 20 33  2  0  0  0  0
 21 22  1  0  0  0  0
 22 23  1  0  0  0  0
 23 24  1  0  0  0  0
 24 30  1  0  0  0  0
 25 26  1  0  0  0  0
 27 28  1  0  0  0  0
  1 34  1  0  0  0  0
  2 35  1  0  0  0  0
  3 36  1  0  0  0  0
  4 37  1  0  0  0  0
  5 38  1  0  0  0  0
  6 39  1  0  0  0  0
  7 40  1  0  0  0  0
  8 41  1  0  0  0  0
  9 42  1  0  0  0  0
 15 43  1  0  0  0  0
 16 44  1  0  0  0  0
 17 45  1  0  0  0  0
 18 46  1  0  0  0  0
 21 47  1  0  0  0  0
 21 48  1  0  0  0  0
 22 49  1  0  0  0  0
 22 50  1  0  0  0  0
 23 51  1  0  0  0  0
 23 52  1  0  0  0  0
 24 53  1  0  0  0  0
 24 54  1  0  0  0  0
 25 55  1  0  0  0  0
 25 56  1  0  0  0  0
 26 57  1  0  0  0  0
 31 58  1  0  0  0  0
M  END
> <clash_score>
0.7790931276820443

> <docking_score>
-8.507063865661621

> <overlap_score>
1.018000602722168

$$$$
BENZO_328_1
  -OEChem-08222022193D

 55 59  0     1  0  0  0  0  0999 V2000
    9.0720   -1.1280   24.8640 C   0  0  0  0  0  0  0  0  0  0  0  0
    9.7200   -2.2600   22.8630 C   0  0  0  0  0  0  0  0  0  0  0  0
    8.9960   -2.3380   25.5320 C   0  0  0  0  0  0  0  0  0  0  0  0
    9.6730   -3.4710   23.5300 C   0  0  0  0  0  0  0  0  0  0  0  0
   12.3967    0.6931   23.7036 C   0  0  0  0  0  0  0  0  0  0  0  0
   13.4249    0.5732   24.6125 C   0  0  0  0  0  0  0  0  0  0  0  0
   11.3289    1.2940   25.6787 C   0  0  0  0  0  0  0  0  0  0  0  0
    9.3350   -1.0880   23.5010 C   0  0  0  0  0  0  0  0  0  0  0  0
   11.1825    1.1108   24.3212 C   0  0  0  0  0  0  0  0  0  0  0  0
    9.3070   -3.5340   24.8780 C   0  0  0  0  0  0  0  0  0  0  0  0
    5.8300    0.9190   18.6970 C   0  0  0  0  0  0  0  0  0  0  0  0
    7.3170   -0.1610   19.8550 C   0  0  0  0  0  0  0  0  0  0  0  0
    4.6890    1.6810   18.4640 C   0  0  0  0  0  0  0  0  0  0  0  0
    3.9160    2.0630   19.5520 C   0  0  0  0  0  0  0  0  0  0  0  0
    4.2750    1.7050   20.8490 C   0  0  0  0  0  0  0  0  0  0  0  0
    5.4210    0.9600   21.0930 C   0  0  0  0  0  0  0  0  0  0  0  0
    8.3596   -5.0074   26.6306 C   0  0  0  0  0  0  0  0  0  0  0  0
    9.0420    0.3700   21.5280 C   0  0  0  0  0  0  0  0  0  0  0  0
    8.4719   -6.3982   27.2294 C   0  0  0  0  0  0  0  0  0  0  0  0
    9.9251   -6.7607   27.4801 C   0  0  0  0  0  0  0  0  0  0  0  0
   10.7833   -6.6095   26.2280 C   0  0  0  0  0  0  0  0  0  0  0  0
   10.0539   -5.9100   25.0821 C   0  0  0  0  0  0  0  0  0  0  0  0
    9.8870    1.3260   23.5730 C   0  0  0  0  0  0  0  0  0  0  0  0
    9.4560    0.1560   22.8130 C   0  0  1  0  0  0  0  0  0  0  0  0
    6.7580    0.3810   17.8350 N   0  0  0  0  0  0  0  0  0  0  0  0
    7.6390   -0.2680   18.5410 N   0  0  0  0  0  0  0  0  0  0  0  0
    6.1790    0.5730   19.9990 N   0  0  0  0  0  0  0  0  0  0  0  0
    9.2529   -4.7797   25.5643 N   0  0  0  0  0  0  0  0  0  0  0  0
    8.1890   -0.7180   20.8700 N   0  0  0  0  0  0  0  0  0  0  0  0
    7.4954   -4.2357   27.0448 O   0  0  0  0  0  0  0  0  0  0  0  0
    9.2690    1.4140   20.9380 O   0  0  0  0  0  0  0  0  0  0  0  0
   12.9251    0.9632   26.2032 S   0  0  0  0  0  0  0  0  0  0  0  0
    8.9202   -0.1986   25.4206 H   0  0  0  0  0  0  0  0  0  0  0  0
   10.0631   -2.2319   21.8252 H   0  0  0  0  0  0  0  0  0  0  0  0
    8.6898   -2.3534   26.5810 H   0  0  0  0  0  0  0  0  0  0  0  0
    9.9254   -4.3899   22.9914 H   0  0  0  0  0  0  0  0  0  0  0  0
   12.5144    0.4894   22.6467 H   0  0  0  0  0  0  0  0  0  0  0  0
   14.4454    0.2745   24.4187 H   0  0  0  0  0  0  0  0  0  0  0  0
   10.5774    1.6049   26.3912 H   0  0  0  0  0  0  0  0  0  0  0  0
    4.3967    1.9772   17.4718 H   0  0  0  0  0  0  0  0  0  0  0  0
    3.0218    2.6486   19.3697 H   0  0  0  0  0  0  0  0  0  0  0  0
    3.6566    2.0043   21.7065 H   0  0  0  0  0  0  0  0  0  0  0  0
    5.7190    0.6877   22.0810 H   0  0  0  0  0  0  0  0  0  0  0  0
    7.9324   -6.4149   28.1639 H   0  0  0  0  0  0  0  0  0  0  0  0
    8.0254   -7.0921   26.5330 H   0  0  0  0  0  0  0  0  0  0  0  0
   10.3386   -6.1268   28.2921 H   0  0  0  0  0  0  0  0  0  0  0  0
    9.9903   -7.8025   27.8535 H   0  0  0  0  0  0  0  0  0  0  0  0
   11.7036   -6.0405   26.4770 H   0  0  0  0  0  0  0  0  0  0  0  0
   11.1411   -7.6069   25.8917 H   0  0  0  0  0  0  0  0  0  0  0  0
   10.7783   -5.5162   24.3756 H   0  0  0  0  0  0  0  0  0  0  0  0
    9.4042   -6.6189   24.5805 H   0  0  0  0  0  0  0  0  0  0  0  0
    9.1090    1.6445   24.2791 H   0  0  0  0  0  0  0  0  0  0  0  0
   10.0281    2.1767   22.8918 H   0  0  0  0  0  0  0  0  0  0  0  0
   10.7949   -0.0994   22.4253 H   0  0  0  0  0  0  0  0  0  0  0  0
    8.2585   -1.5522   21.1129 H   0  0  0  0  0  0  0  0  0  0  0  0
  1  3  2  0  0  0  0
  1  8  1  0  0  0  0
  2  4  1  0  0  0  0
  2  8  2  0  0  0  0
  3 10  1  0  0  0  0
  4 10  2  0  0  0  0
  5  6  2  0  0  0  0
  5  9  1  0  0  0  0
  6 32  1  0  0  0  0
  7  9  2  0  0  0  0
  7 32  1  0  0  0  0
  8 24  1  0  0  0  0
  9 23  1  0  0  0  0
 10 28  1  0  0  0  0
 11 13  1  0  0  0  0
 11 25  2  0  0  0  0
 11 27  1  0  0  0  0
 12 26  2  0  0  0  0
 12 27  1  0  0  0  0
 12 29  1  0  0  0  0
 13 14  2  0  0  0  0
 14 15  1  0  0  0  0
 15 16  2  0  0  0  0
 16 27  1  0  0  0  0
 17 19  1  0  0  0  0
 17 28  1  0  0  0  0
 17 30  2  0  0  0  0
 18 24  1  1  0  0  0
 18 29  1  0  0  0  0
 18 31  2  0  0  0  0
 19 20  1  0  0  0  0
 20 21  1  0  0  0  0
 21 22  1  0  0  0  0
 22 28  1  0  0  0  0
 23 24  1  0  0  0  0
 25 26  1  0  0  0  0
  1 33  1  0  0  0  0
  2 34  1  0  0  0  0
  3 35  1  0  0  0  0
  4 36  1  0  0  0  0
  5 37  1  0  0  0  0
  6 38  1  0  0  0  0
  7 39  1  0  0  0  0
 13 40  1  0  0  0  0
 14 41  1  0  0  0  0
 15 42  1  0  0  0  0
 16 43  1  0  0  0  0
 19 44  1  0  0  0  0
 19 45  1  0  0  0  0
 20 46  1  0  0  0  0
 20 47  1  0  0  0  0
 21 48  1  0  0  0  0
 21 49  1  0  0  0  0
 22 50  1  0  0  0  0
 22 51  1  0  0  0  0
 23 52  1  0  0  0  0
 23 53  1  0  0  0  0
 24 54  1  0  0  0  0
 29 55  1  0  0  0  0
M  END
> <clash_score>
1.4148822703907502

> <docking_score>
-6.838656425476074

> <overlap_score>
0.9339728951454163

$$$$
BENZO_328_2
  -OEChem-08222022193D

 55 59  0     1  0  0  0  0  0999 V2000
    9.0720   -1.1280   24.8640 C   0  0  0  0  0  0  0  0  0  0  0  0
    9.7200   -2.2600   22.8630 C   0  0  0  0  0  0  0  0  0  0  0  0
    8.9960   -2.3380   25.5320 C   0  0  0  0  0  0  0  0  0  0  0  0
    9.6730   -3.4710   23.5300 C   0  0  0  0  0  0  0  0  0  0  0  0
   12.3482    0.5240   23.4466 C   0  0  0  0  0  0  0  0  0  0  0  0
   13.6337    1.0165   23.3985 C   0  0  0  0  0  0  0  0  0  0  0  0
   11.9591    2.8147   23.5083 C   0  0  0  0  0  0  0  0  0  0  0  0
    9.3350   -1.0880   23.5010 C   0  0  0  0  0  0  0  0  0  0  0  0
   11.3780    1.5656   23.5101 C   0  0  0  0  0  0  0  0  0  0  0  0
    9.3070   -3.5340   24.8780 C   0  0  0  0  0  0  0  0  0  0  0  0
    5.8300    0.9190   18.6970 C   0  0  0  0  0  0  0  0  0  0  0  0
    7.3170   -0.1610   19.8550 C   0  0  0  0  0  0  0  0  0  0  0  0
    4.6890    1.6810   18.4640 C   0  0  0  0  0  0  0  0  0  0  0  0
    3.9160    2.0630   19.5520 C   0  0  0  0  0  0  0  0  0  0  0  0
    4.2750    1.7050   20.8490 C   0  0  0  0  0  0  0  0  0  0  0  0
    5.4210    0.9600   21.0930 C   0  0  0  0  0  0  0  0  0  0  0  0
    8.3596   -5.0074   26.6306 C   0  0  0  0  0  0  0  0  0  0  0  0
    9.0420    0.3700   21.5280 C   0  0  0  0  0  0  0  0  0  0  0  0
    8.4719   -6.3982   27.2294 C   0  0  0  0  0  0  0  0  0  0  0  0
    9.9251   -6.7607   27.4801 C   0  0  0  0  0  0  0  0  0  0  0  0
   10.7833   -6.6095   26.2280 C   0  0  0  0  0  0  0  0  0  0  0  0
   10.0539   -5.9100   25.0821 C   0  0  0  0  0  0  0  0  0  0  0  0
    9.8870    1.3260   23.5730 C   0  0  0  0  0  0  0  0  0  0  0  0
    9.4560    0.1560   22.8130 C   0  0  2  0  0  0  0  0  0  0  0  0
    6.7580    0.3810   17.8350 N   0  0  0  0  0  0  0  0  0  0  0  0
    7.6390   -0.2680   18.5410 N   0  0  0  0  0  0  0  0  0  0  0  0
    6.1790    0.5730   19.9990 N   0  0  0  0  0  0  0  0  0  0  0  0
    9.2529   -4.7797   25.5643 N   0  0  0  0  0  0  0  0  0  0  0  0
    8.1890   -0.7180   20.8700 N   0  0  0  0  0  0  0  0  0  0  0  0
    7.4954   -4.2357   27.0448 O   0  0  0  0  0  0  0  0  0  0  0  0
    9.2690    1.4140   20.9380 O   0  0  0  0  0  0  0  0  0  0  0  0
   13.6675    2.7283   23.4300 S   0  0  0  0  0  0  0  0  0  0  0  0
    8.9202   -0.1986   25.4206 H   0  0  0  0  0  0  0  0  0  0  0  0
   10.0631   -2.2319   21.8252 H   0  0  0  0  0  0  0  0  0  0  0  0
    8.6898   -2.3534   26.5810 H   0  0  0  0  0  0  0  0  0  0  0  0
    9.9254   -4.3899   22.9914 H   0  0  0  0  0  0  0  0  0  0  0  0
   12.1191   -0.5341   23.4370 H   0  0  0  0  0  0  0  0  0  0  0  0
   14.5547    0.4532   23.3470 H   0  0  0  0  0  0  0  0  0  0  0  0
   11.4661    3.7761   23.5503 H   0  0  0  0  0  0  0  0  0  0  0  0
    4.3967    1.9772   17.4718 H   0  0  0  0  0  0  0  0  0  0  0  0
    3.0218    2.6486   19.3697 H   0  0  0  0  0  0  0  0  0  0  0  0
    3.6566    2.0043   21.7065 H   0  0  0  0  0  0  0  0  0  0  0  0
    5.7190    0.6877   22.0810 H   0  0  0  0  0  0  0  0  0  0  0  0
    7.9324   -6.4149   28.1639 H   0  0  0  0  0  0  0  0  0  0  0  0
    8.0254   -7.0921   26.5330 H   0  0  0  0  0  0  0  0  0  0  0  0
   10.3386   -6.1268   28.2921 H   0  0  0  0  0  0  0  0  0  0  0  0
    9.9903   -7.8025   27.8535 H   0  0  0  0  0  0  0  0  0  0  0  0
   11.7036   -6.0405   26.4770 H   0  0  0  0  0  0  0  0  0  0  0  0
   11.1411   -7.6069   25.8917 H   0  0  0  0  0  0  0  0  0  0  0  0
   10.7783   -5.5162   24.3756 H   0  0  0  0  0  0  0  0  0  0  0  0
    9.4042   -6.6189   24.5805 H   0  0  0  0  0  0  0  0  0  0  0  0
    9.5761    1.2490   24.6231 H   0  0  0  0  0  0  0  0  0  0  0  0
    9.3845    2.2231   23.1854 H   0  0  0  0  0  0  0  0  0  0  0  0
    8.0674    0.5009   23.2732 H   0  0  0  0  0  0  0  0  0  0  0  0
    8.2585   -1.5522   21.1129 H   0  0  0  0  0  0  0  0  0  0  0  0
  1  3  2  0  0  0  0
  1  8  1  0  0  0  0
  2  4  1  0  0  0  0
  2  8  2  0  0  0  0
  3 10  1  0  0  0  0
  4 10  2  0  0  0  0
  5  6  2  0  0  0  0
  5  9  1  0  0  0  0
  6 32  1  0  0  0  0
  7  9  2  0  0  0  0
  7 32  1  0  0  0  0
  8 24  1  0  0  0  0
  9 23  1  0  0  0  0
 10 28  1  0  0  0  0
 11 13  1  0  0  0  0
 11 25  2  0  0  0  0
 11 27  1  0  0  0  0
 12 26  2  0  0  0  0
 12 27  1  0  0  0  0
 12 29  1  0  0  0  0
 13 14  2  0  0  0  0
 14 15  1  0  0  0  0
 15 16  2  0  0  0  0
 16 27  1  0  0  0  0
 17 19  1  0  0  0  0
 17 28  1  0  0  0  0
 17 30  2  0  0  0  0
 18 24  1  6  0  0  0
 18 29  1  0  0  0  0
 18 31  2  0  0  0  0
 19 20  1  0  0  0  0
 20 21  1  0  0  0  0
 21 22  1  0  0  0  0
 22 28  1  0  0  0  0
 23 24  1  0  0  0  0
 25 26  1  0  0  0  0
  1 33  1  0  0  0  0
  2 34  1  0  0  0  0
  3 35  1  0  0  0  0
  4 36  1  0  0  0  0
  5 37  1  0  0  0  0
  6 38  1  0  0  0  0
  7 39  1  0  0  0  0
 13 40  1  0  0  0  0
 14 41  1  0  0  0  0
 15 42  1  0  0  0  0
 16 43  1  0  0  0  0
 19 44  1  0  0  0  0
 19 45  1  0  0  0  0
 20 46  1  0  0  0  0
 20 47  1  0  0  0  0
 21 48  1  0  0  0  0
 21 49  1  0  0  0  0
 22 50  1  0  0  0  0
 22 51  1  0  0  0  0
 23 52  1  0  0  0  0
 23 53  1  0  0  0  0
 24 54  1  0  0  0  0
 29 55  1  0  0  0  0
M  END
> <clash_score>
0.7790931276820443

> <docking_score>
-8.8827543258667

> <overlap_score>
1.0096060037612915

$$$$
BENZO_330_1
  -OEChem-08222022193D

 58 62  0     1  0  0  0  0  0999 V2000
    6.3943    2.2386   24.7613 C   0  0  0  0  0  0  0  0  0  0  0  0
    7.4442    1.5740   24.1277 C   0  0  0  0  0  0  0  0  0  0  0  0
    9.0720   -1.1280   24.8640 C   0  0  0  0  0  0  0  0  0  0  0  0
    9.7200   -2.2600   22.8630 C   0  0  0  0  0  0  0  0  0  0  0  0
    8.9960   -2.3380   25.5320 C   0  0  0  0  0  0  0  0  0  0  0  0
    9.6730   -3.4710   23.5300 C   0  0  0  0  0  0  0  0  0  0  0  0
    6.6498    3.3769   25.5260 C   0  0  0  0  0  0  0  0  0  0  0  0
    9.0052    3.1857   25.0236 C   0  0  0  0  0  0  0  0  0  0  0  0
    9.3350   -1.0880   23.5010 C   0  0  0  0  0  0  0  0  0  0  0  0
    8.7497    2.0475   24.2588 C   0  0  0  0  0  0  0  0  0  0  0  0
    9.3070   -3.5340   24.8780 C   0  0  0  0  0  0  0  0  0  0  0  0
    7.9552    3.8504   25.6571 C   0  0  0  0  0  0  0  0  0  0  0  0
    5.8300    0.9190   18.6970 C   0  0  0  0  0  0  0  0  0  0  0  0
    7.3170   -0.1610   19.8550 C   0  0  0  0  0  0  0  0  0  0  0  0
    4.6890    1.6810   18.4640 C   0  0  0  0  0  0  0  0  0  0  0  0
    3.9160    2.0630   19.5520 C   0  0  0  0  0  0  0  0  0  0  0  0
    4.2750    1.7050   20.8490 C   0  0  0  0  0  0  0  0  0  0  0  0
    5.4210    0.9600   21.0930 C   0  0  0  0  0  0  0  0  0  0  0  0
    8.3596   -5.0075   26.6307 C   0  0  0  0  0  0  0  0  0  0  0  0
    9.0420    0.3700   21.5280 C   0  0  0  0  0  0  0  0  0  0  0  0
    8.4579   -6.4048   27.2167 C   0  0  0  0  0  0  0  0  0  0  0  0
    8.4717   -7.4504   26.1157 C   0  0  0  0  0  0  0  0  0  0  0  0
    9.5645   -7.1893   25.0840 C   0  0  0  0  0  0  0  0  0  0  0  0
   10.2327   -5.8252   25.2500 C   0  0  0  0  0  0  0  0  0  0  0  0
    9.8870    1.3260   23.5730 C   0  0  0  0  0  0  0  0  0  0  0  0
    9.4560    0.1560   22.8130 C   0  0  1  0  0  0  0  0  0  0  0  0
    6.7580    0.3810   17.8350 N   0  0  0  0  0  0  0  0  0  0  0  0
    7.6390   -0.2680   18.5410 N   0  0  0  0  0  0  0  0  0  0  0  0
    6.1790    0.5730   19.9990 N   0  0  0  0  0  0  0  0  0  0  0  0
    9.2529   -4.7799   25.5644 N   0  0  0  0  0  0  0  0  0  0  0  0
    8.1890   -0.7180   20.8700 N   0  0  0  0  0  0  0  0  0  0  0  0
    7.5989   -4.1866   27.1423 O   0  0  0  0  0  0  0  0  0  0  0  0
    9.2690    1.4140   20.9380 O   0  0  0  0  0  0  0  0  0  0  0  0
    8.2700    5.2542   26.6017 Cl  0  0  0  0  0  0  0  0  0  0  0  0
    5.3779    1.8695   24.6590 H   0  0  0  0  0  0  0  0  0  0  0  0
    7.2359    0.6877   23.5339 H   0  0  0  0  0  0  0  0  0  0  0  0
    8.9202   -0.1986   25.4206 H   0  0  0  0  0  0  0  0  0  0  0  0
   10.0631   -2.2319   21.8252 H   0  0  0  0  0  0  0  0  0  0  0  0
    8.6898   -2.3534   26.5810 H   0  0  0  0  0  0  0  0  0  0  0  0
    9.9254   -4.3899   22.9914 H   0  0  0  0  0  0  0  0  0  0  0  0
    5.8217    3.8847   26.0144 H   0  0  0  0  0  0  0  0  0  0  0  0
   10.0247    3.5513   25.1223 H   0  0  0  0  0  0  0  0  0  0  0  0
    4.3967    1.9772   17.4718 H   0  0  0  0  0  0  0  0  0  0  0  0
    3.0218    2.6486   19.3697 H   0  0  0  0  0  0  0  0  0  0  0  0
    3.6566    2.0043   21.7065 H   0  0  0  0  0  0  0  0  0  0  0  0
    5.7190    0.6877   22.0810 H   0  0  0  0  0  0  0  0  0  0  0  0
    9.3705   -6.4746   27.7883 H   0  0  0  0  0  0  0  0  0  0  0  0
    7.6054   -6.5499   27.8634 H   0  0  0  0  0  0  0  0  0  0  0  0
    8.6096   -8.4605   26.5547 H   0  0  0  0  0  0  0  0  0  0  0  0
    7.4835   -7.4764   25.6139 H   0  0  0  0  0  0  0  0  0  0  0  0
   10.3359   -7.9850   25.1529 H   0  0  0  0  0  0  0  0  0  0  0  0
    9.1459   -7.2795   24.0580 H   0  0  0  0  0  0  0  0  0  0  0  0
   10.9408   -5.8640   26.0724 H   0  0  0  0  0  0  0  0  0  0  0  0
   10.7522   -5.5631   24.3346 H   0  0  0  0  0  0  0  0  0  0  0  0
   10.4307    2.0325   22.9323 H   0  0  0  0  0  0  0  0  0  0  0  0
   10.6065    1.0196   24.3450 H   0  0  0  0  0  0  0  0  0  0  0  0
   10.7949   -0.0994   22.4253 H   0  0  0  0  0  0  0  0  0  0  0  0
    8.2585   -1.5522   21.1129 H   0  0  0  0  0  0  0  0  0  0  0  0
  1  2  2  0  0  0  0
  1  7  1  0  0  0  0
  2 10  1  0  0  0  0
  3  5  2  0  0  0  0
  3  9  1  0  0  0  0
  4  6  1  0  0  0  0
  4  9  2  0  0  0  0
  5 11  1  0  0  0  0
  6 11  2  0  0  0  0
  7 12  2  0  0  0  0
  8 10  2  0  0  0  0
  8 12  1  0  0  0  0
  9 26  1  0  0  0  0
 10 25  1  0  0  0  0
 11 30  1  0  0  0  0
 12 34  1  0  0  0  0
 13 15  1  0  0  0  0
 13 27  2  0  0  0  0
 13 29  1  0  0  0  0
 14 28  2  0  0  0  0
 14 29  1  0  0  0  0
 14 31  1  0  0  0  0
 15 16  2  0  0  0  0
 16 17  1  0  0  0  0
 17 18  2  0  0  0  0
 18 29  1  0  0  0  0
 19 21  1  0  0  0  0
 19 30  1  0  0  0  0
 19 32  2  0  0  0  0
 20 26  1  1  0  0  0
 20 31  1  0  0  0  0
 20 33  2  0  0  0  0
 21 22  1  0  0  0  0
 22 23  1  0  0  0  0
 23 24  1  0  0  0  0
 24 30  1  0  0  0  0
 25 26  1  0  0  0  0
 27 28  1  0  0  0  0
  1 35  1  0  0  0  0
  2 36  1  0  0  0  0
  3 37  1  0  0  0  0
  4 38  1  0  0  0  0
  5 39  1  0  0  0  0
  6 40  1  0  0  0  0
  7 41  1  0  0  0  0
  8 42  1  0  0  0  0
 15 43  1  0  0  0  0
 16 44  1  0  0  0  0
 17 45  1  0  0  0  0
 18 46  1  0  0  0  0
 21 47  1  0  0  0  0
 21 48  1  0  0  0  0
 22 49  1  0  0  0  0
 22 50  1  0  0  0  0
 23 51  1  0  0  0  0
 23 52  1  0  0  0  0
 24 53  1  0  0  0  0
 24 54  1  0  0  0  0
 25 55  1  0  0  0  0
 25 56  1  0  0  0  0
 26 57  1  0  0  0  0
 31 58  1  0  0  0  0
M  END
> <clash_score>
0.6354372295654396

> <docking_score>
-7.702451229095459

> <overlap_score>
0.8705697059631348

$$$$
BENZO_333_1
  -OEChem-08222022193D

 57 61  0     1  0  0  0  0  0999 V2000
   12.9362    3.6202   21.5882 C   0  0  0  0  0  0  0  0  0  0  0  0
   13.2938    2.5837   22.4503 C   0  0  0  0  0  0  0  0  0  0  0  0
   11.5898    3.9128   21.3700 C   0  0  0  0  0  0  0  0  0  0  0  0
   12.3051    1.8396   23.0941 C   0  0  0  0  0  0  0  0  0  0  0  0
   10.6012    3.1687   22.0138 C   0  0  0  0  0  0  0  0  0  0  0  0
    9.0720   -1.1280   24.8640 C   0  0  0  0  0  0  0  0  0  0  0  0
    9.7200   -2.2600   22.8630 C   0  0  0  0  0  0  0  0  0  0  0  0
    8.9960   -2.3380   25.5320 C   0  0  0  0  0  0  0  0  0  0  0  0
    9.6730   -3.4710   23.5300 C   0  0  0  0  0  0  0  0  0  0  0  0
   10.9588    2.1320   22.8759 C   0  0  0  0  0  0  0  0  0  0  0  0
    9.3350   -1.0880   23.5010 C   0  0  0  0  0  0  0  0  0  0  0  0
    9.3070   -3.5340   24.8780 C   0  0  0  0  0  0  0  0  0  0  0  0
    5.8300    0.9190   18.6970 C   0  0  0  0  0  0  0  0  0  0  0  0
    7.3170   -0.1610   19.8550 C   0  0  0  0  0  0  0  0  0  0  0  0
    4.6890    1.6810   18.4640 C   0  0  0  0  0  0  0  0  0  0  0  0
    3.9160    2.0630   19.5520 C   0  0  0  0  0  0  0  0  0  0  0  0
    4.2750    1.7050   20.8490 C   0  0  0  0  0  0  0  0  0  0  0  0
    5.4210    0.9600   21.0930 C   0  0  0  0  0  0  0  0  0  0  0  0
    9.0420    0.3700   21.5280 C   0  0  0  0  0  0  0  0  0  0  0  0
    9.5176   -4.8600   26.9769 C   0  0  0  0  0  0  0  0  0  0  0  0
    8.5166   -5.8725   24.9805 C   0  0  0  0  0  0  0  0  0  0  0  0
    8.1870   -5.0443   27.6986 C   0  0  0  0  0  0  0  0  0  0  0  0
    7.2201   -6.0348   25.7753 C   0  0  0  0  0  0  0  0  0  0  0  0
    9.8870    1.3260   23.5730 C   0  0  0  0  0  0  0  0  0  0  0  0
    9.4560    0.1560   22.8130 C   0  0  1  0  0  0  0  0  0  0  0  0
    6.7580    0.3810   17.8350 N   0  0  0  0  0  0  0  0  0  0  0  0
    7.6390   -0.2680   18.5410 N   0  0  0  0  0  0  0  0  0  0  0  0
    6.1790    0.5730   19.9990 N   0  0  0  0  0  0  0  0  0  0  0  0
    9.2564   -4.7368   25.5411 N   0  0  0  0  0  0  0  0  0  0  0  0
    8.1890   -0.7180   20.8700 N   0  0  0  0  0  0  0  0  0  0  0  0
    9.2690    1.4140   20.9380 O   0  0  0  0  0  0  0  0  0  0  0  0
    7.4995   -6.1856   27.1717 O   0  0  0  0  0  0  0  0  0  0  0  0
   13.7061    4.2004   21.0880 H   0  0  0  0  0  0  0  0  0  0  0  0
   14.3420    2.3564   22.6212 H   0  0  0  0  0  0  0  0  0  0  0  0
   11.3111    4.7205   20.6997 H   0  0  0  0  0  0  0  0  0  0  0  0
   12.5931    1.0336   23.7640 H   0  0  0  0  0  0  0  0  0  0  0  0
    9.5548    3.4036   21.8376 H   0  0  0  0  0  0  0  0  0  0  0  0
    8.9214   -0.1986   25.4206 H   0  0  0  0  0  0  0  0  0  0  0  0
   10.0622   -2.2326   21.8251 H   0  0  0  0  0  0  0  0  0  0  0  0
    8.6882   -2.3542   26.5803 H   0  0  0  0  0  0  0  0  0  0  0  0
    9.9258   -4.3896   22.9914 H   0  0  0  0  0  0  0  0  0  0  0  0
    4.3967    1.9772   17.4718 H   0  0  0  0  0  0  0  0  0  0  0  0
    3.0218    2.6486   19.3697 H   0  0  0  0  0  0  0  0  0  0  0  0
    3.6566    2.0043   21.7065 H   0  0  0  0  0  0  0  0  0  0  0  0
    5.7190    0.6877   22.0810 H   0  0  0  0  0  0  0  0  0  0  0  0
   10.0207   -3.9702   27.3608 H   0  0  0  0  0  0  0  0  0  0  0  0
   10.1536   -5.7313   27.1546 H   0  0  0  0  0  0  0  0  0  0  0  0
    9.1181   -6.7774   25.0751 H   0  0  0  0  0  0  0  0  0  0  0  0
    8.2812   -5.7063   23.9302 H   0  0  0  0  0  0  0  0  0  0  0  0
    8.3631   -5.2257   28.7609 H   0  0  0  0  0  0  0  0  0  0  0  0
    7.5532   -4.1574   27.6103 H   0  0  0  0  0  0  0  0  0  0  0  0
    6.5460   -5.1840   25.6220 H   0  0  0  0  0  0  0  0  0  0  0  0
    6.6948   -6.9355   25.4433 H   0  0  0  0  0  0  0  0  0  0  0  0
   10.2417    1.0375   24.5711 H   0  0  0  0  0  0  0  0  0  0  0  0
    9.0279    1.9881   23.7492 H   0  0  0  0  0  0  0  0  0  0  0  0
   10.7949   -0.0994   22.4253 H   0  0  0  0  0  0  0  0  0  0  0  0
    8.2585   -1.5522   21.1129 H   0  0  0  0  0  0  0  0  0  0  0  0
  1  2  1  0  0  0  0
  1  3  2  0  0  0  0
  2  4  2  0  0  0  0
  3  5  1  0  0  0  0
  4 10  1  0  0  0  0
  5 10  2  0  0  0  0
  6  8  2  0  0  0  0
  6 11  1  0  0  0  0
  7  9  1  0  0  0  0
  7 11  2  0  0  0  0
  8 12  1  0  0  0  0
  9 12  2  0  0  0  0
 10 24  1  0  0  0  0
 11 25  1  0  0  0  0
 12 29  1  0  0  0  0
 13 15  1  0  0  0  0
 13 26  2  0  0  0  0
 13 28  1  0  0  0  0
 14 27  2  0  0  0  0
 14 28  1  0  0  0  0
 14 30  1  0  0  0  0
 15 16  2  0  0  0  0
 16 17  1  0  0  0  0
 17 18  2  0  0  0  0
 18 28  1  0  0  0  0
 19 25  1  1  0  0  0
 19 30  1  0  0  0  0
 19 31  2  0  0  0  0
 20 22  1  0  0  0  0
 20 29  1  0  0  0  0
 21 23  1  0  0  0  0
 21 29  1  0  0  0  0
 22 32  1  0  0  0  0
 23 32  1  0  0  0  0
 24 25  1  0  0  0  0
 26 27  1  0  0  0  0
  1 33  1  0  0  0  0
  2 34  1  0  0  0  0
  3 35  1  0  0  0  0
  4 36  1  0  0  0  0
  5 37  1  0  0  0  0
  6 38  1  0  0  0  0
  7 39  1  0  0  0  0
  8 40  1  0  0  0  0
  9 41  1  0  0  0  0
 15 42  1  0  0  0  0
 16 43  1  0  0  0  0
 17 44  1  0  0  0  0
 18 45  1  0  0  0  0
 20 46  1  0  0  0  0
 20 47  1  0  0  0  0
 21 48  1  0  0  0  0
 21 49  1  0  0  0  0
 22 50  1  0  0  0  0
 22 51  1  0  0  0  0
 23 52  1  0  0  0  0
 23 53  1  0  0  0  0
 24 54  1  0  0  0  0
 24 55  1  0  0  0  0
 25 56  1  0  0  0  0
 30 57  1  0  0  0  0
M  END
> <clash_score>
0.6168218093390128

> <docking_score>
-9.35583209991455

> <overlap_score>
0.9715526103973389

$$$$
BENZO_331_2
  -OEChem-08222022193D

 58 62  0     1  0  0  0  0  0999 V2000
    9.0720   -1.1280   24.8640 C   0  0  0  0  0  0  0  0  0  0  0  0
    9.7200   -2.2600   22.8630 C   0  0  0  0  0  0  0  0  0  0  0  0
    8.9960   -2.3380   25.5320 C   0  0  0  0  0  0  0  0  0  0  0  0
    9.6730   -3.4710   23.5300 C   0  0  0  0  0  0  0  0  0  0  0  0
   12.3549    1.9791   22.9727 C   0  0  0  0  0  0  0  0  0  0  0  0
   10.7877    3.1780   22.0022 C   0  0  0  0  0  0  0  0  0  0  0  0
    9.3350   -1.0880   23.5010 C   0  0  0  0  0  0  0  0  0  0  0  0
   10.9588    2.1320   22.8759 C   0  0  0  0  0  0  0  0  0  0  0  0
    9.3070   -3.5340   24.8780 C   0  0  0  0  0  0  0  0  0  0  0  0
    5.8300    0.9190   18.6970 C   0  0  0  0  0  0  0  0  0  0  0  0
    7.3170   -0.1610   19.8550 C   0  0  0  0  0  0  0  0  0  0  0  0
    4.6890    1.6810   18.4640 C   0  0  0  0  0  0  0  0  0  0  0  0
    3.9160    2.0630   19.5520 C   0  0  0  0  0  0  0  0  0  0  0  0
    4.2750    1.7050   20.8490 C   0  0  0  0  0  0  0  0  0  0  0  0
    5.4210    0.9600   21.0930 C   0  0  0  0  0  0  0  0  0  0  0  0
    8.3596   -5.0074   26.6306 C   0  0  0  0  0  0  0  0  0  0  0  0
    9.0420    0.3700   21.5280 C   0  0  0  0  0  0  0  0  0  0  0  0
    8.4719   -6.3982   27.2294 C   0  0  0  0  0  0  0  0  0  0  0  0
    9.9251   -6.7607   27.4801 C   0  0  0  0  0  0  0  0  0  0  0  0
   10.7833   -6.6095   26.2280 C   0  0  0  0  0  0  0  0  0  0  0  0
   10.0539   -5.9100   25.0821 C   0  0  0  0  0  0  0  0  0  0  0  0
   12.3765    4.6443   20.7356 C   0  0  0  0  0  0  0  0  0  0  0  0
    9.8870    1.3260   23.5730 C   0  0  0  0  0  0  0  0  0  0  0  0
    9.4560    0.1560   22.8130 C   0  0  2  0  0  0  0  0  0  0  0  0
   13.0232    2.8575   22.2206 N   0  0  0  0  0  0  0  0  0  0  0  0
    6.7580    0.3810   17.8350 N   0  0  0  0  0  0  0  0  0  0  0  0
    7.6390   -0.2680   18.5410 N   0  0  0  0  0  0  0  0  0  0  0  0
   12.0428    3.5724   21.6427 N   0  0  0  0  0  0  0  0  0  0  0  0
    6.1790    0.5730   19.9990 N   0  0  0  0  0  0  0  0  0  0  0  0
    9.2529   -4.7797   25.5643 N   0  0  0  0  0  0  0  0  0  0  0  0
    8.1890   -0.7180   20.8700 N   0  0  0  0  0  0  0  0  0  0  0  0
    7.4954   -4.2357   27.0448 O   0  0  0  0  0  0  0  0  0  0  0  0
    9.2690    1.4140   20.9380 O   0  0  0  0  0  0  0  0  0  0  0  0
    8.9202   -0.1986   25.4206 H   0  0  0  0  0  0  0  0  0  0  0  0
   10.0631   -2.2319   21.8252 H   0  0  0  0  0  0  0  0  0  0  0  0
    8.6898   -2.3534   26.5810 H   0  0  0  0  0  0  0  0  0  0  0  0
    9.9254   -4.3899   22.9914 H   0  0  0  0  0  0  0  0  0  0  0  0
   12.9154    1.2645   23.5586 H   0  0  0  0  0  0  0  0  0  0  0  0
    9.9018    3.6623   21.6144 H   0  0  0  0  0  0  0  0  0  0  0  0
    4.3967    1.9772   17.4718 H   0  0  0  0  0  0  0  0  0  0  0  0
    3.0218    2.6486   19.3697 H   0  0  0  0  0  0  0  0  0  0  0  0
    3.6566    2.0043   21.7065 H   0  0  0  0  0  0  0  0  0  0  0  0
    5.7190    0.6877   22.0810 H   0  0  0  0  0  0  0  0  0  0  0  0
    7.9324   -6.4149   28.1639 H   0  0  0  0  0  0  0  0  0  0  0  0
    8.0254   -7.0921   26.5330 H   0  0  0  0  0  0  0  0  0  0  0  0
   10.3386   -6.1268   28.2921 H   0  0  0  0  0  0  0  0  0  0  0  0
    9.9903   -7.8025   27.8535 H   0  0  0  0  0  0  0  0  0  0  0  0
   11.7036   -6.0405   26.4770 H   0  0  0  0  0  0  0  0  0  0  0  0
   11.1411   -7.6069   25.8917 H   0  0  0  0  0  0  0  0  0  0  0  0
   10.7783   -5.5162   24.3756 H   0  0  0  0  0  0  0  0  0  0  0  0
    9.4042   -6.6189   24.5805 H   0  0  0  0  0  0  0  0  0  0  0  0
   12.4727    5.5631   21.3201 H   0  0  0  0  0  0  0  0  0  0  0  0
   13.3178    4.4130   20.2292 H   0  0  0  0  0  0  0  0  0  0  0  0
   11.5839    4.7459   19.9891 H   0  0  0  0  0  0  0  0  0  0  0  0
   10.2417    1.0375   24.5711 H   0  0  0  0  0  0  0  0  0  0  0  0
    9.0279    1.9881   23.7492 H   0  0  0  0  0  0  0  0  0  0  0  0
   10.7949   -0.0994   22.4253 H   0  0  0  0  0  0  0  0  0  0  0  0
    8.2585   -1.5522   21.1129 H   0  0  0  0  0  0  0  0  0  0  0  0
  1  3  2  0  0  0  0
  1  7  1  0  0  0  0
  2  4  1  0  0  0  0
  2  7  2  0  0  0  0
  3  9  1  0  0  0  0
  4  9  2  0  0  0  0
  5  8  1  0  0  0  0
  5 25  2  0  0  0  0
  6  8  2  0  0  0  0
  6 28  1  0  0  0  0
  7 24  1  0  0  0  0
  8 23  1  0  0  0  0
  9 30  1  0  0  0  0
 10 12  1  0  0  0  0
 10 26  2  0  0  0  0
 10 29  1  0  0  0  0
 11 27  2  0  0  0  0
 11 29  1  0  0  0  0
 11 31  1  0  0  0  0
 12 13  2  0  0  0  0
 13 14  1  0  0  0  0
 14 15  2  0  0  0  0
 15 29  1  0  0  0  0
 16 18  1  0  0  0  0
 16 30  1  0  0  0  0
 16 32  2  0  0  0  0
 17 24  1  0  0  0  0
 17 31  1  0  0  0  0
 17 33  2  0  0  0  0
 18 19  1  0  0  0  0
 19 20  1  0  0  0  0
 20 21  1  0  0  0  0
 21 30  1  0  0  0  0
 22 28  1  0  0  0  0
 23 24  1  6  0  0  0
 25 28  1  0  0  0  0
 26 27  1  0  0  0  0
  1 34  1  0  0  0  0
  2 35  1  0  0  0  0
  3 36  1  0  0  0  0
  4 37  1  0  0  0  0
  5 38  1  0  0  0  0
  6 39  1  0  0  0  0
 12 40  1  0  0  0  0
 13 41  1  0  0  0  0
 14 42  1  0  0  0  0
 15 43  1  0  0  0  0
 18 44  1  0  0  0  0
 18 45  1  0  0  0  0
 19 46  1  0  0  0  0
 19 47  1  0  0  0  0
 20 48  1  0  0  0  0
 20 49  1  0  0  0  0
 21 50  1  0  0  0  0
 21 51  1  0  0  0  0
 22 52  1  0  0  0  0
 22 53  1  0  0  0  0
 22 54  1  0  0  0  0
 23 55  1  0  0  0  0
 23 56  1  0  0  0  0
 24 57  1  0  0  0  0
 31 58  1  0  0  0  0
M  END
> <clash_score>
0.7790931276820443

> <docking_score>
-7.175808906555176

> <overlap_score>
0.974953293800354

$$$$
BENZO_330_2
  -OEChem-08222022193D

 58 62  0     1  0  0  0  0  0999 V2000
   13.6270    0.7091   23.2980 C   0  0  0  0  0  0  0  0  0  0  0  0
   12.2510    0.4885   23.3573 C   0  0  0  0  0  0  0  0  0  0  0  0
    9.0720   -1.1280   24.8640 C   0  0  0  0  0  0  0  0  0  0  0  0
    9.7200   -2.2600   22.8630 C   0  0  0  0  0  0  0  0  0  0  0  0
    8.9960   -2.3380   25.5320 C   0  0  0  0  0  0  0  0  0  0  0  0
    9.6730   -3.4710   23.5300 C   0  0  0  0  0  0  0  0  0  0  0  0
   14.1301    2.0067   23.3917 C   0  0  0  0  0  0  0  0  0  0  0  0
   11.8810    2.8633   23.6037 C   0  0  0  0  0  0  0  0  0  0  0  0
    9.3350   -1.0880   23.5010 C   0  0  0  0  0  0  0  0  0  0  0  0
   11.3780    1.5656   23.5101 C   0  0  0  0  0  0  0  0  0  0  0  0
    9.3070   -3.5340   24.8780 C   0  0  0  0  0  0  0  0  0  0  0  0
   13.2571    3.0838   23.5445 C   0  0  0  0  0  0  0  0  0  0  0  0
    5.8300    0.9190   18.6970 C   0  0  0  0  0  0  0  0  0  0  0  0
    7.3170   -0.1610   19.8550 C   0  0  0  0  0  0  0  0  0  0  0  0
    4.6890    1.6810   18.4640 C   0  0  0  0  0  0  0  0  0  0  0  0
    3.9160    2.0630   19.5520 C   0  0  0  0  0  0  0  0  0  0  0  0
    4.2750    1.7050   20.8490 C   0  0  0  0  0  0  0  0  0  0  0  0
    5.4210    0.9600   21.0930 C   0  0  0  0  0  0  0  0  0  0  0  0
    8.3596   -5.0074   26.6306 C   0  0  0  0  0  0  0  0  0  0  0  0
    9.0420    0.3700   21.5280 C   0  0  0  0  0  0  0  0  0  0  0  0
    8.4719   -6.3982   27.2294 C   0  0  0  0  0  0  0  0  0  0  0  0
    9.9251   -6.7607   27.4801 C   0  0  0  0  0  0  0  0  0  0  0  0
   10.7833   -6.6095   26.2280 C   0  0  0  0  0  0  0  0  0  0  0  0
   10.0539   -5.9100   25.0821 C   0  0  0  0  0  0  0  0  0  0  0  0
    9.8870    1.3260   23.5730 C   0  0  0  0  0  0  0  0  0  0  0  0
    9.4560    0.1560   22.8130 C   0  0  2  0  0  0  0  0  0  0  0  0
    6.7580    0.3810   17.8350 N   0  0  0  0  0  0  0  0  0  0  0  0
    7.6390   -0.2680   18.5410 N   0  0  0  0  0  0  0  0  0  0  0  0
    6.1790    0.5730   19.9990 N   0  0  0  0  0  0  0  0  0  0  0  0
    9.2529   -4.7797   25.5643 N   0  0  0  0  0  0  0  0  0  0  0  0
    8.1890   -0.7180   20.8700 N   0  0  0  0  0  0  0  0  0  0  0  0
    7.4954   -4.2357   27.0448 O   0  0  0  0  0  0  0  0  0  0  0  0
    9.2690    1.4140   20.9380 O   0  0  0  0  0  0  0  0  0  0  0  0
   13.8782    4.6847   23.6587 Cl  0  0  0  0  0  0  0  0  0  0  0  0
   14.3065   -0.1300   23.1789 H   0  0  0  0  0  0  0  0  0  0  0  0
   11.8679   -0.5259   23.2834 H   0  0  0  0  0  0  0  0  0  0  0  0
    8.9202   -0.1986   25.4206 H   0  0  0  0  0  0  0  0  0  0  0  0
   10.0631   -2.2319   21.8252 H   0  0  0  0  0  0  0  0  0  0  0  0
    8.6898   -2.3534   26.5810 H   0  0  0  0  0  0  0  0  0  0  0  0
    9.9254   -4.3899   22.9914 H   0  0  0  0  0  0  0  0  0  0  0  0
   15.2048    2.1637   23.3436 H   0  0  0  0  0  0  0  0  0  0  0  0
   11.1962    3.6997   23.7233 H   0  0  0  0  0  0  0  0  0  0  0  0
    4.3967    1.9772   17.4718 H   0  0  0  0  0  0  0  0  0  0  0  0
    3.0218    2.6486   19.3697 H   0  0  0  0  0  0  0  0  0  0  0  0
    3.6566    2.0043   21.7065 H   0  0  0  0  0  0  0  0  0  0  0  0
    5.7190    0.6877   22.0810 H   0  0  0  0  0  0  0  0  0  0  0  0
    7.9324   -6.4149   28.1639 H   0  0  0  0  0  0  0  0  0  0  0  0
    8.0254   -7.0921   26.5330 H   0  0  0  0  0  0  0  0  0  0  0  0
   10.3386   -6.1268   28.2921 H   0  0  0  0  0  0  0  0  0  0  0  0
    9.9903   -7.8025   27.8535 H   0  0  0  0  0  0  0  0  0  0  0  0
   11.7036   -6.0405   26.4770 H   0  0  0  0  0  0  0  0  0  0  0  0
   11.1411   -7.6069   25.8917 H   0  0  0  0  0  0  0  0  0  0  0  0
   10.7783   -5.5162   24.3756 H   0  0  0  0  0  0  0  0  0  0  0  0
    9.4042   -6.6189   24.5805 H   0  0  0  0  0  0  0  0  0  0  0  0
    9.5761    1.2490   24.6231 H   0  0  0  0  0  0  0  0  0  0  0  0
    9.3844    2.2231   23.1854 H   0  0  0  0  0  0  0  0  0  0  0  0
    8.0674    0.5009   23.2732 H   0  0  0  0  0  0  0  0  0  0  0  0
    8.2585   -1.5522   21.1129 H   0  0  0  0  0  0  0  0  0  0  0  0
  1  2  2  0  0  0  0
  1  7  1  0  0  0  0
  2 10  1  0  0  0  0
  3  5  2  0  0  0  0
  3  9  1  0  0  0  0
  4  6  1  0  0  0  0
  4  9  2  0  0  0  0
  5 11  1  0  0  0  0
  6 11  2  0  0  0  0
  7 12  2  0  0  0  0
  8 10  2  0  0  0  0
  8 12  1  0  0  0  0
  9 26  1  0  0  0  0
 10 25  1  0  0  0  0
 11 30  1  0  0  0  0
 12 34  1  0  0  0  0
 13 15  1  0  0  0  0
 13 27  2  0  0  0  0
 13 29  1  0  0  0  0
 14 28  2  0  0  0  0
 14 29  1  0  0  0  0
 14 31  1  0  0  0  0
 15 16  2  0  0  0  0
 16 17  1  0  0  0  0
 17 18  2  0  0  0  0
 18 29  1  0  0  0  0
 19 21  1  0  0  0  0
 19 30  1  0  0  0  0
 19 32  2  0  0  0  0
 20 26  1  6  0  0  0
 20 31  1  0  0  0  0
 20 33  2  0  0  0  0
 21 22  1  0  0  0  0
 22 23  1  0  0  0  0
 23 24  1  0  0  0  0
 24 30  1  0  0  0  0
 25 26  1  0  0  0  0
 27 28  1  0  0  0  0
  1 35  1  0  0  0  0
  2 36  1  0  0  0  0
  3 37  1  0  0  0  0
  4 38  1  0  0  0  0
  5 39  1  0  0  0  0
  6 40  1  0  0  0  0
  7 41  1  0  0  0  0
  8 42  1  0  0  0  0
 15 43  1  0  0  0  0
 16 44  1  0  0  0  0
 17 45  1  0  0  0  0
 18 46  1  0  0  0  0
 21 47  1  0  0  0  0
 21 48  1  0  0  0  0
 22 49  1  0  0  0  0
 22 50  1  0  0  0  0
 23 51  1  0  0  0  0
 23 52  1  0  0  0  0
 24 53  1  0  0  0  0
 24 54  1  0  0  0  0
 25 55  1  0  0  0  0
 25 56  1  0  0  0  0
 26 57  1  0  0  0  0
 31 58  1  0  0  0  0
M  END
> <clash_score>
0.7790931276820443

> <docking_score>
-8.121889114379883

> <overlap_score>
1.0263028144836426

$$$$
BENZO_331_1
  -OEChem-08222022193D

 58 62  0     1  0  0  0  0  0999 V2000
    9.0720   -1.1280   24.8640 C   0  0  0  0  0  0  0  0  0  0  0  0
    9.7200   -2.2600   22.8630 C   0  0  0  0  0  0  0  0  0  0  0  0
    8.9960   -2.3380   25.5320 C   0  0  0  0  0  0  0  0  0  0  0  0
    9.6730   -3.4710   23.5300 C   0  0  0  0  0  0  0  0  0  0  0  0
   12.0594    2.7949   23.5898 C   0  0  0  0  0  0  0  0  0  0  0  0
   12.3731    0.6302   23.3648 C   0  0  0  0  0  0  0  0  0  0  0  0
    9.3350   -1.0880   23.5010 C   0  0  0  0  0  0  0  0  0  0  0  0
   11.3780    1.5656   23.5101 C   0  0  0  0  0  0  0  0  0  0  0  0
    9.3070   -3.5340   24.8780 C   0  0  0  0  0  0  0  0  0  0  0  0
    5.8300    0.9190   18.6970 C   0  0  0  0  0  0  0  0  0  0  0  0
    7.3170   -0.1610   19.8550 C   0  0  0  0  0  0  0  0  0  0  0  0
    4.6890    1.6810   18.4640 C   0  0  0  0  0  0  0  0  0  0  0  0
    3.9160    2.0630   19.5520 C   0  0  0  0  0  0  0  0  0  0  0  0
    4.2750    1.7050   20.8490 C   0  0  0  0  0  0  0  0  0  0  0  0
    5.4210    0.9600   21.0930 C   0  0  0  0  0  0  0  0  0  0  0  0
    8.3596   -5.0074   26.6306 C   0  0  0  0  0  0  0  0  0  0  0  0
    9.0420    0.3700   21.5280 C   0  0  0  0  0  0  0  0  0  0  0  0
    8.4719   -6.3982   27.2294 C   0  0  0  0  0  0  0  0  0  0  0  0
    9.9251   -6.7607   27.4801 C   0  0  0  0  0  0  0  0  0  0  0  0
   10.7833   -6.6095   26.2280 C   0  0  0  0  0  0  0  0  0  0  0  0
   10.0539   -5.9100   25.0821 C   0  0  0  0  0  0  0  0  0  0  0  0
   14.8715    0.7755   23.2395 C   0  0  0  0  0  0  0  0  0  0  0  0
    9.8870    1.3260   23.5730 C   0  0  0  0  0  0  0  0  0  0  0  0
    9.4560    0.1560   22.8130 C   0  0  1  0  0  0  0  0  0  0  0  0
   13.3850    2.6562   23.5025 N   0  0  0  0  0  0  0  0  0  0  0  0
    6.7580    0.3810   17.8350 N   0  0  0  0  0  0  0  0  0  0  0  0
    7.6390   -0.2680   18.5410 N   0  0  0  0  0  0  0  0  0  0  0  0
   13.5445    1.3287   23.3665 N   0  0  0  0  0  0  0  0  0  0  0  0
    6.1790    0.5730   19.9990 N   0  0  0  0  0  0  0  0  0  0  0  0
    9.2529   -4.7797   25.5643 N   0  0  0  0  0  0  0  0  0  0  0  0
    8.1890   -0.7180   20.8700 N   0  0  0  0  0  0  0  0  0  0  0  0
    7.4954   -4.2357   27.0448 O   0  0  0  0  0  0  0  0  0  0  0  0
    9.2690    1.4140   20.9380 O   0  0  0  0  0  0  0  0  0  0  0  0
    8.9202   -0.1986   25.4206 H   0  0  0  0  0  0  0  0  0  0  0  0
   10.0631   -2.2319   21.8252 H   0  0  0  0  0  0  0  0  0  0  0  0
    8.6898   -2.3534   26.5810 H   0  0  0  0  0  0  0  0  0  0  0  0
    9.9254   -4.3899   22.9914 H   0  0  0  0  0  0  0  0  0  0  0  0
   11.6476    3.7871   23.7087 H   0  0  0  0  0  0  0  0  0  0  0  0
   12.3482   -0.4465   23.2641 H   0  0  0  0  0  0  0  0  0  0  0  0
    4.3967    1.9772   17.4718 H   0  0  0  0  0  0  0  0  0  0  0  0
    3.0218    2.6486   19.3697 H   0  0  0  0  0  0  0  0  0  0  0  0
    3.6566    2.0043   21.7065 H   0  0  0  0  0  0  0  0  0  0  0  0
    5.7190    0.6877   22.0810 H   0  0  0  0  0  0  0  0  0  0  0  0
    7.9324   -6.4149   28.1639 H   0  0  0  0  0  0  0  0  0  0  0  0
    8.0254   -7.0921   26.5330 H   0  0  0  0  0  0  0  0  0  0  0  0
   10.3386   -6.1268   28.2921 H   0  0  0  0  0  0  0  0  0  0  0  0
    9.9903   -7.8025   27.8535 H   0  0  0  0  0  0  0  0  0  0  0  0
   11.7036   -6.0405   26.4770 H   0  0  0  0  0  0  0  0  0  0  0  0
   11.1411   -7.6069   25.8917 H   0  0  0  0  0  0  0  0  0  0  0  0
   10.7783   -5.5162   24.3756 H   0  0  0  0  0  0  0  0  0  0  0  0
    9.4042   -6.6189   24.5805 H   0  0  0  0  0  0  0  0  0  0  0  0
   15.1240    0.7455   22.1763 H   0  0  0  0  0  0  0  0  0  0  0  0
   15.5818    1.4044   23.7835 H   0  0  0  0  0  0  0  0  0  0  0  0
   14.8855   -0.2315   23.6655 H   0  0  0  0  0  0  0  0  0  0  0  0
    9.5761    1.2490   24.6231 H   0  0  0  0  0  0  0  0  0  0  0  0
    9.3845    2.2231   23.1854 H   0  0  0  0  0  0  0  0  0  0  0  0
    8.0674    0.5009   23.2732 H   0  0  0  0  0  0  0  0  0  0  0  0
    8.2585   -1.5522   21.1129 H   0  0  0  0  0  0  0  0  0  0  0  0
  1  3  2  0  0  0  0
  1  7  1  0  0  0  0
  2  4  1  0  0  0  0
  2  7  2  0  0  0  0
  3  9  1  0  0  0  0
  4  9  2  0  0  0  0
  5  8  1  0  0  0  0
  5 25  2  0  0  0  0
  6  8  2  0  0  0  0
  6 28  1  0  0  0  0
  7 24  1  0  0  0  0
  8 23  1  0  0  0  0
  9 30  1  0  0  0  0
 10 12  1  0  0  0  0
 10 26  2  0  0  0  0
 10 29  1  0  0  0  0
 11 27  2  0  0  0  0
 11 29  1  0  0  0  0
 11 31  1  0  0  0  0
 12 13  2  0  0  0  0
 13 14  1  0  0  0  0
 14 15  2  0  0  0  0
 15 29  1  0  0  0  0
 16 18  1  0  0  0  0
 16 30  1  0  0  0  0
 16 32  2  0  0  0  0
 17 24  1  0  0  0  0
 17 31  1  0  0  0  0
 17 33  2  0  0  0  0
 18 19  1  0  0  0  0
 19 20  1  0  0  0  0
 20 21  1  0  0  0  0
 21 30  1  0  0  0  0
 22 28  1  0  0  0  0
 23 24  1  1  0  0  0
 25 28  1  0  0  0  0
 26 27  1  0  0  0  0
  1 34  1  0  0  0  0
  2 35  1  0  0  0  0
  3 36  1  0  0  0  0
  4 37  1  0  0  0  0
  5 38  1  0  0  0  0
  6 39  1  0  0  0  0
 12 40  1  0  0  0  0
 13 41  1  0  0  0  0
 14 42  1  0  0  0  0
 15 43  1  0  0  0  0
 18 44  1  0  0  0  0
 18 45  1  0  0  0  0
 19 46  1  0  0  0  0
 19 47  1  0  0  0  0
 20 48  1  0  0  0  0
 20 49  1  0  0  0  0
 21 50  1  0  0  0  0
 21 51  1  0  0  0  0
 22 52  1  0  0  0  0
 22 53  1  0  0  0  0
 22 54  1  0  0  0  0
 23 55  1  0  0  0  0
 23 56  1  0  0  0  0
 24 57  1  0  0  0  0
 31 58  1  0  0  0  0
M  END
> <clash_score>
0.7790931276820443

> <docking_score>
-8.43163013458252

> <overlap_score>
1.0254992246627808

$$$$
BENZO_332_1
  -OEChem-08222022193D

 54 58  0     1  0  0  0  0  0999 V2000
    9.0720   -1.1280   24.8640 C   0  0  0  0  0  0  0  0  0  0  0  0
    9.7200   -2.2600   22.8630 C   0  0  0  0  0  0  0  0  0  0  0  0
    8.9960   -2.3380   25.5320 C   0  0  0  0  0  0  0  0  0  0  0  0
    9.6730   -3.4710   23.5300 C   0  0  0  0  0  0  0  0  0  0  0  0
   12.3967    0.6932   23.7036 C   0  0  0  0  0  0  0  0  0  0  0  0
   13.4249    0.5733   24.6125 C   0  0  0  0  0  0  0  0  0  0  0  0
   11.3289    1.2940   25.6787 C   0  0  0  0  0  0  0  0  0  0  0  0
    9.3350   -1.0880   23.5010 C   0  0  0  0  0  0  0  0  0  0  0  0
   11.1825    1.1108   24.3212 C   0  0  0  0  0  0  0  0  0  0  0  0
    9.3070   -3.5340   24.8780 C   0  0  0  0  0  0  0  0  0  0  0  0
    5.8300    0.9190   18.6970 C   0  0  0  0  0  0  0  0  0  0  0  0
    7.3170   -0.1610   19.8550 C   0  0  0  0  0  0  0  0  0  0  0  0
    4.6890    1.6810   18.4640 C   0  0  0  0  0  0  0  0  0  0  0  0
    3.9160    2.0630   19.5520 C   0  0  0  0  0  0  0  0  0  0  0  0
    4.2750    1.7050   20.8490 C   0  0  0  0  0  0  0  0  0  0  0  0
    5.4210    0.9600   21.0930 C   0  0  0  0  0  0  0  0  0  0  0  0
    9.0420    0.3700   21.5280 C   0  0  0  0  0  0  0  0  0  0  0  0
   10.0772   -5.0257   26.7191 C   0  0  0  0  0  0  0  0  0  0  0  0
    8.0927   -5.6196   25.4069 C   0  0  0  0  0  0  0  0  0  0  0  0
    9.1935   -4.9431   27.9590 C   0  0  0  0  0  0  0  0  0  0  0  0
    7.2758   -5.5292   26.6966 C   0  0  0  0  0  0  0  0  0  0  0  0
    9.8870    1.3260   23.5730 C   0  0  0  0  0  0  0  0  0  0  0  0
    9.4560    0.1560   22.8130 C   0  0  1  0  0  0  0  0  0  0  0  0
    6.7580    0.3810   17.8350 N   0  0  0  0  0  0  0  0  0  0  0  0
    7.6390   -0.2680   18.5410 N   0  0  0  0  0  0  0  0  0  0  0  0
    6.1790    0.5730   19.9990 N   0  0  0  0  0  0  0  0  0  0  0  0
    9.2564   -4.7368   25.5411 N   0  0  0  0  0  0  0  0  0  0  0  0
    8.1890   -0.7180   20.8700 N   0  0  0  0  0  0  0  0  0  0  0  0
    9.2690    1.4140   20.9380 O   0  0  0  0  0  0  0  0  0  0  0  0
    8.0884   -5.8462   27.8322 O   0  0  0  0  0  0  0  0  0  0  0  0
   12.9251    0.9633   26.2032 S   0  0  0  0  0  0  0  0  0  0  0  0
    8.9214   -0.1986   25.4206 H   0  0  0  0  0  0  0  0  0  0  0  0
   10.0622   -2.2326   21.8251 H   0  0  0  0  0  0  0  0  0  0  0  0
    8.6882   -2.3542   26.5803 H   0  0  0  0  0  0  0  0  0  0  0  0
    9.9258   -4.3896   22.9914 H   0  0  0  0  0  0  0  0  0  0  0  0
   12.5144    0.4895   22.6468 H   0  0  0  0  0  0  0  0  0  0  0  0
   14.4455    0.2746   24.4187 H   0  0  0  0  0  0  0  0  0  0  0  0
   10.5774    1.6050   26.3912 H   0  0  0  0  0  0  0  0  0  0  0  0
    4.3967    1.9772   17.4718 H   0  0  0  0  0  0  0  0  0  0  0  0
    3.0218    2.6486   19.3697 H   0  0  0  0  0  0  0  0  0  0  0  0
    3.6566    2.0043   21.7065 H   0  0  0  0  0  0  0  0  0  0  0  0
    5.7190    0.6877   22.0810 H   0  0  0  0  0  0  0  0  0  0  0  0
   10.8986   -4.3117   26.8083 H   0  0  0  0  0  0  0  0  0  0  0  0
   10.4916   -6.0336   26.6319 H   0  0  0  0  0  0  0  0  0  0  0  0
    8.4328   -6.6457   25.2617 H   0  0  0  0  0  0  0  0  0  0  0  0
    7.4726   -5.3240   24.5618 H   0  0  0  0  0  0  0  0  0  0  0  0
    9.7638   -5.2402   28.8416 H   0  0  0  0  0  0  0  0  0  0  0  0
    8.8238   -3.9272   28.1248 H   0  0  0  0  0  0  0  0  0  0  0  0
    6.8340   -4.5339   26.8232 H   0  0  0  0  0  0  0  0  0  0  0  0
    6.4551   -6.2523   26.6641 H   0  0  0  0  0  0  0  0  0  0  0  0
    9.1090    1.6445   24.2791 H   0  0  0  0  0  0  0  0  0  0  0  0
   10.0281    2.1766   22.8918 H   0  0  0  0  0  0  0  0  0  0  0  0
   10.7949   -0.0994   22.4253 H   0  0  0  0  0  0  0  0  0  0  0  0
    8.2585   -1.5522   21.1129 H   0  0  0  0  0  0  0  0  0  0  0  0
  1  3  2  0  0  0  0
  1  8  1  0  0  0  0
  2  4  1  0  0  0  0
  2  8  2  0  0  0  0
  3 10  1  0  0  0  0
  4 10  2  0  0  0  0
  5  6  2  0  0  0  0
  5  9  1  0  0  0  0
  6 31  1  0  0  0  0
  7  9  2  0  0  0  0
  7 31  1  0  0  0  0
  8 23  1  0  0  0  0
  9 22  1  0  0  0  0
 10 27  1  0  0  0  0
 11 13  1  0  0  0  0
 11 24  2  0  0  0  0
 11 26  1  0  0  0  0
 12 25  2  0  0  0  0
 12 26  1  0  0  0  0
 12 28  1  0  0  0  0
 13 14  2  0  0  0  0
 14 15  1  0  0  0  0
 15 16  2  0  0  0  0
 16 26  1  0  0  0  0
 17 23  1  1  0  0  0
 17 28  1  0  0  0  0
 17 29  2  0  0  0  0
 18 20  1  0  0  0  0
 18 27  1  0  0  0  0
 19 21  1  0  0  0  0
 19 27  1  0  0  0  0
 20 30  1  0  0  0  0
 21 30  1  0  0  0  0
 22 23  1  0  0  0  0
 24 25  1  0  0  0  0
  1 32  1  0  0  0  0
  2 33  1  0  0  0  0
  3 34  1  0  0  0  0
  4 35  1  0  0  0  0
  5 36  1  0  0  0  0
  6 37  1  0  0  0  0
  7 38  1  0  0  0  0
 13 39  1  0  0  0  0
 14 40  1  0  0  0  0
 15 41  1  0  0  0  0
 16 42  1  0  0  0  0
 18 43  1  0  0  0  0
 18 44  1  0  0  0  0
 19 45  1  0  0  0  0
 19 46  1  0  0  0  0
 20 47  1  0  0  0  0
 20 48  1  0  0  0  0
 21 49  1  0  0  0  0
 21 50  1  0  0  0  0
 22 51  1  0  0  0  0
 22 52  1  0  0  0  0
 23 53  1  0  0  0  0
 28 54  1  0  0  0  0
M  END
> <clash_score>
0.6358202961902428

> <docking_score>
-7.820202827453613

> <overlap_score>
0.9200488924980164

$$$$
BENZO_333_2
  -OEChem-08222022193D

 57 61  0     1  0  0  0  0  0999 V2000
   14.1302    2.0067   23.3945 C   0  0  0  0  0  0  0  0  0  0  0  0
   13.2571    3.0838   23.5461 C   0  0  0  0  0  0  0  0  0  0  0  0
   13.6272    0.7090   23.3006 C   0  0  0  0  0  0  0  0  0  0  0  0
   11.8810    2.8633   23.6040 C   0  0  0  0  0  0  0  0  0  0  0  0
   12.2511    0.4885   23.3584 C   0  0  0  0  0  0  0  0  0  0  0  0
    9.0720   -1.1280   24.8640 C   0  0  0  0  0  0  0  0  0  0  0  0
    9.7200   -2.2600   22.8630 C   0  0  0  0  0  0  0  0  0  0  0  0
    8.9960   -2.3380   25.5320 C   0  0  0  0  0  0  0  0  0  0  0  0
    9.6730   -3.4710   23.5300 C   0  0  0  0  0  0  0  0  0  0  0  0
   11.3780    1.5657   23.5101 C   0  0  0  0  0  0  0  0  0  0  0  0
    9.3350   -1.0880   23.5010 C   0  0  0  0  0  0  0  0  0  0  0  0
    9.3070   -3.5340   24.8780 C   0  0  0  0  0  0  0  0  0  0  0  0
    5.8300    0.9190   18.6970 C   0  0  0  0  0  0  0  0  0  0  0  0
    7.3170   -0.1610   19.8550 C   0  0  0  0  0  0  0  0  0  0  0  0
    4.6890    1.6810   18.4640 C   0  0  0  0  0  0  0  0  0  0  0  0
    3.9160    2.0630   19.5520 C   0  0  0  0  0  0  0  0  0  0  0  0
    4.2750    1.7050   20.8490 C   0  0  0  0  0  0  0  0  0  0  0  0
    5.4210    0.9600   21.0930 C   0  0  0  0  0  0  0  0  0  0  0  0
    9.0420    0.3700   21.5280 C   0  0  0  0  0  0  0  0  0  0  0  0
   10.0772   -5.0257   26.7191 C   0  0  0  0  0  0  0  0  0  0  0  0
    8.0927   -5.6196   25.4069 C   0  0  0  0  0  0  0  0  0  0  0  0
    9.1935   -4.9431   27.9590 C   0  0  0  0  0  0  0  0  0  0  0  0
    7.2758   -5.5292   26.6966 C   0  0  0  0  0  0  0  0  0  0  0  0
    9.8870    1.3260   23.5730 C   0  0  0  0  0  0  0  0  0  0  0  0
    9.4560    0.1560   22.8130 C   0  0  2  0  0  0  0  0  0  0  0  0
    6.7580    0.3810   17.8350 N   0  0  0  0  0  0  0  0  0  0  0  0
    7.6390   -0.2680   18.5410 N   0  0  0  0  0  0  0  0  0  0  0  0
    6.1790    0.5730   19.9990 N   0  0  0  0  0  0  0  0  0  0  0  0
    9.2564   -4.7368   25.5411 N   0  0  0  0  0  0  0  0  0  0  0  0
    8.1890   -0.7180   20.8700 N   0  0  0  0  0  0  0  0  0  0  0  0
    9.2690    1.4140   20.9380 O   0  0  0  0  0  0  0  0  0  0  0  0
    8.0884   -5.8462   27.8322 O   0  0  0  0  0  0  0  0  0  0  0  0
   15.2016    2.1786   23.3481 H   0  0  0  0  0  0  0  0  0  0  0  0
   13.6485    4.0944   23.6181 H   0  0  0  0  0  0  0  0  0  0  0  0
   14.3067   -0.1298   23.1814 H   0  0  0  0  0  0  0  0  0  0  0  0
   11.2082    3.7086   23.7225 H   0  0  0  0  0  0  0  0  0  0  0  0
   11.8683   -0.5260   23.2846 H   0  0  0  0  0  0  0  0  0  0  0  0
    8.9214   -0.1986   25.4206 H   0  0  0  0  0  0  0  0  0  0  0  0
   10.0622   -2.2326   21.8251 H   0  0  0  0  0  0  0  0  0  0  0  0
    8.6882   -2.3542   26.5803 H   0  0  0  0  0  0  0  0  0  0  0  0
    9.9258   -4.3896   22.9914 H   0  0  0  0  0  0  0  0  0  0  0  0
    4.3967    1.9772   17.4718 H   0  0  0  0  0  0  0  0  0  0  0  0
    3.0218    2.6486   19.3697 H   0  0  0  0  0  0  0  0  0  0  0  0
    3.6566    2.0043   21.7065 H   0  0  0  0  0  0  0  0  0  0  0  0
    5.7190    0.6877   22.0810 H   0  0  0  0  0  0  0  0  0  0  0  0
   10.8986   -4.3117   26.8083 H   0  0  0  0  0  0  0  0  0  0  0  0
   10.4916   -6.0336   26.6319 H   0  0  0  0  0  0  0  0  0  0  0  0
    8.4328   -6.6457   25.2617 H   0  0  0  0  0  0  0  0  0  0  0  0
    7.4726   -5.3240   24.5618 H   0  0  0  0  0  0  0  0  0  0  0  0
    9.7638   -5.2402   28.8416 H   0  0  0  0  0  0  0  0  0  0  0  0
    8.8238   -3.9272   28.1248 H   0  0  0  0  0  0  0  0  0  0  0  0
    6.8340   -4.5339   26.8232 H   0  0  0  0  0  0  0  0  0  0  0  0
    6.4551   -6.2523   26.6641 H   0  0  0  0  0  0  0  0  0  0  0  0
    9.5760    1.2490   24.6231 H   0  0  0  0  0  0  0  0  0  0  0  0
    9.3844    2.2230   23.1853 H   0  0  0  0  0  0  0  0  0  0  0  0
    8.0674    0.5009   23.2732 H   0  0  0  0  0  0  0  0  0  0  0  0
    8.2585   -1.5522   21.1129 H   0  0  0  0  0  0  0  0  0  0  0  0
  1  2  1  0  0  0  0
  1  3  2  0  0  0  0
  2  4  2  0  0  0  0
  3  5  1  0  0  0  0
  4 10  1  0  0  0  0
  5 10  2  0  0  0  0
  6  8  2  0  0  0  0
  6 11  1  0  0  0  0
  7  9  1  0  0  0  0
  7 11  2  0  0  0  0
  8 12  1  0  0  0  0
  9 12  2  0  0  0  0
 10 24  1  0  0  0  0
 11 25  1  0  0  0  0
 12 29  1  0  0  0  0
 13 15  1  0  0  0  0
 13 26  2  0  0  0  0
 13 28  1  0  0  0  0
 14 27  2  0  0  0  0
 14 28  1  0  0  0  0
 14 30  1  0  0  0  0
 15 16  2  0  0  0  0
 16 17  1  0  0  0  0
 17 18  2  0  0  0  0
 18 28  1  0  0  0  0
 19 25  1  6  0  0  0
 19 30  1  0  0  0  0
 19 31  2  0  0  0  0
 20 22  1  0  0  0  0
 20 29  1  0  0  0  0
 21 23  1  0  0  0  0
 21 29  1  0  0  0  0
 22 32  1  0  0  0  0
 23 32  1  0  0  0  0
 24 25  1  0  0  0  0
 26 27  1  0  0  0  0
  1 33  1  0  0  0  0
  2 34  1  0  0  0  0
  3 35  1  0  0  0  0
  4 36  1  0  0  0  0
  5 37  1  0  0  0  0
  6 38  1  0  0  0  0
  7 39  1  0  0  0  0
  8 40  1  0  0  0  0
  9 41  1  0  0  0  0
 15 42  1  0  0  0  0
 16 43  1  0  0  0  0
 17 44  1  0  0  0  0
 18 45  1  0  0  0  0
 20 46  1  0  0  0  0
 20 47  1  0  0  0  0
 21 48  1  0  0  0  0
 21 49  1  0  0  0  0
 22 50  1  0  0  0  0
 22 51  1  0  0  0  0
 23 52  1  0  0  0  0
 23 53  1  0  0  0  0
 24 54  1  0  0  0  0
 24 55  1  0  0  0  0
 25 56  1  0  0  0  0
 30 57  1  0  0  0  0
M  END
> <clash_score>
0

> <docking_score>
-9.393634796142578

> <overlap_score>
1.0107591152191162

$$$$
BENZO_332_2
  -OEChem-08222022193D

 54 58  0     1  0  0  0  0  0999 V2000
    9.0720   -1.1280   24.8640 C   0  0  0  0  0  0  0  0  0  0  0  0
    9.7200   -2.2600   22.8630 C   0  0  0  0  0  0  0  0  0  0  0  0
    8.9960   -2.3380   25.5320 C   0  0  0  0  0  0  0  0  0  0  0  0
    9.6730   -3.4710   23.5300 C   0  0  0  0  0  0  0  0  0  0  0  0
   12.3482    0.5241   23.4467 C   0  0  0  0  0  0  0  0  0  0  0  0
   13.6337    1.0166   23.3986 C   0  0  0  0  0  0  0  0  0  0  0  0
   11.9591    2.8148   23.5083 C   0  0  0  0  0  0  0  0  0  0  0  0
    9.3350   -1.0880   23.5010 C   0  0  0  0  0  0  0  0  0  0  0  0
   11.3780    1.5657   23.5101 C   0  0  0  0  0  0  0  0  0  0  0  0
    9.3070   -3.5340   24.8780 C   0  0  0  0  0  0  0  0  0  0  0  0
    5.8300    0.9190   18.6970 C   0  0  0  0  0  0  0  0  0  0  0  0
    7.3170   -0.1610   19.8550 C   0  0  0  0  0  0  0  0  0  0  0  0
    4.6890    1.6810   18.4640 C   0  0  0  0  0  0  0  0  0  0  0  0
    3.9160    2.0630   19.5520 C   0  0  0  0  0  0  0  0  0  0  0  0
    4.2750    1.7050   20.8490 C   0  0  0  0  0  0  0  0  0  0  0  0
    5.4210    0.9600   21.0930 C   0  0  0  0  0  0  0  0  0  0  0  0
    9.0420    0.3700   21.5280 C   0  0  0  0  0  0  0  0  0  0  0  0
   10.0772   -5.0257   26.7191 C   0  0  0  0  0  0  0  0  0  0  0  0
    8.0927   -5.6196   25.4069 C   0  0  0  0  0  0  0  0  0  0  0  0
    9.1935   -4.9431   27.9590 C   0  0  0  0  0  0  0  0  0  0  0  0
    7.2758   -5.5292   26.6966 C   0  0  0  0  0  0  0  0  0  0  0  0
    9.8870    1.3260   23.5730 C   0  0  0  0  0  0  0  0  0  0  0  0
    9.4560    0.1560   22.8130 C   0  0  2  0  0  0  0  0  0  0  0  0
    6.7580    0.3810   17.8350 N   0  0  0  0  0  0  0  0  0  0  0  0
    7.6390   -0.2680   18.5410 N   0  0  0  0  0  0  0  0  0  0  0  0
    6.1790    0.5730   19.9990 N   0  0  0  0  0  0  0  0  0  0  0  0
    9.2564   -4.7368   25.5411 N   0  0  0  0  0  0  0  0  0  0  0  0
    8.1890   -0.7180   20.8700 N   0  0  0  0  0  0  0  0  0  0  0  0
    9.2690    1.4140   20.9380 O   0  0  0  0  0  0  0  0  0  0  0  0
    8.0884   -5.8462   27.8322 O   0  0  0  0  0  0  0  0  0  0  0  0
   13.6675    2.7284   23.4300 S   0  0  0  0  0  0  0  0  0  0  0  0
    8.9214   -0.1986   25.4206 H   0  0  0  0  0  0  0  0  0  0  0  0
   10.0622   -2.2326   21.8251 H   0  0  0  0  0  0  0  0  0  0  0  0
    8.6882   -2.3542   26.5803 H   0  0  0  0  0  0  0  0  0  0  0  0
    9.9258   -4.3896   22.9914 H   0  0  0  0  0  0  0  0  0  0  0  0
   12.1191   -0.5341   23.4370 H   0  0  0  0  0  0  0  0  0  0  0  0
   14.5547    0.4533   23.3471 H   0  0  0  0  0  0  0  0  0  0  0  0
   11.4660    3.7761   23.5503 H   0  0  0  0  0  0  0  0  0  0  0  0
    4.3967    1.9772   17.4718 H   0  0  0  0  0  0  0  0  0  0  0  0
    3.0218    2.6486   19.3697 H   0  0  0  0  0  0  0  0  0  0  0  0
    3.6566    2.0043   21.7065 H   0  0  0  0  0  0  0  0  0  0  0  0
    5.7190    0.6877   22.0810 H   0  0  0  0  0  0  0  0  0  0  0  0
   10.8986   -4.3117   26.8083 H   0  0  0  0  0  0  0  0  0  0  0  0
   10.4916   -6.0336   26.6319 H   0  0  0  0  0  0  0  0  0  0  0  0
    8.4328   -6.6457   25.2617 H   0  0  0  0  0  0  0  0  0  0  0  0
    7.4726   -5.3240   24.5618 H   0  0  0  0  0  0  0  0  0  0  0  0
    9.7638   -5.2402   28.8416 H   0  0  0  0  0  0  0  0  0  0  0  0
    8.8238   -3.9272   28.1248 H   0  0  0  0  0  0  0  0  0  0  0  0
    6.8340   -4.5339   26.8232 H   0  0  0  0  0  0  0  0  0  0  0  0
    6.4551   -6.2523   26.6641 H   0  0  0  0  0  0  0  0  0  0  0  0
    9.5760    1.2490   24.6231 H   0  0  0  0  0  0  0  0  0  0  0  0
    9.3844    2.2230   23.1853 H   0  0  0  0  0  0  0  0  0  0  0  0
    8.0674    0.5009   23.2732 H   0  0  0  0  0  0  0  0  0  0  0  0
    8.2585   -1.5522   21.1129 H   0  0  0  0  0  0  0  0  0  0  0  0
  1  3  2  0  0  0  0
  1  8  1  0  0  0  0
  2  4  1  0  0  0  0
  2  8  2  0  0  0  0
  3 10  1  0  0  0  0
  4 10  2  0  0  0  0
  5  6  2  0  0  0  0
  5  9  1  0  0  0  0
  6 31  1  0  0  0  0
  7  9  2  0  0  0  0
  7 31  1  0  0  0  0
  8 23  1  0  0  0  0
  9 22  1  0  0  0  0
 10 27  1  0  0  0  0
 11 13  1  0  0  0  0
 11 24  2  0  0  0  0
 11 26  1  0  0  0  0
 12 25  2  0  0  0  0
 12 26  1  0  0  0  0
 12 28  1  0  0  0  0
 13 14  2  0  0  0  0
 14 15  1  0  0  0  0
 15 16  2  0  0  0  0
 16 26  1  0  0  0  0
 17 23  1  6  0  0  0
 17 28  1  0  0  0  0
 17 29  2  0  0  0  0
 18 20  1  0  0  0  0
 18 27  1  0  0  0  0
 19 21  1  0  0  0  0
 19 27  1  0  0  0  0
 20 30  1  0  0  0  0
 21 30  1  0  0  0  0
 22 23  1  0  0  0  0
 24 25  1  0  0  0  0
  1 32  1  0  0  0  0
  2 33  1  0  0  0  0
  3 34  1  0  0  0  0
  4 35  1  0  0  0  0
  5 36  1  0  0  0  0
  6 37  1  0  0  0  0
  7 38  1  0  0  0  0
 13 39  1  0  0  0  0
 14 40  1  0  0  0  0
 15 41  1  0  0  0  0
 16 42  1  0  0  0  0
 18 43  1  0  0  0  0
 18 44  1  0  0  0  0
 19 45  1  0  0  0  0
 19 46  1  0  0  0  0
 20 47  1  0  0  0  0
 20 48  1  0  0  0  0
 21 49  1  0  0  0  0
 21 50  1  0  0  0  0
 22 51  1  0  0  0  0
 22 52  1  0  0  0  0
 23 53  1  0  0  0  0
 28 54  1  0  0  0  0
M  END
> <clash_score>
0

> <docking_score>
-9.864157676696777

> <overlap_score>
0.9958126544952393

$$$$
BENZO_337_1
  -OEChem-08222022193D

 52 55  0     0  0  0  0  0  0999 V2000
   14.1526    1.4694   24.0176 C   0  0  0  0  0  0  0  0  0  0  0  0
   13.3741    0.8121   24.9701 C   0  0  0  0  0  0  0  0  0  0  0  0
   13.5446    2.0802   22.9208 C   0  0  0  0  0  0  0  0  0  0  0  0
    3.9160    2.0630   19.5520 C   0  0  0  0  0  0  0  0  0  0  0  0
    4.2750    1.7050   20.8490 C   0  0  0  0  0  0  0  0  0  0  0  0
   11.9875    0.7654   24.8258 C   0  0  0  0  0  0  0  0  0  0  0  0
   12.1580    2.0335   22.7765 C   0  0  0  0  0  0  0  0  0  0  0  0
    4.6890    1.6810   18.4640 C   0  0  0  0  0  0  0  0  0  0  0  0
    5.4210    0.9600   21.0930 C   0  0  0  0  0  0  0  0  0  0  0  0
    9.0720   -1.1280   24.8640 C   0  0  0  0  0  0  0  0  0  0  0  0
    9.7200   -2.2600   22.8630 C   0  0  0  0  0  0  0  0  0  0  0  0
    8.9960   -2.3380   25.5320 C   0  0  0  0  0  0  0  0  0  0  0  0
    9.6730   -3.4710   23.5300 C   0  0  0  0  0  0  0  0  0  0  0  0
   11.3794    1.3761   23.7290 C   0  0  0  0  0  0  0  0  0  0  0  0
    5.8300    0.9190   18.6970 C   0  0  0  0  0  0  0  0  0  0  0  0
    6.1790    0.5730   19.9990 C   0  0  0  0  0  0  0  0  0  0  0  0
    9.3350   -1.0880   23.5010 C   0  0  0  0  0  0  0  0  0  0  0  0
    9.3070   -3.5340   24.8780 C   0  0  0  0  0  0  0  0  0  0  0  0
    9.0420    0.3700   21.5280 C   0  0  0  0  0  0  0  0  0  0  0  0
    8.0128   -5.2151   26.1416 C   0  0  0  0  0  0  0  0  0  0  0  0
   10.4372   -5.5860   25.6589 C   0  0  0  0  0  0  0  0  0  0  0  0
    9.8870    1.3260   23.5730 C   0  0  0  0  0  0  0  0  0  0  0  0
    8.1890   -0.7180   20.8700 C   0  0  0  0  0  0  0  0  0  0  0  0
    6.7580    0.3810   17.8350 N   0  0  0  0  0  0  0  0  0  0  0  0
    7.6390   -0.2680   18.5410 N   0  0  0  0  0  0  0  0  0  0  0  0
    7.3170   -0.1610   19.8550 N   0  0  0  0  0  0  0  0  0  0  0  0
    9.4560    0.1560   22.8130 N   0  0  0  0  0  0  0  0  0  0  0  0
    9.2543   -4.7552   25.5519 N   0  0  0  0  0  0  0  0  0  0  0  0
    9.2690    1.4140   20.9380 O   0  0  0  0  0  0  0  0  0  0  0  0
   15.2322    1.5068   24.1308 H   0  0  0  0  0  0  0  0  0  0  0  0
   13.8473    0.3374   25.8248 H   0  0  0  0  0  0  0  0  0  0  0  0
   14.1503    2.5930   22.1795 H   0  0  0  0  0  0  0  0  0  0  0  0
    3.0136    2.6524   19.3909 H   0  0  0  0  0  0  0  0  0  0  0  0
    3.6477    2.0141   21.6817 H   0  0  0  0  0  0  0  0  0  0  0  0
   11.3889    0.2508   25.5729 H   0  0  0  0  0  0  0  0  0  0  0  0
   11.6930    2.5120   21.9187 H   0  0  0  0  0  0  0  0  0  0  0  0
    4.4041    1.9739   17.4524 H   0  0  0  0  0  0  0  0  0  0  0  0
    5.7107    0.6909   22.1141 H   0  0  0  0  0  0  0  0  0  0  0  0
    8.9217   -0.1995   25.4232 H   0  0  0  0  0  0  0  0  0  0  0  0
   10.0643   -2.2341   21.8254 H   0  0  0  0  0  0  0  0  0  0  0  0
    8.6893   -2.3540   26.5808 H   0  0  0  0  0  0  0  0  0  0  0  0
    9.9257   -4.3898   22.9921 H   0  0  0  0  0  0  0  0  0  0  0  0
    8.1744   -6.1904   26.6238 H   0  0  0  0  0  0  0  0  0  0  0  0
    7.6718   -4.4870   26.8924 H   0  0  0  0  0  0  0  0  0  0  0  0
    7.2494   -5.3166   25.3561 H   0  0  0  0  0  0  0  0  0  0  0  0
   10.1946   -6.4995   26.2216 H   0  0  0  0  0  0  0  0  0  0  0  0
   10.7865   -5.8578   24.6518 H   0  0  0  0  0  0  0  0  0  0  0  0
   11.2285   -5.0312   26.1842 H   0  0  0  0  0  0  0  0  0  0  0  0
    9.3974    1.2912   24.5523 H   0  0  0  0  0  0  0  0  0  0  0  0
    9.5159    2.2168   23.0554 H   0  0  0  0  0  0  0  0  0  0  0  0
    8.8255   -1.4531   20.3835 H   0  0  0  0  0  0  0  0  0  0  0  0
    7.5533   -1.1948   21.6123 H   0  0  0  0  0  0  0  0  0  0  0  0
  1  2  1  0  0  0  0
  1  3  2  0  0  0  0
  2  6  2  0  0  0  0
  3  7  1  0  0  0  0
  4  5  1  0  0  0  0
  4  8  2  0  0  0  0
  5  9  2  0  0  0  0
  6 14  1  0  0  0  0
  7 14  2  0  0  0  0
  8 15  1  0  0  0  0
  9 16  1  0  0  0  0
 10 12  2  0  0  0  0
 10 17  1  0  0  0  0
 11 13  1  0  0  0  0
 11 17  2  0  0  0  0
 12 18  1  0  0  0  0
 13 18  2  0  0  0  0
 14 22  1  0  0  0  0
 15 16  2  0  0  0  0
 15 24  1  0  0  0  0
 16 26  1  0  0  0  0
 17 27  1  0  0  0  0
 18 28  1  0  0  0  0
 19 23  1  0  0  0  0
 19 27  1  0  0  0  0
 19 29  2  0  0  0  0
 20 28  1  0  0  0  0
 21 28  1  0  0  0  0
 22 27  1  0  0  0  0
 23 26  1  0  0  0  0
 24 25  2  0  0  0  0
 25 26  1  0  0  0  0
  1 30  1  0  0  0  0
  2 31  1  0  0  0  0
  3 32  1  0  0  0  0
  4 33  1  0  0  0  0
  5 34  1  0  0  0  0
  6 35  1  0  0  0  0
  7 36  1  0  0  0  0
  8 37  1  0  0  0  0
  9 38  1  0  0  0  0
 10 39  1  0  0  0  0
 11 40  1  0  0  0  0
 12 41  1  0  0  0  0
 13 42  1  0  0  0  0
 20 43  1  0  0  0  0
 20 44  1  0  0  0  0
 20 45  1  0  0  0  0
 21 46  1  0  0  0  0
 21 47  1  0  0  0  0
 21 48  1  0  0  0  0
 22 49  1  0  0  0  0
 22 50  1  0  0  0  0
 23 51  1  0  0  0  0
 23 52  1  0  0  0  0
M  END
> <clash_score>
0

> <docking_score>
-10.001619338989258

> <overlap_score>
0.9780114889144897

$$$$
BENZO_336_1
  -OEChem-08222022193D

 49 52  0     0  0  0  0  0  0999 V2000
    3.9160    2.0630   19.5520 C   0  0  0  0  0  0  0  0  0  0  0  0
    4.2750    1.7050   20.8490 C   0  0  0  0  0  0  0  0  0  0  0  0
    4.6890    1.6810   18.4640 C   0  0  0  0  0  0  0  0  0  0  0  0
    5.4210    0.9600   21.0930 C   0  0  0  0  0  0  0  0  0  0  0  0
    9.0720   -1.1280   24.8640 C   0  0  0  0  0  0  0  0  0  0  0  0
    9.7200   -2.2600   22.8630 C   0  0  0  0  0  0  0  0  0  0  0  0
    8.9960   -2.3380   25.5320 C   0  0  0  0  0  0  0  0  0  0  0  0
    9.6730   -3.4710   23.5300 C   0  0  0  0  0  0  0  0  0  0  0  0
   12.2913    1.4279   22.6355 C   0  0  0  0  0  0  0  0  0  0  0  0
   13.6024    1.4662   23.0564 C   0  0  0  0  0  0  0  0  0  0  0  0
   12.0284    1.3764   24.9443 C   0  0  0  0  0  0  0  0  0  0  0  0
   11.3794    1.3761   23.7290 C   0  0  0  0  0  0  0  0  0  0  0  0
    5.8300    0.9190   18.6970 C   0  0  0  0  0  0  0  0  0  0  0  0
    6.1790    0.5730   19.9990 C   0  0  0  0  0  0  0  0  0  0  0  0
    9.3350   -1.0880   23.5010 C   0  0  0  0  0  0  0  0  0  0  0  0
    9.3070   -3.5340   24.8780 C   0  0  0  0  0  0  0  0  0  0  0  0
    9.0420    0.3700   21.5280 C   0  0  0  0  0  0  0  0  0  0  0  0
    8.8742   -4.8064   26.9496 C   0  0  0  0  0  0  0  0  0  0  0  0
    9.5655   -5.9897   24.8591 C   0  0  0  0  0  0  0  0  0  0  0  0
    9.8870    1.3260   23.5730 C   0  0  0  0  0  0  0  0  0  0  0  0
    8.1890   -0.7180   20.8700 C   0  0  0  0  0  0  0  0  0  0  0  0
    6.7580    0.3810   17.8350 N   0  0  0  0  0  0  0  0  0  0  0  0
    7.6390   -0.2680   18.5410 N   0  0  0  0  0  0  0  0  0  0  0  0
    7.3170   -0.1610   19.8550 N   0  0  0  0  0  0  0  0  0  0  0  0
    9.4560    0.1560   22.8130 N   0  0  0  0  0  0  0  0  0  0  0  0
    9.2543   -4.7552   25.5519 N   0  0  0  0  0  0  0  0  0  0  0  0
    9.2690    1.4140   20.9380 O   0  0  0  0  0  0  0  0  0  0  0  0
   13.7301    1.4394   24.7638 S   0  0  0  0  0  0  0  0  0  0  0  0
    3.0136    2.6524   19.3909 H   0  0  0  0  0  0  0  0  0  0  0  0
    3.6477    2.0141   21.6817 H   0  0  0  0  0  0  0  0  0  0  0  0
    4.4041    1.9739   17.4524 H   0  0  0  0  0  0  0  0  0  0  0  0
    5.7107    0.6909   22.1141 H   0  0  0  0  0  0  0  0  0  0  0  0
    8.9217   -0.1995   25.4232 H   0  0  0  0  0  0  0  0  0  0  0  0
   10.0643   -2.2341   21.8254 H   0  0  0  0  0  0  0  0  0  0  0  0
    8.6893   -2.3540   26.5808 H   0  0  0  0  0  0  0  0  0  0  0  0
    9.9257   -4.3898   22.9921 H   0  0  0  0  0  0  0  0  0  0  0  0
   12.0045    1.4365   21.5915 H   0  0  0  0  0  0  0  0  0  0  0  0
   14.4914    1.5078   22.4431 H   0  0  0  0  0  0  0  0  0  0  0  0
   11.5886    1.3416   25.9314 H   0  0  0  0  0  0  0  0  0  0  0  0
    8.8922   -5.8499   27.2971 H   0  0  0  0  0  0  0  0  0  0  0  0
    9.5819   -4.2099   27.5440 H   0  0  0  0  0  0  0  0  0  0  0  0
    7.8598   -4.3978   27.0688 H   0  0  0  0  0  0  0  0  0  0  0  0
    9.4683   -6.8360   25.5551 H   0  0  0  0  0  0  0  0  0  0  0  0
    8.8685   -6.1243   24.0189 H   0  0  0  0  0  0  0  0  0  0  0  0
   10.5961   -5.9459   24.4772 H   0  0  0  0  0  0  0  0  0  0  0  0
    9.3974    1.2912   24.5523 H   0  0  0  0  0  0  0  0  0  0  0  0
    9.5159    2.2168   23.0554 H   0  0  0  0  0  0  0  0  0  0  0  0
    8.8255   -1.4531   20.3835 H   0  0  0  0  0  0  0  0  0  0  0  0
    7.5533   -1.1948   21.6123 H   0  0  0  0  0  0  0  0  0  0  0  0
  1  2  1  0  0  0  0
  1  3  2  0  0  0  0
  2  4  2  0  0  0  0
  3 13  1  0  0  0  0
  4 14  1  0  0  0  0
  5  7  2  0  0  0  0
  5 15  1  0  0  0  0
  6  8  1  0  0  0  0
  6 15  2  0  0  0  0
  7 16  1  0  0  0  0
  8 16  2  0  0  0  0
  9 10  2  0  0  0  0
  9 12  1  0  0  0  0
 10 28  1  0  0  0  0
 11 12  2  0  0  0  0
 11 28  1  0  0  0  0
 12 20  1  0  0  0  0
 13 14  2  0  0  0  0
 13 22  1  0  0  0  0
 14 24  1  0  0  0  0
 15 25  1  0  0  0  0
 16 26  1  0  0  0  0
 17 21  1  0  0  0  0
 17 25  1  0  0  0  0
 17 27  2  0  0  0  0
 18 26  1  0  0  0  0
 19 26  1  0  0  0  0
 20 25  1  0  0  0  0
 21 24  1  0  0  0  0
 22 23  2  0  0  0  0
 23 24  1  0  0  0  0
  1 29  1  0  0  0  0
  2 30  1  0  0  0  0
  3 31  1  0  0  0  0
  4 32  1  0  0  0  0
  5 33  1  0  0  0  0
  6 34  1  0  0  0  0
  7 35  1  0  0  0  0
  8 36  1  0  0  0  0
  9 37  1  0  0  0  0
 10 38  1  0  0  0  0
 11 39  1  0  0  0  0
 18 40  1  0  0  0  0
 18 41  1  0  0  0  0
 18 42  1  0  0  0  0
 19 43  1  0  0  0  0
 19 44  1  0  0  0  0
 19 45  1  0  0  0  0
 20 46  1  0  0  0  0
 20 47  1  0  0  0  0
 21 48  1  0  0  0  0
 21 49  1  0  0  0  0
M  END
> <clash_score>
0

> <docking_score>
-9.758612632751465

> <overlap_score>
0.963939368724823

$$$$
BENZO_334_1
  -OEChem-08222022193D

 57 61  0     1  0  0  0  0  0999 V2000
   13.2943    2.5807   22.4505 C   0  0  0  0  0  0  0  0  0  0  0  0
   12.3047    1.8379   23.0944 C   0  0  0  0  0  0  0  0  0  0  0  0
    9.0720   -1.1280   24.8640 C   0  0  0  0  0  0  0  0  0  0  0  0
    9.7200   -2.2600   22.8630 C   0  0  0  0  0  0  0  0  0  0  0  0
    8.9960   -2.3380   25.5320 C   0  0  0  0  0  0  0  0  0  0  0  0
    9.6730   -3.4710   23.5300 C   0  0  0  0  0  0  0  0  0  0  0  0
   12.9381    3.6176   21.5882 C   0  0  0  0  0  0  0  0  0  0  0  0
   10.6025    3.1689   22.0135 C   0  0  0  0  0  0  0  0  0  0  0  0
    9.3350   -1.0880   23.5010 C   0  0  0  0  0  0  0  0  0  0  0  0
   10.9588    2.1320   22.8759 C   0  0  0  0  0  0  0  0  0  0  0  0
    9.3070   -3.5340   24.8780 C   0  0  0  0  0  0  0  0  0  0  0  0
   11.5922    3.9117   21.3697 C   0  0  0  0  0  0  0  0  0  0  0  0
    5.8300    0.9190   18.6970 C   0  0  0  0  0  0  0  0  0  0  0  0
    7.3170   -0.1610   19.8550 C   0  0  0  0  0  0  0  0  0  0  0  0
    4.6890    1.6810   18.4640 C   0  0  0  0  0  0  0  0  0  0  0  0
    3.9160    2.0630   19.5520 C   0  0  0  0  0  0  0  0  0  0  0  0
    4.2750    1.7050   20.8490 C   0  0  0  0  0  0  0  0  0  0  0  0
    5.4210    0.9600   21.0930 C   0  0  0  0  0  0  0  0  0  0  0  0
    9.0420    0.3700   21.5280 C   0  0  0  0  0  0  0  0  0  0  0  0
    9.5176   -4.8600   26.9769 C   0  0  0  0  0  0  0  0  0  0  0  0
    8.5166   -5.8725   24.9805 C   0  0  0  0  0  0  0  0  0  0  0  0
    8.1870   -5.0443   27.6986 C   0  0  0  0  0  0  0  0  0  0  0  0
    7.2201   -6.0348   25.7753 C   0  0  0  0  0  0  0  0  0  0  0  0
    9.8870    1.3260   23.5730 C   0  0  0  0  0  0  0  0  0  0  0  0
    9.4560    0.1560   22.8130 C   0  0  1  0  0  0  0  0  0  0  0  0
    6.7580    0.3810   17.8350 N   0  0  0  0  0  0  0  0  0  0  0  0
    7.6390   -0.2680   18.5410 N   0  0  0  0  0  0  0  0  0  0  0  0
    6.1790    0.5730   19.9990 N   0  0  0  0  0  0  0  0  0  0  0  0
    9.2564   -4.7368   25.5411 N   0  0  0  0  0  0  0  0  0  0  0  0
    8.1890   -0.7180   20.8700 N   0  0  0  0  0  0  0  0  0  0  0  0
    9.2690    1.4140   20.9380 O   0  0  0  0  0  0  0  0  0  0  0  0
    7.4995   -6.1856   27.1717 O   0  0  0  0  0  0  0  0  0  0  0  0
   11.1532    5.1904   20.3048 Cl  0  0  0  0  0  0  0  0  0  0  0  0
   14.3422    2.3512   22.6208 H   0  0  0  0  0  0  0  0  0  0  0  0
   12.5914    1.0317   23.7645 H   0  0  0  0  0  0  0  0  0  0  0  0
    8.9214   -0.1986   25.4206 H   0  0  0  0  0  0  0  0  0  0  0  0
   10.0622   -2.2326   21.8251 H   0  0  0  0  0  0  0  0  0  0  0  0
    8.6882   -2.3542   26.5803 H   0  0  0  0  0  0  0  0  0  0  0  0
    9.9258   -4.3896   22.9914 H   0  0  0  0  0  0  0  0  0  0  0  0
   13.7201    4.1879   21.0929 H   0  0  0  0  0  0  0  0  0  0  0  0
    9.5518    3.3947   21.8469 H   0  0  0  0  0  0  0  0  0  0  0  0
    4.3967    1.9772   17.4718 H   0  0  0  0  0  0  0  0  0  0  0  0
    3.0218    2.6486   19.3697 H   0  0  0  0  0  0  0  0  0  0  0  0
    3.6566    2.0043   21.7065 H   0  0  0  0  0  0  0  0  0  0  0  0
    5.7190    0.6877   22.0810 H   0  0  0  0  0  0  0  0  0  0  0  0
   10.0207   -3.9702   27.3608 H   0  0  0  0  0  0  0  0  0  0  0  0
   10.1536   -5.7313   27.1546 H   0  0  0  0  0  0  0  0  0  0  0  0
    9.1181   -6.7774   25.0751 H   0  0  0  0  0  0  0  0  0  0  0  0
    8.2812   -5.7063   23.9302 H   0  0  0  0  0  0  0  0  0  0  0  0
    8.3631   -5.2257   28.7609 H   0  0  0  0  0  0  0  0  0  0  0  0
    7.5532   -4.1574   27.6103 H   0  0  0  0  0  0  0  0  0  0  0  0
    6.5460   -5.1840   25.6220 H   0  0  0  0  0  0  0  0  0  0  0  0
    6.6948   -6.9355   25.4433 H   0  0  0  0  0  0  0  0  0  0  0  0
   10.2417    1.0375   24.5711 H   0  0  0  0  0  0  0  0  0  0  0  0
    9.0279    1.9881   23.7492 H   0  0  0  0  0  0  0  0  0  0  0  0
   10.7949   -0.0994   22.4253 H   0  0  0  0  0  0  0  0  0  0  0  0
    8.2585   -1.5522   21.1129 H   0  0  0  0  0  0  0  0  0  0  0  0
  1  2  2  0  0  0  0
  1  7  1  0  0  0  0
  2 10  1  0  0  0  0
  3  5  2  0  0  0  0
  3  9  1  0  0  0  0
  4  6  1  0  0  0  0
  4  9  2  0  0  0  0
  5 11  1  0  0  0  0
  6 11  2  0  0  0  0
  7 12  2  0  0  0  0
  8 10  2  0  0  0  0
  8 12  1  0  0  0  0
  9 25  1  0  0  0  0
 10 24  1  0  0  0  0
 11 29  1  0  0  0  0
 12 33  1  0  0  0  0
 13 15  1  0  0  0  0
 13 26  2  0  0  0  0
 13 28  1  0  0  0  0
 14 27  2  0  0  0  0
 14 28  1  0  0  0  0
 14 30  1  0  0  0  0
 15 16  2  0  0  0  0
 16 17  1  0  0  0  0
 17 18  2  0  0  0  0
 18 28  1  0  0  0  0
 19 25  1  1  0  0  0
 19 30  1  0  0  0  0
 19 31  2  0  0  0  0
 20 22  1  0  0  0  0
 20 29  1  0  0  0  0
 21 23  1  0  0  0  0
 21 29  1  0  0  0  0
 22 32  1  0  0  0  0
 23 32  1  0  0  0  0
 24 25  1  0  0  0  0
 26 27  1  0  0  0  0
  1 34  1  0  0  0  0
  2 35  1  0  0  0  0
  3 36  1  0  0  0  0
  4 37  1  0  0  0  0
  5 38  1  0  0  0  0
  6 39  1  0  0  0  0
  7 40  1  0  0  0  0
  8 41  1  0  0  0  0
 15 42  1  0  0  0  0
 16 43  1  0  0  0  0
 17 44  1  0  0  0  0
 18 45  1  0  0  0  0
 20 46  1  0  0  0  0
 20 47  1  0  0  0  0
 21 48  1  0  0  0  0
 21 49  1  0  0  0  0
 22 50  1  0  0  0  0
 22 51  1  0  0  0  0
 23 52  1  0  0  0  0
 23 53  1  0  0  0  0
 24 54  1  0  0  0  0
 24 55  1  0  0  0  0
 25 56  1  0  0  0  0
 30 57  1  0  0  0  0
M  END
> <clash_score>
2.199912744504704

> <docking_score>
-8.646238327026367

> <overlap_score>
0.970363199710846

$$$$
BENZO_339_1
  -OEChem-08222022193D

 52 55  0     0  0  0  0  0  0999 V2000
    3.9160    2.0630   19.5520 C   0  0  0  0  0  0  0  0  0  0  0  0
    4.2750    1.7050   20.8490 C   0  0  0  0  0  0  0  0  0  0  0  0
    4.6890    1.6810   18.4640 C   0  0  0  0  0  0  0  0  0  0  0  0
    5.4210    0.9600   21.0930 C   0  0  0  0  0  0  0  0  0  0  0  0
    9.0720   -1.1280   24.8640 C   0  0  0  0  0  0  0  0  0  0  0  0
    9.7200   -2.2600   22.8630 C   0  0  0  0  0  0  0  0  0  0  0  0
    8.9960   -2.3380   25.5320 C   0  0  0  0  0  0  0  0  0  0  0  0
    9.6730   -3.4710   23.5300 C   0  0  0  0  0  0  0  0  0  0  0  0
   12.2914    2.2071   23.0512 C   0  0  0  0  0  0  0  0  0  0  0  0
   12.1614    0.6214   24.5689 C   0  0  0  0  0  0  0  0  0  0  0  0
   11.3794    1.3761   23.7290 C   0  0  0  0  0  0  0  0  0  0  0  0
    5.8300    0.9190   18.6970 C   0  0  0  0  0  0  0  0  0  0  0  0
    6.1790    0.5730   19.9990 C   0  0  0  0  0  0  0  0  0  0  0  0
    9.3350   -1.0880   23.5010 C   0  0  0  0  0  0  0  0  0  0  0  0
    9.3070   -3.5340   24.8780 C   0  0  0  0  0  0  0  0  0  0  0  0
    9.0420    0.3700   21.5280 C   0  0  0  0  0  0  0  0  0  0  0  0
   14.6267    0.5248   25.0067 C   0  0  0  0  0  0  0  0  0  0  0  0
    8.0128   -5.2151   26.1416 C   0  0  0  0  0  0  0  0  0  0  0  0
   10.4372   -5.5860   25.6589 C   0  0  0  0  0  0  0  0  0  0  0  0
    9.8870    1.3260   23.5730 C   0  0  0  0  0  0  0  0  0  0  0  0
    8.1890   -0.7180   20.8700 C   0  0  0  0  0  0  0  0  0  0  0  0
   13.5560    2.0002   23.4280 N   0  0  0  0  0  0  0  0  0  0  0  0
    6.7580    0.3810   17.8350 N   0  0  0  0  0  0  0  0  0  0  0  0
    7.6390   -0.2680   18.5410 N   0  0  0  0  0  0  0  0  0  0  0  0
   13.4442    1.0306   24.3518 N   0  0  0  0  0  0  0  0  0  0  0  0
    7.3170   -0.1610   19.8550 N   0  0  0  0  0  0  0  0  0  0  0  0
    9.4560    0.1560   22.8130 N   0  0  0  0  0  0  0  0  0  0  0  0
    9.2543   -4.7552   25.5519 N   0  0  0  0  0  0  0  0  0  0  0  0
    9.2690    1.4140   20.9380 O   0  0  0  0  0  0  0  0  0  0  0  0
    3.0136    2.6524   19.3909 H   0  0  0  0  0  0  0  0  0  0  0  0
    3.6477    2.0141   21.6817 H   0  0  0  0  0  0  0  0  0  0  0  0
    4.4041    1.9739   17.4524 H   0  0  0  0  0  0  0  0  0  0  0  0
    5.7107    0.6909   22.1141 H   0  0  0  0  0  0  0  0  0  0  0  0
    8.9217   -0.1995   25.4232 H   0  0  0  0  0  0  0  0  0  0  0  0
   10.0643   -2.2341   21.8254 H   0  0  0  0  0  0  0  0  0  0  0  0
    8.6893   -2.3540   26.5808 H   0  0  0  0  0  0  0  0  0  0  0  0
    9.9257   -4.3898   22.9921 H   0  0  0  0  0  0  0  0  0  0  0  0
   12.0895    2.9562   22.2987 H   0  0  0  0  0  0  0  0  0  0  0  0
   11.9202   -0.1518   25.2857 H   0  0  0  0  0  0  0  0  0  0  0  0
   15.0068   -0.3132   24.4165 H   0  0  0  0  0  0  0  0  0  0  0  0
   15.3758    1.3189   25.0698 H   0  0  0  0  0  0  0  0  0  0  0  0
   14.3676    0.1958   26.0170 H   0  0  0  0  0  0  0  0  0  0  0  0
    8.1744   -6.1904   26.6238 H   0  0  0  0  0  0  0  0  0  0  0  0
    7.6718   -4.4870   26.8924 H   0  0  0  0  0  0  0  0  0  0  0  0
    7.2494   -5.3166   25.3561 H   0  0  0  0  0  0  0  0  0  0  0  0
   10.1946   -6.4995   26.2216 H   0  0  0  0  0  0  0  0  0  0  0  0
   10.7865   -5.8578   24.6518 H   0  0  0  0  0  0  0  0  0  0  0  0
   11.2285   -5.0312   26.1842 H   0  0  0  0  0  0  0  0  0  0  0  0
    9.3974    1.2912   24.5523 H   0  0  0  0  0  0  0  0  0  0  0  0
    9.5159    2.2168   23.0554 H   0  0  0  0  0  0  0  0  0  0  0  0
    8.8255   -1.4531   20.3835 H   0  0  0  0  0  0  0  0  0  0  0  0
    7.5533   -1.1948   21.6123 H   0  0  0  0  0  0  0  0  0  0  0  0
  1  2  1  0  0  0  0
  1  3  2  0  0  0  0
  2  4  2  0  0  0  0
  3 12  1  0  0  0  0
  4 13  1  0  0  0  0
  5  7  2  0  0  0  0
  5 14  1  0  0  0  0
  6  8  1  0  0  0  0
  6 14  2  0  0  0  0
  7 15  1  0  0  0  0
  8 15  2  0  0  0  0
  9 11  1  0  0  0  0
  9 22  2  0  0  0  0
 10 11  2  0  0  0  0
 10 25  1  0  0  0  0
 11 20  1  0  0  0  0
 12 13  2  0  0  0  0
 12 23  1  0  0  0  0
 13 26  1  0  0  0  0
 14 27  1  0  0  0  0
 15 28  1  0  0  0  0
 16 21  1  0  0  0  0
 16 27  1  0  0  0  0
 16 29  2  0  0  0  0
 17 25  1  0  0  0  0
 18 28  1  0  0  0  0
 19 28  1  0  0  0  0
 20 27  1  0  0  0  0
 21 26  1  0  0  0  0
 22 25  1  0  0  0  0
 23 24  2  0  0  0  0
 24 26  1  0  0  0  0
  1 30  1  0  0  0  0
  2 31  1  0  0  0  0
  3 32  1  0  0  0  0
  4 33  1  0  0  0  0
  5 34  1  0  0  0  0
  6 35  1  0  0  0  0
  7 36  1  0  0  0  0
  8 37  1  0  0  0  0
  9 38  1  0  0  0  0
 10 39  1  0  0  0  0
 17 40  1  0  0  0  0
 17 41  1  0  0  0  0
 17 42  1  0  0  0  0
 18 43  1  0  0  0  0
 18 44  1  0  0  0  0
 18 45  1  0  0  0  0
 19 46  1  0  0  0  0
 19 47  1  0  0  0  0
 19 48  1  0  0  0  0
 20 49  1  0  0  0  0
 20 50  1  0  0  0  0
 21 51  1  0  0  0  0
 21 52  1  0  0  0  0
M  END
> <clash_score>
0.6199406247098616

> <docking_score>
-9.709635734558105

> <overlap_score>
0.9767899513244629

$$$$
BENZO_338_1
  -OEChem-08222022193D

 52 55  0     0  0  0  0  0  0999 V2000
    3.9160    2.0630   19.5520 C   0  0  0  0  0  0  0  0  0  0  0  0
    4.2750    1.7050   20.8490 C   0  0  0  0  0  0  0  0  0  0  0  0
   13.4006    0.5725   24.7805 C   0  0  0  0  0  0  0  0  0  0  0  0
   12.0141    0.5273   24.6359 C   0  0  0  0  0  0  0  0  0  0  0  0
    4.6890    1.6810   18.4640 C   0  0  0  0  0  0  0  0  0  0  0  0
    5.4210    0.9600   21.0930 C   0  0  0  0  0  0  0  0  0  0  0  0
    9.0720   -1.1280   24.8640 C   0  0  0  0  0  0  0  0  0  0  0  0
    9.7200   -2.2600   22.8630 C   0  0  0  0  0  0  0  0  0  0  0  0
    8.9960   -2.3380   25.5320 C   0  0  0  0  0  0  0  0  0  0  0  0
    9.6730   -3.4710   23.5300 C   0  0  0  0  0  0  0  0  0  0  0  0
   14.1526    1.4666   24.0184 C   0  0  0  0  0  0  0  0  0  0  0  0
   12.1314    2.2702   22.9668 C   0  0  0  0  0  0  0  0  0  0  0  0
   11.3794    1.3761   23.7290 C   0  0  0  0  0  0  0  0  0  0  0  0
    5.8300    0.9190   18.6970 C   0  0  0  0  0  0  0  0  0  0  0  0
    6.1790    0.5730   19.9990 C   0  0  0  0  0  0  0  0  0  0  0  0
    9.3350   -1.0880   23.5010 C   0  0  0  0  0  0  0  0  0  0  0  0
    9.3070   -3.5340   24.8780 C   0  0  0  0  0  0  0  0  0  0  0  0
   13.5180    2.3154   23.1115 C   0  0  0  0  0  0  0  0  0  0  0  0
    9.0420    0.3700   21.5280 C   0  0  0  0  0  0  0  0  0  0  0  0
    8.0128   -5.2151   26.1416 C   0  0  0  0  0  0  0  0  0  0  0  0
   10.4372   -5.5860   25.6589 C   0  0  0  0  0  0  0  0  0  0  0  0
    9.8870    1.3260   23.5730 C   0  0  0  0  0  0  0  0  0  0  0  0
    8.1890   -0.7180   20.8700 C   0  0  0  0  0  0  0  0  0  0  0  0
    6.7580    0.3810   17.8350 N   0  0  0  0  0  0  0  0  0  0  0  0
    7.6390   -0.2680   18.5410 N   0  0  0  0  0  0  0  0  0  0  0  0
    7.3170   -0.1610   19.8550 N   0  0  0  0  0  0  0  0  0  0  0  0
    9.4560    0.1560   22.8130 N   0  0  0  0  0  0  0  0  0  0  0  0
    9.2543   -4.7552   25.5519 N   0  0  0  0  0  0  0  0  0  0  0  0
    9.2690    1.4140   20.9380 O   0  0  0  0  0  0  0  0  0  0  0  0
   14.4463    3.4175   22.1707 Cl  0  0  0  0  0  0  0  0  0  0  0  0
    3.0136    2.6524   19.3909 H   0  0  0  0  0  0  0  0  0  0  0  0
    3.6477    2.0141   21.6817 H   0  0  0  0  0  0  0  0  0  0  0  0
   13.8945   -0.0888   25.4867 H   0  0  0  0  0  0  0  0  0  0  0  0
   11.4361   -0.1726   25.2338 H   0  0  0  0  0  0  0  0  0  0  0  0
    4.4041    1.9739   17.4524 H   0  0  0  0  0  0  0  0  0  0  0  0
    5.7107    0.6909   22.1141 H   0  0  0  0  0  0  0  0  0  0  0  0
    8.9217   -0.1995   25.4232 H   0  0  0  0  0  0  0  0  0  0  0  0
   10.0643   -2.2341   21.8254 H   0  0  0  0  0  0  0  0  0  0  0  0
    8.6893   -2.3540   26.5808 H   0  0  0  0  0  0  0  0  0  0  0  0
    9.9257   -4.3898   22.9921 H   0  0  0  0  0  0  0  0  0  0  0  0
   15.2326    1.4907   24.1414 H   0  0  0  0  0  0  0  0  0  0  0  0
   11.6318    2.9303   22.2615 H   0  0  0  0  0  0  0  0  0  0  0  0
    8.1744   -6.1904   26.6238 H   0  0  0  0  0  0  0  0  0  0  0  0
    7.6718   -4.4870   26.8924 H   0  0  0  0  0  0  0  0  0  0  0  0
    7.2494   -5.3166   25.3561 H   0  0  0  0  0  0  0  0  0  0  0  0
   10.1946   -6.4995   26.2216 H   0  0  0  0  0  0  0  0  0  0  0  0
   10.7865   -5.8578   24.6518 H   0  0  0  0  0  0  0  0  0  0  0  0
   11.2285   -5.0312   26.1842 H   0  0  0  0  0  0  0  0  0  0  0  0
    9.3974    1.2912   24.5523 H   0  0  0  0  0  0  0  0  0  0  0  0
    9.5159    2.2168   23.0554 H   0  0  0  0  0  0  0  0  0  0  0  0
    8.8255   -1.4531   20.3835 H   0  0  0  0  0  0  0  0  0  0  0  0
    7.5533   -1.1948   21.6123 H   0  0  0  0  0  0  0  0  0  0  0  0
  1  2  1  0  0  0  0
  1  5  2  0  0  0  0
  2  6  2  0  0  0  0
  3  4  2  0  0  0  0
  3 11  1  0  0  0  0
  4 13  1  0  0  0  0
  5 14  1  0  0  0  0
  6 15  1  0  0  0  0
  7  9  2  0  0  0  0
  7 16  1  0  0  0  0
  8 10  1  0  0  0  0
  8 16  2  0  0  0  0
  9 17  1  0  0  0  0
 10 17  2  0  0  0  0
 11 18  2  0  0  0  0
 12 13  2  0  0  0  0
 12 18  1  0  0  0  0
 13 22  1  0  0  0  0
 14 15  2  0  0  0  0
 14 24  1  0  0  0  0
 15 26  1  0  0  0  0
 16 27  1  0  0  0  0
 17 28  1  0  0  0  0
 18 30  1  0  0  0  0
 19 23  1  0  0  0  0
 19 27  1  0  0  0  0
 19 29  2  0  0  0  0
 20 28  1  0  0  0  0
 21 28  1  0  0  0  0
 22 27  1  0  0  0  0
 23 26  1  0  0  0  0
 24 25  2  0  0  0  0
 25 26  1  0  0  0  0
  1 31  1  0  0  0  0
  2 32  1  0  0  0  0
  3 33  1  0  0  0  0
  4 34  1  0  0  0  0
  5 35  1  0  0  0  0
  6 36  1  0  0  0  0
  7 37  1  0  0  0  0
  8 38  1  0  0  0  0
  9 39  1  0  0  0  0
 10 40  1  0  0  0  0
 11 41  1  0  0  0  0
 12 42  1  0  0  0  0
 20 43  1  0  0  0  0
 20 44  1  0  0  0  0
 20 45  1  0  0  0  0
 21 46  1  0  0  0  0
 21 47  1  0  0  0  0
 21 48  1  0  0  0  0
 22 49  1  0  0  0  0
 22 50  1  0  0  0  0
 23 51  1  0  0  0  0
 23 52  1  0  0  0  0
M  END
> <clash_score>
0

> <docking_score>
-9.13859748840332

> <overlap_score>
0.9891858696937561

$$$$
BENZO_335_2
  -OEChem-08222022193D

 57 61  0     1  0  0  0  0  0999 V2000
    9.0720   -1.1280   24.8640 C   0  0  0  0  0  0  0  0  0  0  0  0
    9.7200   -2.2600   22.8630 C   0  0  0  0  0  0  0  0  0  0  0  0
    8.9960   -2.3380   25.5320 C   0  0  0  0  0  0  0  0  0  0  0  0
    9.6730   -3.4710   23.5300 C   0  0  0  0  0  0  0  0  0  0  0  0
   12.3549    1.9792   22.9728 C   0  0  0  0  0  0  0  0  0  0  0  0
   10.7877    3.1780   22.0023 C   0  0  0  0  0  0  0  0  0  0  0  0
    9.3350   -1.0880   23.5010 C   0  0  0  0  0  0  0  0  0  0  0  0
   10.9588    2.1320   22.8759 C   0  0  0  0  0  0  0  0  0  0  0  0
    9.3070   -3.5340   24.8780 C   0  0  0  0  0  0  0  0  0  0  0  0
    5.8300    0.9190   18.6970 C   0  0  0  0  0  0  0  0  0  0  0  0
    7.3170   -0.1610   19.8550 C   0  0  0  0  0  0  0  0  0  0  0  0
    4.6890    1.6810   18.4640 C   0  0  0  0  0  0  0  0  0  0  0  0
    3.9160    2.0630   19.5520 C   0  0  0  0  0  0  0  0  0  0  0  0
    4.2750    1.7050   20.8490 C   0  0  0  0  0  0  0  0  0  0  0  0
    5.4210    0.9600   21.0930 C   0  0  0  0  0  0  0  0  0  0  0  0
    9.0420    0.3700   21.5280 C   0  0  0  0  0  0  0  0  0  0  0  0
    9.5176   -4.8600   26.9769 C   0  0  0  0  0  0  0  0  0  0  0  0
    8.5166   -5.8725   24.9805 C   0  0  0  0  0  0  0  0  0  0  0  0
    8.1870   -5.0443   27.6986 C   0  0  0  0  0  0  0  0  0  0  0  0
    7.2201   -6.0348   25.7753 C   0  0  0  0  0  0  0  0  0  0  0  0
   12.3765    4.6444   20.7357 C   0  0  0  0  0  0  0  0  0  0  0  0
    9.8870    1.3260   23.5730 C   0  0  0  0  0  0  0  0  0  0  0  0
    9.4560    0.1560   22.8130 C   0  0  2  0  0  0  0  0  0  0  0  0
   13.0232    2.8576   22.2206 N   0  0  0  0  0  0  0  0  0  0  0  0
    6.7580    0.3810   17.8350 N   0  0  0  0  0  0  0  0  0  0  0  0
    7.6390   -0.2680   18.5410 N   0  0  0  0  0  0  0  0  0  0  0  0
   12.0428    3.5725   21.6427 N   0  0  0  0  0  0  0  0  0  0  0  0
    6.1790    0.5730   19.9990 N   0  0  0  0  0  0  0  0  0  0  0  0
    9.2564   -4.7368   25.5411 N   0  0  0  0  0  0  0  0  0  0  0  0
    8.1890   -0.7180   20.8700 N   0  0  0  0  0  0  0  0  0  0  0  0
    9.2690    1.4140   20.9380 O   0  0  0  0  0  0  0  0  0  0  0  0
    7.4995   -6.1856   27.1717 O   0  0  0  0  0  0  0  0  0  0  0  0
    8.9214   -0.1986   25.4206 H   0  0  0  0  0  0  0  0  0  0  0  0
   10.0622   -2.2326   21.8251 H   0  0  0  0  0  0  0  0  0  0  0  0
    8.6882   -2.3542   26.5803 H   0  0  0  0  0  0  0  0  0  0  0  0
    9.9258   -4.3896   22.9914 H   0  0  0  0  0  0  0  0  0  0  0  0
   12.9154    1.2645   23.5587 H   0  0  0  0  0  0  0  0  0  0  0  0
    9.9018    3.6623   21.6145 H   0  0  0  0  0  0  0  0  0  0  0  0
    4.3967    1.9772   17.4718 H   0  0  0  0  0  0  0  0  0  0  0  0
    3.0218    2.6486   19.3697 H   0  0  0  0  0  0  0  0  0  0  0  0
    3.6566    2.0043   21.7065 H   0  0  0  0  0  0  0  0  0  0  0  0
    5.7190    0.6877   22.0810 H   0  0  0  0  0  0  0  0  0  0  0  0
   10.0207   -3.9702   27.3608 H   0  0  0  0  0  0  0  0  0  0  0  0
   10.1536   -5.7313   27.1546 H   0  0  0  0  0  0  0  0  0  0  0  0
    9.1181   -6.7774   25.0751 H   0  0  0  0  0  0  0  0  0  0  0  0
    8.2812   -5.7063   23.9302 H   0  0  0  0  0  0  0  0  0  0  0  0
    8.3631   -5.2257   28.7609 H   0  0  0  0  0  0  0  0  0  0  0  0
    7.5532   -4.1574   27.6103 H   0  0  0  0  0  0  0  0  0  0  0  0
    6.5460   -5.1840   25.6220 H   0  0  0  0  0  0  0  0  0  0  0  0
    6.6948   -6.9355   25.4433 H   0  0  0  0  0  0  0  0  0  0  0  0
   12.4726    5.5632   21.3202 H   0  0  0  0  0  0  0  0  0  0  0  0
   13.3178    4.4131   20.2294 H   0  0  0  0  0  0  0  0  0  0  0  0
   11.5839    4.7460   19.9892 H   0  0  0  0  0  0  0  0  0  0  0  0
   10.2417    1.0375   24.5711 H   0  0  0  0  0  0  0  0  0  0  0  0
    9.0279    1.9881   23.7492 H   0  0  0  0  0  0  0  0  0  0  0  0
   10.7949   -0.0994   22.4253 H   0  0  0  0  0  0  0  0  0  0  0  0
    8.2585   -1.5522   21.1129 H   0  0  0  0  0  0  0  0  0  0  0  0
  1  3  2  0  0  0  0
  1  7  1  0  0  0  0
  2  4  1  0  0  0  0
  2  7  2  0  0  0  0
  3  9  1  0  0  0  0
  4  9  2  0  0  0  0
  5  8  1  0  0  0  0
  5 24  2  0  0  0  0
  6  8  2  0  0  0  0
  6 27  1  0  0  0  0
  7 23  1  0  0  0  0
  8 22  1  0  0  0  0
  9 29  1  0  0  0  0
 10 12  1  0  0  0  0
 10 25  2  0  0  0  0
 10 28  1  0  0  0  0
 11 26  2  0  0  0  0
 11 28  1  0  0  0  0
 11 30  1  0  0  0  0
 12 13  2  0  0  0  0
 13 14  1  0  0  0  0
 14 15  2  0  0  0  0
 15 28  1  0  0  0  0
 16 23  1  0  0  0  0
 16 30  1  0  0  0  0
 16 31  2  0  0  0  0
 17 19  1  0  0  0  0
 17 29  1  0  0  0  0
 18 20  1  0  0  0  0
 18 29  1  0  0  0  0
 19 32  1  0  0  0  0
 20 32  1  0  0  0  0
 21 27  1  0  0  0  0
 22 23  1  6  0  0  0
 24 27  1  0  0  0  0
 25 26  1  0  0  0  0
  1 33  1  0  0  0  0
  2 34  1  0  0  0  0
  3 35  1  0  0  0  0
  4 36  1  0  0  0  0
  5 37  1  0  0  0  0
  6 38  1  0  0  0  0
 12 39  1  0  0  0  0
 13 40  1  0  0  0  0
 14 41  1  0  0  0  0
 15 42  1  0  0  0  0
 17 43  1  0  0  0  0
 17 44  1  0  0  0  0
 18 45  1  0  0  0  0
 18 46  1  0  0  0  0
 19 47  1  0  0  0  0
 19 48  1  0  0  0  0
 20 49  1  0  0  0  0
 20 50  1  0  0  0  0
 21 51  1  0  0  0  0
 21 52  1  0  0  0  0
 21 53  1  0  0  0  0
 22 54  1  0  0  0  0
 22 55  1  0  0  0  0
 23 56  1  0  0  0  0
 30 57  1  0  0  0  0
M  END
> <clash_score>
0

> <docking_score>
-8.119669914245605

> <overlap_score>
0.9648752212524414

$$$$
BENZO_334_2
  -OEChem-08222022193D

 57 61  0     1  0  0  0  0  0999 V2000
   13.6270    0.7091   23.2981 C   0  0  0  0  0  0  0  0  0  0  0  0
   12.2510    0.4886   23.3573 C   0  0  0  0  0  0  0  0  0  0  0  0
    9.0720   -1.1280   24.8640 C   0  0  0  0  0  0  0  0  0  0  0  0
    9.7200   -2.2600   22.8630 C   0  0  0  0  0  0  0  0  0  0  0  0
    8.9960   -2.3380   25.5320 C   0  0  0  0  0  0  0  0  0  0  0  0
    9.6730   -3.4710   23.5300 C   0  0  0  0  0  0  0  0  0  0  0  0
   14.1301    2.0068   23.3918 C   0  0  0  0  0  0  0  0  0  0  0  0
   11.8810    2.8633   23.6037 C   0  0  0  0  0  0  0  0  0  0  0  0
    9.3350   -1.0880   23.5010 C   0  0  0  0  0  0  0  0  0  0  0  0
   11.3780    1.5657   23.5101 C   0  0  0  0  0  0  0  0  0  0  0  0
    9.3070   -3.5340   24.8780 C   0  0  0  0  0  0  0  0  0  0  0  0
   13.2570    3.0839   23.5445 C   0  0  0  0  0  0  0  0  0  0  0  0
    5.8300    0.9190   18.6970 C   0  0  0  0  0  0  0  0  0  0  0  0
    7.3170   -0.1610   19.8550 C   0  0  0  0  0  0  0  0  0  0  0  0
    4.6890    1.6810   18.4640 C   0  0  0  0  0  0  0  0  0  0  0  0
    3.9160    2.0630   19.5520 C   0  0  0  0  0  0  0  0  0  0  0  0
    4.2750    1.7050   20.8490 C   0  0  0  0  0  0  0  0  0  0  0  0
    5.4210    0.9600   21.0930 C   0  0  0  0  0  0  0  0  0  0  0  0
    9.0420    0.3700   21.5280 C   0  0  0  0  0  0  0  0  0  0  0  0
   10.0772   -5.0257   26.7191 C   0  0  0  0  0  0  0  0  0  0  0  0
    8.0927   -5.6196   25.4069 C   0  0  0  0  0  0  0  0  0  0  0  0
    9.1935   -4.9431   27.9590 C   0  0  0  0  0  0  0  0  0  0  0  0
    7.2758   -5.5292   26.6966 C   0  0  0  0  0  0  0  0  0  0  0  0
    9.8870    1.3260   23.5730 C   0  0  0  0  0  0  0  0  0  0  0  0
    9.4560    0.1560   22.8130 C   0  0  2  0  0  0  0  0  0  0  0  0
    6.7580    0.3810   17.8350 N   0  0  0  0  0  0  0  0  0  0  0  0
    7.6390   -0.2680   18.5410 N   0  0  0  0  0  0  0  0  0  0  0  0
    6.1790    0.5730   19.9990 N   0  0  0  0  0  0  0  0  0  0  0  0
    9.2564   -4.7368   25.5411 N   0  0  0  0  0  0  0  0  0  0  0  0
    8.1890   -0.7180   20.8700 N   0  0  0  0  0  0  0  0  0  0  0  0
    9.2690    1.4140   20.9380 O   0  0  0  0  0  0  0  0  0  0  0  0
    8.0884   -5.8462   27.8322 O   0  0  0  0  0  0  0  0  0  0  0  0
   13.8782    4.6848   23.6588 Cl  0  0  0  0  0  0  0  0  0  0  0  0
   14.3065   -0.1299   23.1790 H   0  0  0  0  0  0  0  0  0  0  0  0
   11.8679   -0.5259   23.2835 H   0  0  0  0  0  0  0  0  0  0  0  0
    8.9214   -0.1986   25.4206 H   0  0  0  0  0  0  0  0  0  0  0  0
   10.0622   -2.2326   21.8251 H   0  0  0  0  0  0  0  0  0  0  0  0
    8.6882   -2.3542   26.5803 H   0  0  0  0  0  0  0  0  0  0  0  0
    9.9258   -4.3896   22.9914 H   0  0  0  0  0  0  0  0  0  0  0  0
   15.2048    2.1638   23.3438 H   0  0  0  0  0  0  0  0  0  0  0  0
   11.1962    3.6997   23.7233 H   0  0  0  0  0  0  0  0  0  0  0  0
    4.3967    1.9772   17.4718 H   0  0  0  0  0  0  0  0  0  0  0  0
    3.0218    2.6486   19.3697 H   0  0  0  0  0  0  0  0  0  0  0  0
    3.6566    2.0043   21.7065 H   0  0  0  0  0  0  0  0  0  0  0  0
    5.7190    0.6877   22.0810 H   0  0  0  0  0  0  0  0  0  0  0  0
   10.8986   -4.3117   26.8083 H   0  0  0  0  0  0  0  0  0  0  0  0
   10.4916   -6.0336   26.6319 H   0  0  0  0  0  0  0  0  0  0  0  0
    8.4328   -6.6457   25.2617 H   0  0  0  0  0  0  0  0  0  0  0  0
    7.4726   -5.3240   24.5618 H   0  0  0  0  0  0  0  0  0  0  0  0
    9.7638   -5.2402   28.8416 H   0  0  0  0  0  0  0  0  0  0  0  0
    8.8238   -3.9272   28.1248 H   0  0  0  0  0  0  0  0  0  0  0  0
    6.8340   -4.5339   26.8232 H   0  0  0  0  0  0  0  0  0  0  0  0
    6.4551   -6.2523   26.6641 H   0  0  0  0  0  0  0  0  0  0  0  0
    9.5760    1.2490   24.6231 H   0  0  0  0  0  0  0  0  0  0  0  0
    9.3844    2.2230   23.1853 H   0  0  0  0  0  0  0  0  0  0  0  0
    8.0674    0.5009   23.2732 H   0  0  0  0  0  0  0  0  0  0  0  0
    8.2585   -1.5522   21.1129 H   0  0  0  0  0  0  0  0  0  0  0  0
  1  2  2  0  0  0  0
  1  7  1  0  0  0  0
  2 10  1  0  0  0  0
  3  5  2  0  0  0  0
  3  9  1  0  0  0  0
  4  6  1  0  0  0  0
  4  9  2  0  0  0  0
  5 11  1  0  0  0  0
  6 11  2  0  0  0  0
  7 12  2  0  0  0  0
  8 10  2  0  0  0  0
  8 12  1  0  0  0  0
  9 25  1  0  0  0  0
 10 24  1  0  0  0  0
 11 29  1  0  0  0  0
 12 33  1  0  0  0  0
 13 15  1  0  0  0  0
 13 26  2  0  0  0  0
 13 28  1  0  0  0  0
 14 27  2  0  0  0  0
 14 28  1  0  0  0  0
 14 30  1  0  0  0  0
 15 16  2  0  0  0  0
 16 17  1  0  0  0  0
 17 18  2  0  0  0  0
 18 28  1  0  0  0  0
 19 25  1  6  0  0  0
 19 30  1  0  0  0  0
 19 31  2  0  0  0  0
 20 22  1  0  0  0  0
 20 29  1  0  0  0  0
 21 23  1  0  0  0  0
 21 29  1  0  0  0  0
 22 32  1  0  0  0  0
 23 32  1  0  0  0  0
 24 25  1  0  0  0  0
 26 27  1  0  0  0  0
  1 34  1  0  0  0  0
  2 35  1  0  0  0  0
  3 36  1  0  0  0  0
  4 37  1  0  0  0  0
  5 38  1  0  0  0  0
  6 39  1  0  0  0  0
  7 40  1  0  0  0  0
  8 41  1  0  0  0  0
 15 42  1  0  0  0  0
 16 43  1  0  0  0  0
 17 44  1  0  0  0  0
 18 45  1  0  0  0  0
 20 46  1  0  0  0  0
 20 47  1  0  0  0  0
 21 48  1  0  0  0  0
 21 49  1  0  0  0  0
 22 50  1  0  0  0  0
 22 51  1  0  0  0  0
 23 52  1  0  0  0  0
 23 53  1  0  0  0  0
 24 54  1  0  0  0  0
 24 55  1  0  0  0  0
 25 56  1  0  0  0  0
 30 57  1  0  0  0  0
M  END
> <clash_score>
0

> <docking_score>
-9.103248596191406

> <overlap_score>
1.0125887393951416

$$$$
BENZO_335_1
  -OEChem-08222022193D

 57 61  0     1  0  0  0  0  0999 V2000
    9.0720   -1.1280   24.8640 C   0  0  0  0  0  0  0  0  0  0  0  0
    9.7200   -2.2600   22.8630 C   0  0  0  0  0  0  0  0  0  0  0  0
    8.9960   -2.3380   25.5320 C   0  0  0  0  0  0  0  0  0  0  0  0
    9.6730   -3.4710   23.5300 C   0  0  0  0  0  0  0  0  0  0  0  0
   12.0594    2.7949   23.5898 C   0  0  0  0  0  0  0  0  0  0  0  0
   12.3731    0.6302   23.3648 C   0  0  0  0  0  0  0  0  0  0  0  0
    9.3350   -1.0880   23.5010 C   0  0  0  0  0  0  0  0  0  0  0  0
   11.3780    1.5657   23.5101 C   0  0  0  0  0  0  0  0  0  0  0  0
    9.3070   -3.5340   24.8780 C   0  0  0  0  0  0  0  0  0  0  0  0
    5.8300    0.9190   18.6970 C   0  0  0  0  0  0  0  0  0  0  0  0
    7.3170   -0.1610   19.8550 C   0  0  0  0  0  0  0  0  0  0  0  0
    4.6890    1.6810   18.4640 C   0  0  0  0  0  0  0  0  0  0  0  0
    3.9160    2.0630   19.5520 C   0  0  0  0  0  0  0  0  0  0  0  0
    4.2750    1.7050   20.8490 C   0  0  0  0  0  0  0  0  0  0  0  0
    5.4210    0.9600   21.0930 C   0  0  0  0  0  0  0  0  0  0  0  0
    9.0420    0.3700   21.5280 C   0  0  0  0  0  0  0  0  0  0  0  0
   10.0772   -5.0257   26.7191 C   0  0  0  0  0  0  0  0  0  0  0  0
    8.0927   -5.6196   25.4069 C   0  0  0  0  0  0  0  0  0  0  0  0
    9.1935   -4.9431   27.9590 C   0  0  0  0  0  0  0  0  0  0  0  0
    7.2758   -5.5292   26.6966 C   0  0  0  0  0  0  0  0  0  0  0  0
   14.8715    0.7756   23.2396 C   0  0  0  0  0  0  0  0  0  0  0  0
    9.8870    1.3260   23.5730 C   0  0  0  0  0  0  0  0  0  0  0  0
    9.4560    0.1560   22.8130 C   0  0  1  0  0  0  0  0  0  0  0  0
   13.3850    2.6563   23.5026 N   0  0  0  0  0  0  0  0  0  0  0  0
    6.7580    0.3810   17.8350 N   0  0  0  0  0  0  0  0  0  0  0  0
    7.6390   -0.2680   18.5410 N   0  0  0  0  0  0  0  0  0  0  0  0
   13.5445    1.3288   23.3666 N   0  0  0  0  0  0  0  0  0  0  0  0
    6.1790    0.5730   19.9990 N   0  0  0  0  0  0  0  0  0  0  0  0
    9.2564   -4.7368   25.5411 N   0  0  0  0  0  0  0  0  0  0  0  0
    8.1890   -0.7180   20.8700 N   0  0  0  0  0  0  0  0  0  0  0  0
    9.2690    1.4140   20.9380 O   0  0  0  0  0  0  0  0  0  0  0  0
    8.0884   -5.8462   27.8322 O   0  0  0  0  0  0  0  0  0  0  0  0
    8.9214   -0.1986   25.4206 H   0  0  0  0  0  0  0  0  0  0  0  0
   10.0622   -2.2326   21.8251 H   0  0  0  0  0  0  0  0  0  0  0  0
    8.6882   -2.3542   26.5803 H   0  0  0  0  0  0  0  0  0  0  0  0
    9.9258   -4.3896   22.9914 H   0  0  0  0  0  0  0  0  0  0  0  0
   11.6476    3.7871   23.7088 H   0  0  0  0  0  0  0  0  0  0  0  0
   12.3482   -0.4464   23.2641 H   0  0  0  0  0  0  0  0  0  0  0  0
    4.3967    1.9772   17.4718 H   0  0  0  0  0  0  0  0  0  0  0  0
    3.0218    2.6486   19.3697 H   0  0  0  0  0  0  0  0  0  0  0  0
    3.6566    2.0043   21.7065 H   0  0  0  0  0  0  0  0  0  0  0  0
    5.7190    0.6877   22.0810 H   0  0  0  0  0  0  0  0  0  0  0  0
   10.8986   -4.3117   26.8083 H   0  0  0  0  0  0  0  0  0  0  0  0
   10.4916   -6.0336   26.6319 H   0  0  0  0  0  0  0  0  0  0  0  0
    8.4328   -6.6457   25.2617 H   0  0  0  0  0  0  0  0  0  0  0  0
    7.4726   -5.3240   24.5618 H   0  0  0  0  0  0  0  0  0  0  0  0
    9.7638   -5.2402   28.8416 H   0  0  0  0  0  0  0  0  0  0  0  0
    8.8238   -3.9272   28.1248 H   0  0  0  0  0  0  0  0  0  0  0  0
    6.8340   -4.5339   26.8232 H   0  0  0  0  0  0  0  0  0  0  0  0
    6.4551   -6.2523   26.6641 H   0  0  0  0  0  0  0  0  0  0  0  0
   15.1240    0.7456   22.1764 H   0  0  0  0  0  0  0  0  0  0  0  0
   15.5818    1.4045   23.7836 H   0  0  0  0  0  0  0  0  0  0  0  0
   14.8855   -0.2314   23.6656 H   0  0  0  0  0  0  0  0  0  0  0  0
    9.5760    1.2490   24.6231 H   0  0  0  0  0  0  0  0  0  0  0  0
    9.3844    2.2230   23.1853 H   0  0  0  0  0  0  0  0  0  0  0  0
    8.0674    0.5009   23.2732 H   0  0  0  0  0  0  0  0  0  0  0  0
    8.2585   -1.5522   21.1129 H   0  0  0  0  0  0  0  0  0  0  0  0
  1  3  2  0  0  0  0
  1  7  1  0  0  0  0
  2  4  1  0  0  0  0
  2  7  2  0  0  0  0
  3  9  1  0  0  0  0
  4  9  2  0  0  0  0
  5  8  1  0  0  0  0
  5 24  2  0  0  0  0
  6  8  2  0  0  0  0
  6 27  1  0  0  0  0
  7 23  1  0  0  0  0
  8 22  1  0  0  0  0
  9 29  1  0  0  0  0
 10 12  1  0  0  0  0
 10 25  2  0  0  0  0
 10 28  1  0  0  0  0
 11 26  2  0  0  0  0
 11 28  1  0  0  0  0
 11 30  1  0  0  0  0
 12 13  2  0  0  0  0
 13 14  1  0  0  0  0
 14 15  2  0  0  0  0
 15 28  1  0  0  0  0
 16 23  1  0  0  0  0
 16 30  1  0  0  0  0
 16 31  2  0  0  0  0
 17 19  1  0  0  0  0
 17 29  1  0  0  0  0
 18 20  1  0  0  0  0
 18 29  1  0  0  0  0
 19 32  1  0  0  0  0
 20 32  1  0  0  0  0
 21 27  1  0  0  0  0
 22 23  1  1  0  0  0
 24 27  1  0  0  0  0
 25 26  1  0  0  0  0
  1 33  1  0  0  0  0
  2 34  1  0  0  0  0
  3 35  1  0  0  0  0
  4 36  1  0  0  0  0
  5 37  1  0  0  0  0
  6 38  1  0  0  0  0
 12 39  1  0  0  0  0
 13 40  1  0  0  0  0
 14 41  1  0  0  0  0
 15 42  1  0  0  0  0
 17 43  1  0  0  0  0
 17 44  1  0  0  0  0
 18 45  1  0  0  0  0
 18 46  1  0  0  0  0
 19 47  1  0  0  0  0
 19 48  1  0  0  0  0
 20 49  1  0  0  0  0
 20 50  1  0  0  0  0
 21 51  1  0  0  0  0
 21 52  1  0  0  0  0
 21 53  1  0  0  0  0
 22 54  1  0  0  0  0
 22 55  1  0  0  0  0
 23 56  1  0  0  0  0
 30 57  1  0  0  0  0
M  END
> <clash_score>
0

> <docking_score>
-9.41295051574707

> <overlap_score>
1.0117695331573486

$$$$
BENZO_341_1
  -OEChem-08222022203D

 54 57  0     0  0  0  0  0  0999 V2000
   14.1526    1.4694   24.0176 C   0  0  0  0  0  0  0  0  0  0  0  0
   13.3741    0.8121   24.9701 C   0  0  0  0  0  0  0  0  0  0  0  0
   13.5446    2.0802   22.9208 C   0  0  0  0  0  0  0  0  0  0  0  0
    3.9160    2.0630   19.5520 C   0  0  0  0  0  0  0  0  0  0  0  0
    4.2750    1.7050   20.8490 C   0  0  0  0  0  0  0  0  0  0  0  0
   11.9875    0.7654   24.8258 C   0  0  0  0  0  0  0  0  0  0  0  0
   12.1580    2.0335   22.7765 C   0  0  0  0  0  0  0  0  0  0  0  0
    4.6890    1.6810   18.4640 C   0  0  0  0  0  0  0  0  0  0  0  0
    5.4210    0.9600   21.0930 C   0  0  0  0  0  0  0  0  0  0  0  0
    8.9960   -2.3380   25.5320 C   0  0  0  0  0  0  0  0  0  0  0  0
    9.6730   -3.4710   23.5300 C   0  0  0  0  0  0  0  0  0  0  0  0
    9.0720   -1.1280   24.8640 C   0  0  0  0  0  0  0  0  0  0  0  0
    9.7200   -2.2600   22.8630 C   0  0  0  0  0  0  0  0  0  0  0  0
   11.3794    1.3761   23.7290 C   0  0  0  0  0  0  0  0  0  0  0  0
    5.8300    0.9190   18.6970 C   0  0  0  0  0  0  0  0  0  0  0  0
    6.1790    0.5730   19.9990 C   0  0  0  0  0  0  0  0  0  0  0  0
    9.3070   -3.5340   24.8780 C   0  0  0  0  0  0  0  0  0  0  0  0
    9.3350   -1.0880   23.5010 C   0  0  0  0  0  0  0  0  0  0  0  0
    9.5334   -6.0236   25.0414 C   0  0  0  0  0  0  0  0  0  0  0  0
    9.0420    0.3700   21.5280 C   0  0  0  0  0  0  0  0  0  0  0  0
   10.6330   -7.3746   26.8775 C   0  0  0  0  0  0  0  0  0  0  0  0
    9.8870    1.3260   23.5730 C   0  0  0  0  0  0  0  0  0  0  0  0
    9.3522   -7.0865   26.1149 C   0  0  0  0  0  0  0  0  0  0  0  0
    8.1890   -0.7180   20.8700 C   0  0  0  0  0  0  0  0  0  0  0  0
    6.7580    0.3810   17.8350 N   0  0  0  0  0  0  0  0  0  0  0  0
    7.6390   -0.2680   18.5410 N   0  0  0  0  0  0  0  0  0  0  0  0
    7.3170   -0.1610   19.8550 N   0  0  0  0  0  0  0  0  0  0  0  0
    9.2546   -4.7422   25.5438 N   0  0  0  0  0  0  0  0  0  0  0  0
    9.4560    0.1560   22.8130 N   0  0  0  0  0  0  0  0  0  0  0  0
    9.8805   -6.3053   23.8992 O   0  0  0  0  0  0  0  0  0  0  0  0
    9.2690    1.4140   20.9380 O   0  0  0  0  0  0  0  0  0  0  0  0
   15.2322    1.5068   24.1308 H   0  0  0  0  0  0  0  0  0  0  0  0
   13.8473    0.3374   25.8248 H   0  0  0  0  0  0  0  0  0  0  0  0
   14.1503    2.5930   22.1795 H   0  0  0  0  0  0  0  0  0  0  0  0
    3.0136    2.6524   19.3909 H   0  0  0  0  0  0  0  0  0  0  0  0
    3.6477    2.0141   21.6817 H   0  0  0  0  0  0  0  0  0  0  0  0
   11.3889    0.2508   25.5729 H   0  0  0  0  0  0  0  0  0  0  0  0
   11.6930    2.5120   21.9187 H   0  0  0  0  0  0  0  0  0  0  0  0
    4.4041    1.9739   17.4524 H   0  0  0  0  0  0  0  0  0  0  0  0
    5.7107    0.6909   22.1141 H   0  0  0  0  0  0  0  0  0  0  0  0
    8.6895   -2.3529   26.5807 H   0  0  0  0  0  0  0  0  0  0  0  0
    9.9262   -4.3897   22.9916 H   0  0  0  0  0  0  0  0  0  0  0  0
    8.9224   -0.1998   25.4238 H   0  0  0  0  0  0  0  0  0  0  0  0
   10.0649   -2.2343   21.8258 H   0  0  0  0  0  0  0  0  0  0  0  0
   11.4241   -7.7171   26.2024 H   0  0  0  0  0  0  0  0  0  0  0  0
   10.4629   -8.1530   27.6277 H   0  0  0  0  0  0  0  0  0  0  0  0
   10.9949   -6.4779   27.3911 H   0  0  0  0  0  0  0  0  0  0  0  0
    9.3974    1.2912   24.5523 H   0  0  0  0  0  0  0  0  0  0  0  0
    9.5159    2.2168   23.0554 H   0  0  0  0  0  0  0  0  0  0  0  0
    8.5795   -6.7463   26.8138 H   0  0  0  0  0  0  0  0  0  0  0  0
    8.9965   -8.0064   25.6368 H   0  0  0  0  0  0  0  0  0  0  0  0
    8.8255   -1.4531   20.3835 H   0  0  0  0  0  0  0  0  0  0  0  0
    7.5533   -1.1948   21.6123 H   0  0  0  0  0  0  0  0  0  0  0  0
    8.9776   -4.7057   26.5317 H   0  0  0  0  0  0  0  0  0  0  0  0
  1  2  1  0  0  0  0
  1  3  2  0  0  0  0
  2  6  2  0  0  0  0
  3  7  1  0  0  0  0
  4  5  1  0  0  0  0
  4  8  2  0  0  0  0
  5  9  2  0  0  0  0
  6 14  1  0  0  0  0
  7 14  2  0  0  0  0
  8 15  1  0  0  0  0
  9 16  1  0  0  0  0
 10 12  2  0  0  0  0
 10 17  1  0  0  0  0
 11 13  1  0  0  0  0
 11 17  2  0  0  0  0
 12 18  1  0  0  0  0
 13 18  2  0  0  0  0
 14 22  1  0  0  0  0
 15 16  2  0  0  0  0
 15 25  1  0  0  0  0
 16 27  1  0  0  0  0
 17 28  1  0  0  0  0
 18 29  1  0  0  0  0
 19 23  1  0  0  0  0
 19 28  1  0  0  0  0
 19 30  2  0  0  0  0
 20 24  1  0  0  0  0
 20 29  1  0  0  0  0
 20 31  2  0  0  0  0
 21 23  1  0  0  0  0
 22 29  1  0  0  0  0
 24 27  1  0  0  0  0
 25 26  2  0  0  0  0
 26 27  1  0  0  0  0
  1 32  1  0  0  0  0
  2 33  1  0  0  0  0
  3 34  1  0  0  0  0
  4 35  1  0  0  0  0
  5 36  1  0  0  0  0
  6 37  1  0  0  0  0
  7 38  1  0  0  0  0
  8 39  1  0  0  0  0
  9 40  1  0  0  0  0
 10 41  1  0  0  0  0
 11 42  1  0  0  0  0
 12 43  1  0  0  0  0
 13 44  1  0  0  0  0
 21 45  1  0  0  0  0
 21 46  1  0  0  0  0
 21 47  1  0  0  0  0
 22 48  1  0  0  0  0
 22 49  1  0  0  0  0
 23 50  1  0  0  0  0
 23 51  1  0  0  0  0
 24 52  1  0  0  0  0
 24 53  1  0  0  0  0
 28 54  1  0  0  0  0
M  END
> <clash_score>
1.4986672183376766

> <docking_score>
-6.807344436645508

> <overlap_score>
0.9802290201187134

$$$$
BENZO_340_1
  -OEChem-08222022203D

 51 54  0     0  0  0  0  0  0999 V2000
    3.9160    2.0630   19.5520 C   0  0  0  0  0  0  0  0  0  0  0  0
    4.2750    1.7050   20.8490 C   0  0  0  0  0  0  0  0  0  0  0  0
    4.6890    1.6810   18.4640 C   0  0  0  0  0  0  0  0  0  0  0  0
    5.4210    0.9600   21.0930 C   0  0  0  0  0  0  0  0  0  0  0  0
    8.9960   -2.3380   25.5320 C   0  0  0  0  0  0  0  0  0  0  0  0
    9.6730   -3.4710   23.5300 C   0  0  0  0  0  0  0  0  0  0  0  0
    9.0720   -1.1280   24.8640 C   0  0  0  0  0  0  0  0  0  0  0  0
    9.7200   -2.2600   22.8630 C   0  0  0  0  0  0  0  0  0  0  0  0
   12.2111    0.2208   23.7905 C   0  0  0  0  0  0  0  0  0  0  0  0
   13.5412    0.5479   23.9363 C   0  0  0  0  0  0  0  0  0  0  0  0
   12.1057    2.5424   23.8305 C   0  0  0  0  0  0  0  0  0  0  0  0
   11.3794    1.3761   23.7290 C   0  0  0  0  0  0  0  0  0  0  0  0
    5.8300    0.9190   18.6970 C   0  0  0  0  0  0  0  0  0  0  0  0
    6.1790    0.5730   19.9990 C   0  0  0  0  0  0  0  0  0  0  0  0
    9.3070   -3.5340   24.8780 C   0  0  0  0  0  0  0  0  0  0  0  0
    9.3350   -1.0880   23.5010 C   0  0  0  0  0  0  0  0  0  0  0  0
    9.5334   -6.0236   25.0414 C   0  0  0  0  0  0  0  0  0  0  0  0
    9.0420    0.3700   21.5280 C   0  0  0  0  0  0  0  0  0  0  0  0
   10.6330   -7.3746   26.8775 C   0  0  0  0  0  0  0  0  0  0  0  0
    9.8870    1.3260   23.5730 C   0  0  0  0  0  0  0  0  0  0  0  0
    9.3522   -7.0865   26.1149 C   0  0  0  0  0  0  0  0  0  0  0  0
    8.1890   -0.7180   20.8700 C   0  0  0  0  0  0  0  0  0  0  0  0
    6.7580    0.3810   17.8350 N   0  0  0  0  0  0  0  0  0  0  0  0
    7.6390   -0.2680   18.5410 N   0  0  0  0  0  0  0  0  0  0  0  0
    7.3170   -0.1610   19.8550 N   0  0  0  0  0  0  0  0  0  0  0  0
    9.2546   -4.7422   25.5438 N   0  0  0  0  0  0  0  0  0  0  0  0
    9.4560    0.1560   22.8130 N   0  0  0  0  0  0  0  0  0  0  0  0
    9.8805   -6.3053   23.8992 O   0  0  0  0  0  0  0  0  0  0  0  0
    9.2690    1.4140   20.9380 O   0  0  0  0  0  0  0  0  0  0  0  0
   13.7831    2.2420   23.9988 S   0  0  0  0  0  0  0  0  0  0  0  0
    3.0136    2.6524   19.3909 H   0  0  0  0  0  0  0  0  0  0  0  0
    3.6477    2.0141   21.6817 H   0  0  0  0  0  0  0  0  0  0  0  0
    4.4041    1.9739   17.4524 H   0  0  0  0  0  0  0  0  0  0  0  0
    5.7107    0.6909   22.1141 H   0  0  0  0  0  0  0  0  0  0  0  0
    8.6895   -2.3529   26.5807 H   0  0  0  0  0  0  0  0  0  0  0  0
    9.9262   -4.3897   22.9916 H   0  0  0  0  0  0  0  0  0  0  0  0
    8.9224   -0.1998   25.4238 H   0  0  0  0  0  0  0  0  0  0  0  0
   10.0649   -2.2343   21.8258 H   0  0  0  0  0  0  0  0  0  0  0  0
   11.8558   -0.8003   23.7315 H   0  0  0  0  0  0  0  0  0  0  0  0
   14.3824   -0.1267   24.0100 H   0  0  0  0  0  0  0  0  0  0  0  0
   11.7354    3.5581   23.8155 H   0  0  0  0  0  0  0  0  0  0  0  0
   11.4241   -7.7171   26.2024 H   0  0  0  0  0  0  0  0  0  0  0  0
   10.4629   -8.1530   27.6277 H   0  0  0  0  0  0  0  0  0  0  0  0
   10.9949   -6.4779   27.3911 H   0  0  0  0  0  0  0  0  0  0  0  0
    9.3974    1.2912   24.5523 H   0  0  0  0  0  0  0  0  0  0  0  0
    9.5159    2.2168   23.0554 H   0  0  0  0  0  0  0  0  0  0  0  0
    8.5795   -6.7463   26.8138 H   0  0  0  0  0  0  0  0  0  0  0  0
    8.9965   -8.0064   25.6368 H   0  0  0  0  0  0  0  0  0  0  0  0
    8.8255   -1.4531   20.3835 H   0  0  0  0  0  0  0  0  0  0  0  0
    7.5533   -1.1948   21.6123 H   0  0  0  0  0  0  0  0  0  0  0  0
    8.9776   -4.7057   26.5317 H   0  0  0  0  0  0  0  0  0  0  0  0
  1  2  1  0  0  0  0
  1  3  2  0  0  0  0
  2  4  2  0  0  0  0
  3 13  1  0  0  0  0
  4 14  1  0  0  0  0
  5  7  2  0  0  0  0
  5 15  1  0  0  0  0
  6  8  1  0  0  0  0
  6 15  2  0  0  0  0
  7 16  1  0  0  0  0
  8 16  2  0  0  0  0
  9 10  2  0  0  0  0
  9 12  1  0  0  0  0
 10 30  1  0  0  0  0
 11 12  2  0  0  0  0
 11 30  1  0  0  0  0
 12 20  1  0  0  0  0
 13 14  2  0  0  0  0
 13 23  1  0  0  0  0
 14 25  1  0  0  0  0
 15 26  1  0  0  0  0
 16 27  1  0  0  0  0
 17 21  1  0  0  0  0
 17 26  1  0  0  0  0
 17 28  2  0  0  0  0
 18 22  1  0  0  0  0
 18 27  1  0  0  0  0
 18 29  2  0  0  0  0
 19 21  1  0  0  0  0
 20 27  1  0  0  0  0
 22 25  1  0  0  0  0
 23 24  2  0  0  0  0
 24 25  1  0  0  0  0
  1 31  1  0  0  0  0
  2 32  1  0  0  0  0
  3 33  1  0  0  0  0
  4 34  1  0  0  0  0
  5 35  1  0  0  0  0
  6 36  1  0  0  0  0
  7 37  1  0  0  0  0
  8 38  1  0  0  0  0
  9 39  1  0  0  0  0
 10 40  1  0  0  0  0
 11 41  1  0  0  0  0
 19 42  1  0  0  0  0
 19 43  1  0  0  0  0
 19 44  1  0  0  0  0
 20 45  1  0  0  0  0
 20 46  1  0  0  0  0
 21 47  1  0  0  0  0
 21 48  1  0  0  0  0
 22 49  1  0  0  0  0
 22 50  1  0  0  0  0
 26 51  1  0  0  0  0
M  END
> <clash_score>
1.4986672183376766

> <docking_score>
-6.080521583557129

> <overlap_score>
0.9652433395385742

$$$$
BENZO_345_1
  -OEChem-08222022203D

 59 63  0     0  0  0  0  0  0999 V2000
   14.1526    1.4694   24.0176 C   0  0  0  0  0  0  0  0  0  0  0  0
   13.3741    0.8121   24.9701 C   0  0  0  0  0  0  0  0  0  0  0  0
   13.5446    2.0802   22.9208 C   0  0  0  0  0  0  0  0  0  0  0  0
    3.9160    2.0630   19.5520 C   0  0  0  0  0  0  0  0  0  0  0  0
    4.2750    1.7050   20.8490 C   0  0  0  0  0  0  0  0  0  0  0  0
   11.9875    0.7654   24.8258 C   0  0  0  0  0  0  0  0  0  0  0  0
   12.1580    2.0335   22.7765 C   0  0  0  0  0  0  0  0  0  0  0  0
    4.6890    1.6810   18.4640 C   0  0  0  0  0  0  0  0  0  0  0  0
    5.4210    0.9600   21.0930 C   0  0  0  0  0  0  0  0  0  0  0  0
    8.9960   -2.3380   25.5320 C   0  0  0  0  0  0  0  0  0  0  0  0
    9.6730   -3.4710   23.5300 C   0  0  0  0  0  0  0  0  0  0  0  0
    9.0720   -1.1280   24.8640 C   0  0  0  0  0  0  0  0  0  0  0  0
    9.7200   -2.2600   22.8630 C   0  0  0  0  0  0  0  0  0  0  0  0
   11.3794    1.3761   23.7290 C   0  0  0  0  0  0  0  0  0  0  0  0
    5.8300    0.9190   18.6970 C   0  0  0  0  0  0  0  0  0  0  0  0
    6.1790    0.5730   19.9990 C   0  0  0  0  0  0  0  0  0  0  0  0
    9.3070   -3.5340   24.8780 C   0  0  0  0  0  0  0  0  0  0  0  0
    9.3350   -1.0880   23.5010 C   0  0  0  0  0  0  0  0  0  0  0  0
    9.0420    0.3700   21.5280 C   0  0  0  0  0  0  0  0  0  0  0  0
    7.3635   -6.1361   27.1888 C   0  0  0  0  0  0  0  0  0  0  0  0
    8.1961   -4.9735   27.7341 C   0  0  0  0  0  0  0  0  0  0  0  0
    7.1942   -6.0394   25.6709 C   0  0  0  0  0  0  0  0  0  0  0  0
    9.5196   -4.8490   26.9797 C   0  0  0  0  0  0  0  0  0  0  0  0
    8.5442   -5.8838   24.9639 C   0  0  0  0  0  0  0  0  0  0  0  0
    9.8870    1.3260   23.5730 C   0  0  0  0  0  0  0  0  0  0  0  0
    8.1890   -0.7180   20.8700 C   0  0  0  0  0  0  0  0  0  0  0  0
    6.7580    0.3810   17.8350 N   0  0  0  0  0  0  0  0  0  0  0  0
    7.6390   -0.2680   18.5410 N   0  0  0  0  0  0  0  0  0  0  0  0
    7.3170   -0.1610   19.8550 N   0  0  0  0  0  0  0  0  0  0  0  0
    9.2562   -4.7384   25.5422 N   0  0  0  0  0  0  0  0  0  0  0  0
    9.4560    0.1560   22.8130 N   0  0  0  0  0  0  0  0  0  0  0  0
    9.2690    1.4140   20.9380 O   0  0  0  0  0  0  0  0  0  0  0  0
   15.2322    1.5068   24.1308 H   0  0  0  0  0  0  0  0  0  0  0  0
   13.8473    0.3374   25.8248 H   0  0  0  0  0  0  0  0  0  0  0  0
   14.1503    2.5930   22.1795 H   0  0  0  0  0  0  0  0  0  0  0  0
    3.0136    2.6524   19.3909 H   0  0  0  0  0  0  0  0  0  0  0  0
    3.6477    2.0141   21.6817 H   0  0  0  0  0  0  0  0  0  0  0  0
   11.3889    0.2508   25.5729 H   0  0  0  0  0  0  0  0  0  0  0  0
   11.6930    2.5120   21.9187 H   0  0  0  0  0  0  0  0  0  0  0  0
    4.4042    1.9739   17.4524 H   0  0  0  0  0  0  0  0  0  0  0  0
    5.7107    0.6909   22.1141 H   0  0  0  0  0  0  0  0  0  0  0  0
    8.6905   -2.3533   26.5810 H   0  0  0  0  0  0  0  0  0  0  0  0
    9.9266   -4.3896   22.9917 H   0  0  0  0  0  0  0  0  0  0  0  0
    8.9233   -0.1992   25.4231 H   0  0  0  0  0  0  0  0  0  0  0  0
   10.0650   -2.2330   21.8256 H   0  0  0  0  0  0  0  0  0  0  0  0
    7.8482   -7.0901   27.4469 H   0  0  0  0  0  0  0  0  0  0  0  0
    6.3760   -6.1438   27.6724 H   0  0  0  0  0  0  0  0  0  0  0  0
    7.6307   -4.0424   27.6403 H   0  0  0  0  0  0  0  0  0  0  0  0
    8.3915   -5.1310   28.7968 H   0  0  0  0  0  0  0  0  0  0  0  0
    6.6888   -6.9376   25.3010 H   0  0  0  0  0  0  0  0  0  0  0  0
    6.5515   -5.1859   25.4257 H   0  0  0  0  0  0  0  0  0  0  0  0
   10.0492   -3.9640   27.3414 H   0  0  0  0  0  0  0  0  0  0  0  0
   10.1431   -5.7254   27.1778 H   0  0  0  0  0  0  0  0  0  0  0  0
    9.1338   -6.7931   25.0868 H   0  0  0  0  0  0  0  0  0  0  0  0
    8.3656   -5.7264   23.8998 H   0  0  0  0  0  0  0  0  0  0  0  0
    9.3974    1.2912   24.5523 H   0  0  0  0  0  0  0  0  0  0  0  0
    9.5159    2.2168   23.0554 H   0  0  0  0  0  0  0  0  0  0  0  0
    8.8326   -1.4554   20.3912 H   0  0  0  0  0  0  0  0  0  0  0  0
    7.5604   -1.1971   21.6201 H   0  0  0  0  0  0  0  0  0  0  0  0
  1  2  1  0  0  0  0
  1  3  2  0  0  0  0
  2  6  2  0  0  0  0
  3  7  1  0  0  0  0
  4  5  1  0  0  0  0
  4  8  2  0  0  0  0
  5  9  2  0  0  0  0
  6 14  1  0  0  0  0
  7 14  2  0  0  0  0
  8 15  1  0  0  0  0
  9 16  1  0  0  0  0
 10 12  2  0  0  0  0
 10 17  1  0  0  0  0
 11 13  1  0  0  0  0
 11 17  2  0  0  0  0
 12 18  1  0  0  0  0
 13 18  2  0  0  0  0
 14 25  1  0  0  0  0
 15 16  2  0  0  0  0
 15 27  1  0  0  0  0
 16 29  1  0  0  0  0
 17 30  1  0  0  0  0
 18 31  1  0  0  0  0
 19 26  1  0  0  0  0
 19 31  1  0  0  0  0
 19 32  2  0  0  0  0
 20 21  1  0  0  0  0
 20 22  1  0  0  0  0
 21 23  1  0  0  0  0
 22 24  1  0  0  0  0
 23 30  1  0  0  0  0
 24 30  1  0  0  0  0
 25 31  1  0  0  0  0
 26 29  1  0  0  0  0
 27 28  2  0  0  0  0
 28 29  1  0  0  0  0
  1 33  1  0  0  0  0
  2 34  1  0  0  0  0
  3 35  1  0  0  0  0
  4 36  1  0  0  0  0
  5 37  1  0  0  0  0
  6 38  1  0  0  0  0
  7 39  1  0  0  0  0
  8 40  1  0  0  0  0
  9 41  1  0  0  0  0
 10 42  1  0  0  0  0
 11 43  1  0  0  0  0
 12 44  1  0  0  0  0
 13 45  1  0  0  0  0
 20 46  1  0  0  0  0
 20 47  1  0  0  0  0
 21 48  1  0  0  0  0
 21 49  1  0  0  0  0
 22 50  1  0  0  0  0
 22 51  1  0  0  0  0
 23 52  1  0  0  0  0
 23 53  1  0  0  0  0
 24 54  1  0  0  0  0
 24 55  1  0  0  0  0
 25 56  1  0  0  0  0
 25 57  1  0  0  0  0
 26 58  1  0  0  0  0
 26 59  1  0  0  0  0
M  END
> <clash_score>
0

> <docking_score>
-9.097402572631836

> <overlap_score>
0.9931822419166565

$$$$
BENZO_344_1
  -OEChem-08222022203D

 56 60  0     0  0  0  0  0  0999 V2000
    3.9160    2.0630   19.5520 C   0  0  0  0  0  0  0  0  0  0  0  0
    4.2750    1.7050   20.8490 C   0  0  0  0  0  0  0  0  0  0  0  0
    4.6890    1.6810   18.4640 C   0  0  0  0  0  0  0  0  0  0  0  0
    5.4210    0.9600   21.0930 C   0  0  0  0  0  0  0  0  0  0  0  0
    8.9960   -2.3380   25.5320 C   0  0  0  0  0  0  0  0  0  0  0  0
    9.6730   -3.4710   23.5300 C   0  0  0  0  0  0  0  0  0  0  0  0
    9.0720   -1.1280   24.8640 C   0  0  0  0  0  0  0  0  0  0  0  0
    9.7200   -2.2600   22.8630 C   0  0  0  0  0  0  0  0  0  0  0  0
   12.2913    1.4279   22.6355 C   0  0  0  0  0  0  0  0  0  0  0  0
   13.6024    1.4662   23.0564 C   0  0  0  0  0  0  0  0  0  0  0  0
   12.0284    1.3764   24.9443 C   0  0  0  0  0  0  0  0  0  0  0  0
   11.3794    1.3761   23.7290 C   0  0  0  0  0  0  0  0  0  0  0  0
    5.8300    0.9190   18.6970 C   0  0  0  0  0  0  0  0  0  0  0  0
    6.1790    0.5730   19.9990 C   0  0  0  0  0  0  0  0  0  0  0  0
    9.3070   -3.5340   24.8780 C   0  0  0  0  0  0  0  0  0  0  0  0
    9.3350   -1.0880   23.5010 C   0  0  0  0  0  0  0  0  0  0  0  0
    9.0420    0.3700   21.5280 C   0  0  0  0  0  0  0  0  0  0  0  0
    7.2235   -6.6199   26.3009 C   0  0  0  0  0  0  0  0  0  0  0  0
    7.4293   -5.3101   27.0652 C   0  0  0  0  0  0  0  0  0  0  0  0
    7.7217   -6.5099   24.8580 C   0  0  0  0  0  0  0  0  0  0  0  0
    8.8782   -4.8357   26.9548 C   0  0  0  0  0  0  0  0  0  0  0  0
    9.1652   -6.0007   24.7995 C   0  0  0  0  0  0  0  0  0  0  0  0
    9.8870    1.3260   23.5730 C   0  0  0  0  0  0  0  0  0  0  0  0
    8.1890   -0.7180   20.8700 C   0  0  0  0  0  0  0  0  0  0  0  0
    6.7580    0.3810   17.8350 N   0  0  0  0  0  0  0  0  0  0  0  0
    7.6390   -0.2680   18.5410 N   0  0  0  0  0  0  0  0  0  0  0  0
    7.3170   -0.1610   19.8550 N   0  0  0  0  0  0  0  0  0  0  0  0
    9.2562   -4.7384   25.5422 N   0  0  0  0  0  0  0  0  0  0  0  0
    9.4560    0.1560   22.8130 N   0  0  0  0  0  0  0  0  0  0  0  0
    9.2690    1.4140   20.9380 O   0  0  0  0  0  0  0  0  0  0  0  0
   13.7301    1.4394   24.7638 S   0  0  0  0  0  0  0  0  0  0  0  0
    3.0136    2.6524   19.3909 H   0  0  0  0  0  0  0  0  0  0  0  0
    3.6477    2.0141   21.6817 H   0  0  0  0  0  0  0  0  0  0  0  0
    4.4042    1.9739   17.4524 H   0  0  0  0  0  0  0  0  0  0  0  0
    5.7107    0.6909   22.1141 H   0  0  0  0  0  0  0  0  0  0  0  0
    8.6905   -2.3533   26.5810 H   0  0  0  0  0  0  0  0  0  0  0  0
    9.9266   -4.3896   22.9917 H   0  0  0  0  0  0  0  0  0  0  0  0
    8.9233   -0.1992   25.4231 H   0  0  0  0  0  0  0  0  0  0  0  0
   10.0650   -2.2330   21.8256 H   0  0  0  0  0  0  0  0  0  0  0  0
   12.0045    1.4365   21.5915 H   0  0  0  0  0  0  0  0  0  0  0  0
   14.4914    1.5078   22.4431 H   0  0  0  0  0  0  0  0  0  0  0  0
   11.5886    1.3416   25.9314 H   0  0  0  0  0  0  0  0  0  0  0  0
    7.7559   -7.4347   26.8149 H   0  0  0  0  0  0  0  0  0  0  0  0
    6.1572   -6.8883   26.3055 H   0  0  0  0  0  0  0  0  0  0  0  0
    6.7602   -4.5435   26.6651 H   0  0  0  0  0  0  0  0  0  0  0  0
    7.1684   -5.4551   28.1155 H   0  0  0  0  0  0  0  0  0  0  0  0
    7.6595   -7.4899   24.3736 H   0  0  0  0  0  0  0  0  0  0  0  0
    7.0706   -5.8317   24.2943 H   0  0  0  0  0  0  0  0  0  0  0  0
    8.9681   -3.8621   27.4435 H   0  0  0  0  0  0  0  0  0  0  0  0
    9.5387   -5.5390   27.4697 H   0  0  0  0  0  0  0  0  0  0  0  0
    9.8374   -6.7413   25.2344 H   0  0  0  0  0  0  0  0  0  0  0  0
    9.4414   -5.8515   23.7552 H   0  0  0  0  0  0  0  0  0  0  0  0
    9.3974    1.2912   24.5523 H   0  0  0  0  0  0  0  0  0  0  0  0
    9.5159    2.2168   23.0554 H   0  0  0  0  0  0  0  0  0  0  0  0
    8.8326   -1.4554   20.3912 H   0  0  0  0  0  0  0  0  0  0  0  0
    7.5604   -1.1971   21.6201 H   0  0  0  0  0  0  0  0  0  0  0  0
  1  2  1  0  0  0  0
  1  3  2  0  0  0  0
  2  4  2  0  0  0  0
  3 13  1  0  0  0  0
  4 14  1  0  0  0  0
  5  7  2  0  0  0  0
  5 15  1  0  0  0  0
  6  8  1  0  0  0  0
  6 15  2  0  0  0  0
  7 16  1  0  0  0  0
  8 16  2  0  0  0  0
  9 10  2  0  0  0  0
  9 12  1  0  0  0  0
 10 31  1  0  0  0  0
 11 12  2  0  0  0  0
 11 31  1  0  0  0  0
 12 23  1  0  0  0  0
 13 14  2  0  0  0  0
 13 25  1  0  0  0  0
 14 27  1  0  0  0  0
 15 28  1  0  0  0  0
 16 29  1  0  0  0  0
 17 24  1  0  0  0  0
 17 29  1  0  0  0  0
 17 30  2  0  0  0  0
 18 19  1  0  0  0  0
 18 20  1  0  0  0  0
 19 21  1  0  0  0  0
 20 22  1  0  0  0  0
 21 28  1  0  0  0  0
 22 28  1  0  0  0  0
 23 29  1  0  0  0  0
 24 27  1  0  0  0  0
 25 26  2  0  0  0  0
 26 27  1  0  0  0  0
  1 32  1  0  0  0  0
  2 33  1  0  0  0  0
  3 34  1  0  0  0  0
  4 35  1  0  0  0  0
  5 36  1  0  0  0  0
  6 37  1  0  0  0  0
  7 38  1  0  0  0  0
  8 39  1  0  0  0  0
  9 40  1  0  0  0  0
 10 41  1  0  0  0  0
 11 42  1  0  0  0  0
 18 43  1  0  0  0  0
 18 44  1  0  0  0  0
 19 45  1  0  0  0  0
 19 46  1  0  0  0  0
 20 47  1  0  0  0  0
 20 48  1  0  0  0  0
 21 49  1  0  0  0  0
 21 50  1  0  0  0  0
 22 51  1  0  0  0  0
 22 52  1  0  0  0  0
 23 53  1  0  0  0  0
 23 54  1  0  0  0  0
 24 55  1  0  0  0  0
 24 56  1  0  0  0  0
M  END
> <clash_score>
0

> <docking_score>
-8.999874114990234

> <overlap_score>
0.9782362580299377

$$$$
BENZO_342_1
  -OEChem-08222022203D

 54 57  0     0  0  0  0  0  0999 V2000
    3.9160    2.0630   19.5520 C   0  0  0  0  0  0  0  0  0  0  0  0
    4.2750    1.7050   20.8490 C   0  0  0  0  0  0  0  0  0  0  0  0
   13.4006    0.5725   24.7805 C   0  0  0  0  0  0  0  0  0  0  0  0
   12.0141    0.5273   24.6359 C   0  0  0  0  0  0  0  0  0  0  0  0
    4.6890    1.6810   18.4640 C   0  0  0  0  0  0  0  0  0  0  0  0
    5.4210    0.9600   21.0930 C   0  0  0  0  0  0  0  0  0  0  0  0
    8.9960   -2.3380   25.5320 C   0  0  0  0  0  0  0  0  0  0  0  0
    9.6730   -3.4710   23.5300 C   0  0  0  0  0  0  0  0  0  0  0  0
    9.0720   -1.1280   24.8640 C   0  0  0  0  0  0  0  0  0  0  0  0
    9.7200   -2.2600   22.8630 C   0  0  0  0  0  0  0  0  0  0  0  0
   14.1526    1.4666   24.0184 C   0  0  0  0  0  0  0  0  0  0  0  0
   12.1314    2.2702   22.9668 C   0  0  0  0  0  0  0  0  0  0  0  0
   11.3794    1.3761   23.7290 C   0  0  0  0  0  0  0  0  0  0  0  0
    5.8300    0.9190   18.6970 C   0  0  0  0  0  0  0  0  0  0  0  0
    6.1790    0.5730   19.9990 C   0  0  0  0  0  0  0  0  0  0  0  0
    9.3070   -3.5340   24.8780 C   0  0  0  0  0  0  0  0  0  0  0  0
    9.3350   -1.0880   23.5010 C   0  0  0  0  0  0  0  0  0  0  0  0
   13.5180    2.3154   23.1115 C   0  0  0  0  0  0  0  0  0  0  0  0
    9.5334   -6.0236   25.0414 C   0  0  0  0  0  0  0  0  0  0  0  0
    9.0420    0.3700   21.5280 C   0  0  0  0  0  0  0  0  0  0  0  0
   10.6330   -7.3746   26.8775 C   0  0  0  0  0  0  0  0  0  0  0  0
    9.8870    1.3260   23.5730 C   0  0  0  0  0  0  0  0  0  0  0  0
    9.3522   -7.0865   26.1149 C   0  0  0  0  0  0  0  0  0  0  0  0
    8.1890   -0.7180   20.8700 C   0  0  0  0  0  0  0  0  0  0  0  0
    6.7580    0.3810   17.8350 N   0  0  0  0  0  0  0  0  0  0  0  0
    7.6390   -0.2680   18.5410 N   0  0  0  0  0  0  0  0  0  0  0  0
    7.3170   -0.1610   19.8550 N   0  0  0  0  0  0  0  0  0  0  0  0
    9.2546   -4.7422   25.5438 N   0  0  0  0  0  0  0  0  0  0  0  0
    9.4560    0.1560   22.8130 N   0  0  0  0  0  0  0  0  0  0  0  0
    9.8805   -6.3053   23.8992 O   0  0  0  0  0  0  0  0  0  0  0  0
    9.2690    1.4140   20.9380 O   0  0  0  0  0  0  0  0  0  0  0  0
   14.4463    3.4175   22.1707 Cl  0  0  0  0  0  0  0  0  0  0  0  0
    3.0136    2.6524   19.3909 H   0  0  0  0  0  0  0  0  0  0  0  0
    3.6477    2.0141   21.6817 H   0  0  0  0  0  0  0  0  0  0  0  0
   13.8945   -0.0888   25.4867 H   0  0  0  0  0  0  0  0  0  0  0  0
   11.4361   -0.1726   25.2338 H   0  0  0  0  0  0  0  0  0  0  0  0
    4.4041    1.9739   17.4524 H   0  0  0  0  0  0  0  0  0  0  0  0
    5.7107    0.6909   22.1141 H   0  0  0  0  0  0  0  0  0  0  0  0
    8.6895   -2.3529   26.5807 H   0  0  0  0  0  0  0  0  0  0  0  0
    9.9262   -4.3897   22.9916 H   0  0  0  0  0  0  0  0  0  0  0  0
    8.9224   -0.1998   25.4238 H   0  0  0  0  0  0  0  0  0  0  0  0
   10.0649   -2.2343   21.8258 H   0  0  0  0  0  0  0  0  0  0  0  0
   15.2326    1.4907   24.1414 H   0  0  0  0  0  0  0  0  0  0  0  0
   11.6318    2.9303   22.2615 H   0  0  0  0  0  0  0  0  0  0  0  0
   11.4241   -7.7171   26.2024 H   0  0  0  0  0  0  0  0  0  0  0  0
   10.4629   -8.1530   27.6277 H   0  0  0  0  0  0  0  0  0  0  0  0
   10.9949   -6.4779   27.3911 H   0  0  0  0  0  0  0  0  0  0  0  0
    9.3974    1.2912   24.5523 H   0  0  0  0  0  0  0  0  0  0  0  0
    9.5159    2.2168   23.0554 H   0  0  0  0  0  0  0  0  0  0  0  0
    8.5795   -6.7463   26.8138 H   0  0  0  0  0  0  0  0  0  0  0  0
    8.9965   -8.0064   25.6368 H   0  0  0  0  0  0  0  0  0  0  0  0
    8.8255   -1.4531   20.3835 H   0  0  0  0  0  0  0  0  0  0  0  0
    7.5533   -1.1948   21.6123 H   0  0  0  0  0  0  0  0  0  0  0  0
    8.9776   -4.7057   26.5317 H   0  0  0  0  0  0  0  0  0  0  0  0
  1  2  1  0  0  0  0
  1  5  2  0  0  0  0
  2  6  2  0  0  0  0
  3  4  2  0  0  0  0
  3 11  1  0  0  0  0
  4 13  1  0  0  0  0
  5 14  1  0  0  0  0
  6 15  1  0  0  0  0
  7  9  2  0  0  0  0
  7 16  1  0  0  0  0
  8 10  1  0  0  0  0
  8 16  2  0  0  0  0
  9 17  1  0  0  0  0
 10 17  2  0  0  0  0
 11 18  2  0  0  0  0
 12 13  2  0  0  0  0
 12 18  1  0  0  0  0
 13 22  1  0  0  0  0
 14 15  2  0  0  0  0
 14 25  1  0  0  0  0
 15 27  1  0  0  0  0
 16 28  1  0  0  0  0
 17 29  1  0  0  0  0
 18 32  1  0  0  0  0
 19 23  1  0  0  0  0
 19 28  1  0  0  0  0
 19 30  2  0  0  0  0
 20 24  1  0  0  0  0
 20 29  1  0  0  0  0
 20 31  2  0  0  0  0
 21 23  1  0  0  0  0
 22 29  1  0  0  0  0
 24 27  1  0  0  0  0
 25 26  2  0  0  0  0
 26 27  1  0  0  0  0
  1 33  1  0  0  0  0
  2 34  1  0  0  0  0
  3 35  1  0  0  0  0
  4 36  1  0  0  0  0
  5 37  1  0  0  0  0
  6 38  1  0  0  0  0
  7 39  1  0  0  0  0
  8 40  1  0  0  0  0
  9 41  1  0  0  0  0
 10 42  1  0  0  0  0
 11 43  1  0  0  0  0
 12 44  1  0  0  0  0
 21 45  1  0  0  0  0
 21 46  1  0  0  0  0
 21 47  1  0  0  0  0
 22 48  1  0  0  0  0
 22 49  1  0  0  0  0
 23 50  1  0  0  0  0
 23 51  1  0  0  0  0
 24 52  1  0  0  0  0
 24 53  1  0  0  0  0
 28 54  1  0  0  0  0
M  END
> <clash_score>
1.4986672183376766

> <docking_score>
-5.94432258605957

> <overlap_score>
0.9913628101348877

$$$$
BENZO_343_1
  -OEChem-08222022203D

 54 57  0     0  0  0  0  0  0999 V2000
    3.9160    2.0630   19.5520 C   0  0  0  0  0  0  0  0  0  0  0  0
    4.2750    1.7050   20.8490 C   0  0  0  0  0  0  0  0  0  0  0  0
    4.6890    1.6810   18.4640 C   0  0  0  0  0  0  0  0  0  0  0  0
    5.4210    0.9600   21.0930 C   0  0  0  0  0  0  0  0  0  0  0  0
    8.9960   -2.3380   25.5320 C   0  0  0  0  0  0  0  0  0  0  0  0
    9.6730   -3.4710   23.5300 C   0  0  0  0  0  0  0  0  0  0  0  0
    9.0720   -1.1280   24.8640 C   0  0  0  0  0  0  0  0  0  0  0  0
    9.7200   -2.2600   22.8630 C   0  0  0  0  0  0  0  0  0  0  0  0
   12.2914    2.2071   23.0512 C   0  0  0  0  0  0  0  0  0  0  0  0
   12.1614    0.6214   24.5689 C   0  0  0  0  0  0  0  0  0  0  0  0
   11.3794    1.3761   23.7290 C   0  0  0  0  0  0  0  0  0  0  0  0
    5.8300    0.9190   18.6970 C   0  0  0  0  0  0  0  0  0  0  0  0
    6.1790    0.5730   19.9990 C   0  0  0  0  0  0  0  0  0  0  0  0
    9.3070   -3.5340   24.8780 C   0  0  0  0  0  0  0  0  0  0  0  0
    9.3350   -1.0880   23.5010 C   0  0  0  0  0  0  0  0  0  0  0  0
    9.5334   -6.0236   25.0414 C   0  0  0  0  0  0  0  0  0  0  0  0
    9.0420    0.3700   21.5280 C   0  0  0  0  0  0  0  0  0  0  0  0
   10.6330   -7.3746   26.8775 C   0  0  0  0  0  0  0  0  0  0  0  0
   14.6267    0.5248   25.0067 C   0  0  0  0  0  0  0  0  0  0  0  0
    9.8870    1.3260   23.5730 C   0  0  0  0  0  0  0  0  0  0  0  0
    9.3522   -7.0865   26.1149 C   0  0  0  0  0  0  0  0  0  0  0  0
    8.1890   -0.7180   20.8700 C   0  0  0  0  0  0  0  0  0  0  0  0
   13.5560    2.0002   23.4280 N   0  0  0  0  0  0  0  0  0  0  0  0
    6.7580    0.3810   17.8350 N   0  0  0  0  0  0  0  0  0  0  0  0
    7.6390   -0.2680   18.5410 N   0  0  0  0  0  0  0  0  0  0  0  0
   13.4442    1.0306   24.3518 N   0  0  0  0  0  0  0  0  0  0  0  0
    7.3170   -0.1610   19.8550 N   0  0  0  0  0  0  0  0  0  0  0  0
    9.2546   -4.7422   25.5438 N   0  0  0  0  0  0  0  0  0  0  0  0
    9.4560    0.1560   22.8130 N   0  0  0  0  0  0  0  0  0  0  0  0
    9.8805   -6.3053   23.8992 O   0  0  0  0  0  0  0  0  0  0  0  0
    9.2690    1.4140   20.9380 O   0  0  0  0  0  0  0  0  0  0  0  0
    3.0136    2.6524   19.3909 H   0  0  0  0  0  0  0  0  0  0  0  0
    3.6477    2.0141   21.6817 H   0  0  0  0  0  0  0  0  0  0  0  0
    4.4041    1.9739   17.4524 H   0  0  0  0  0  0  0  0  0  0  0  0
    5.7107    0.6909   22.1141 H   0  0  0  0  0  0  0  0  0  0  0  0
    8.6895   -2.3529   26.5807 H   0  0  0  0  0  0  0  0  0  0  0  0
    9.9262   -4.3897   22.9916 H   0  0  0  0  0  0  0  0  0  0  0  0
    8.9224   -0.1998   25.4238 H   0  0  0  0  0  0  0  0  0  0  0  0
   10.0649   -2.2343   21.8258 H   0  0  0  0  0  0  0  0  0  0  0  0
   12.0895    2.9562   22.2987 H   0  0  0  0  0  0  0  0  0  0  0  0
   11.9202   -0.1518   25.2857 H   0  0  0  0  0  0  0  0  0  0  0  0
   11.4241   -7.7171   26.2024 H   0  0  0  0  0  0  0  0  0  0  0  0
   10.4629   -8.1530   27.6277 H   0  0  0  0  0  0  0  0  0  0  0  0
   10.9949   -6.4779   27.3911 H   0  0  0  0  0  0  0  0  0  0  0  0
   15.0068   -0.3132   24.4165 H   0  0  0  0  0  0  0  0  0  0  0  0
   15.3758    1.3189   25.0698 H   0  0  0  0  0  0  0  0  0  0  0  0
   14.3676    0.1958   26.0170 H   0  0  0  0  0  0  0  0  0  0  0  0
    9.3974    1.2912   24.5523 H   0  0  0  0  0  0  0  0  0  0  0  0
    9.5159    2.2168   23.0554 H   0  0  0  0  0  0  0  0  0  0  0  0
    8.5795   -6.7463   26.8138 H   0  0  0  0  0  0  0  0  0  0  0  0
    8.9965   -8.0064   25.6368 H   0  0  0  0  0  0  0  0  0  0  0  0
    8.8255   -1.4531   20.3835 H   0  0  0  0  0  0  0  0  0  0  0  0
    7.5533   -1.1948   21.6123 H   0  0  0  0  0  0  0  0  0  0  0  0
    8.9776   -4.7057   26.5317 H   0  0  0  0  0  0  0  0  0  0  0  0
  1  2  1  0  0  0  0
  1  3  2  0  0  0  0
  2  4  2  0  0  0  0
  3 12  1  0  0  0  0
  4 13  1  0  0  0  0
  5  7  2  0  0  0  0
  5 14  1  0  0  0  0
  6  8  1  0  0  0  0
  6 14  2  0  0  0  0
  7 15  1  0  0  0  0
  8 15  2  0  0  0  0
  9 11  1  0  0  0  0
  9 23  2  0  0  0  0
 10 11  2  0  0  0  0
 10 26  1  0  0  0  0
 11 20  1  0  0  0  0
 12 13  2  0  0  0  0
 12 24  1  0  0  0  0
 13 27  1  0  0  0  0
 14 28  1  0  0  0  0
 15 29  1  0  0  0  0
 16 21  1  0  0  0  0
 16 28  1  0  0  0  0
 16 30  2  0  0  0  0
 17 22  1  0  0  0  0
 17 29  1  0  0  0  0
 17 31  2  0  0  0  0
 18 21  1  0  0  0  0
 19 26  1  0  0  0  0
 20 29  1  0  0  0  0
 22 27  1  0  0  0  0
 23 26  1  0  0  0  0
 24 25  2  0  0  0  0
 25 27  1  0  0  0  0
  1 32  1  0  0  0  0
  2 33  1  0  0  0  0
  3 34  1  0  0  0  0
  4 35  1  0  0  0  0
  5 36  1  0  0  0  0
  6 37  1  0  0  0  0
  7 38  1  0  0  0  0
  8 39  1  0  0  0  0
  9 40  1  0  0  0  0
 10 41  1  0  0  0  0
 18 42  1  0  0  0  0
 18 43  1  0  0  0  0
 18 44  1  0  0  0  0
 19 45  1  0  0  0  0
 19 46  1  0  0  0  0
 19 47  1  0  0  0  0
 20 48  1  0  0  0  0
 20 49  1  0  0  0  0
 21 50  1  0  0  0  0
 21 51  1  0  0  0  0
 22 52  1  0  0  0  0
 22 53  1  0  0  0  0
 28 54  1  0  0  0  0
M  END
> <clash_score>
2.1186078430475384

> <docking_score>
-6.515360355377197

> <overlap_score>
0.9790107011795044

$$$$
BENZO_347_1
  -OEChem-08222022203D

 59 63  0     0  0  0  0  0  0999 V2000
    3.9160    2.0630   19.5520 C   0  0  0  0  0  0  0  0  0  0  0  0
    4.2750    1.7050   20.8490 C   0  0  0  0  0  0  0  0  0  0  0  0
    4.6890    1.6810   18.4640 C   0  0  0  0  0  0  0  0  0  0  0  0
    5.4210    0.9600   21.0930 C   0  0  0  0  0  0  0  0  0  0  0  0
    8.9960   -2.3380   25.5320 C   0  0  0  0  0  0  0  0  0  0  0  0
    9.6730   -3.4710   23.5300 C   0  0  0  0  0  0  0  0  0  0  0  0
    9.0720   -1.1280   24.8640 C   0  0  0  0  0  0  0  0  0  0  0  0
    9.7200   -2.2600   22.8630 C   0  0  0  0  0  0  0  0  0  0  0  0
   12.1233    1.3811   24.9242 C   0  0  0  0  0  0  0  0  0  0  0  0
   12.3261    1.4247   22.7351 C   0  0  0  0  0  0  0  0  0  0  0  0
   11.3794    1.3761   23.7290 C   0  0  0  0  0  0  0  0  0  0  0  0
    5.8300    0.9190   18.6970 C   0  0  0  0  0  0  0  0  0  0  0  0
    6.1790    0.5730   19.9990 C   0  0  0  0  0  0  0  0  0  0  0  0
    9.3070   -3.5340   24.8780 C   0  0  0  0  0  0  0  0  0  0  0  0
    9.3350   -1.0880   23.5010 C   0  0  0  0  0  0  0  0  0  0  0  0
    9.0420    0.3700   21.5280 C   0  0  0  0  0  0  0  0  0  0  0  0
    7.3635   -6.1361   27.1888 C   0  0  0  0  0  0  0  0  0  0  0  0
    8.1961   -4.9735   27.7341 C   0  0  0  0  0  0  0  0  0  0  0  0
    7.1942   -6.0394   25.6709 C   0  0  0  0  0  0  0  0  0  0  0  0
    9.5196   -4.8490   26.9797 C   0  0  0  0  0  0  0  0  0  0  0  0
    8.5442   -5.8838   24.9639 C   0  0  0  0  0  0  0  0  0  0  0  0
   14.8305    1.5084   22.7418 C   0  0  0  0  0  0  0  0  0  0  0  0
    9.8870    1.3260   23.5730 C   0  0  0  0  0  0  0  0  0  0  0  0
    8.1890   -0.7180   20.8700 C   0  0  0  0  0  0  0  0  0  0  0  0
   13.4410    1.4289   24.7112 N   0  0  0  0  0  0  0  0  0  0  0  0
    6.7580    0.3810   17.8350 N   0  0  0  0  0  0  0  0  0  0  0  0
    7.6390   -0.2680   18.5410 N   0  0  0  0  0  0  0  0  0  0  0  0
   13.5326    1.4543   23.3706 N   0  0  0  0  0  0  0  0  0  0  0  0
    7.3170   -0.1610   19.8550 N   0  0  0  0  0  0  0  0  0  0  0  0
    9.2562   -4.7384   25.5422 N   0  0  0  0  0  0  0  0  0  0  0  0
    9.4560    0.1560   22.8130 N   0  0  0  0  0  0  0  0  0  0  0  0
    9.2690    1.4140   20.9380 O   0  0  0  0  0  0  0  0  0  0  0  0
    3.0136    2.6524   19.3909 H   0  0  0  0  0  0  0  0  0  0  0  0
    3.6477    2.0141   21.6817 H   0  0  0  0  0  0  0  0  0  0  0  0
    4.4042    1.9739   17.4524 H   0  0  0  0  0  0  0  0  0  0  0  0
    5.7107    0.6909   22.1141 H   0  0  0  0  0  0  0  0  0  0  0  0
    8.6905   -2.3533   26.5810 H   0  0  0  0  0  0  0  0  0  0  0  0
    9.9266   -4.3896   22.9917 H   0  0  0  0  0  0  0  0  0  0  0  0
    8.9233   -0.1992   25.4231 H   0  0  0  0  0  0  0  0  0  0  0  0
   10.0650   -2.2330   21.8256 H   0  0  0  0  0  0  0  0  0  0  0  0
   11.7624    1.3510   25.9426 H   0  0  0  0  0  0  0  0  0  0  0  0
   12.2462    1.4390   21.6566 H   0  0  0  0  0  0  0  0  0  0  0  0
    7.8482   -7.0901   27.4469 H   0  0  0  0  0  0  0  0  0  0  0  0
    6.3760   -6.1438   27.6724 H   0  0  0  0  0  0  0  0  0  0  0  0
    7.6307   -4.0424   27.6403 H   0  0  0  0  0  0  0  0  0  0  0  0
    8.3915   -5.1310   28.7968 H   0  0  0  0  0  0  0  0  0  0  0  0
    6.6888   -6.9376   25.3010 H   0  0  0  0  0  0  0  0  0  0  0  0
    6.5515   -5.1859   25.4257 H   0  0  0  0  0  0  0  0  0  0  0  0
   10.0492   -3.9640   27.3414 H   0  0  0  0  0  0  0  0  0  0  0  0
   10.1431   -5.7254   27.1778 H   0  0  0  0  0  0  0  0  0  0  0  0
    9.1338   -6.7931   25.0868 H   0  0  0  0  0  0  0  0  0  0  0  0
    8.3656   -5.7264   23.8998 H   0  0  0  0  0  0  0  0  0  0  0  0
   15.0990    2.5601   22.6124 H   0  0  0  0  0  0  0  0  0  0  0  0
   15.5636    1.0018   23.3756 H   0  0  0  0  0  0  0  0  0  0  0  0
   14.7841    1.0025   21.7733 H   0  0  0  0  0  0  0  0  0  0  0  0
    9.3974    1.2912   24.5523 H   0  0  0  0  0  0  0  0  0  0  0  0
    9.5159    2.2168   23.0554 H   0  0  0  0  0  0  0  0  0  0  0  0
    8.8326   -1.4554   20.3912 H   0  0  0  0  0  0  0  0  0  0  0  0
    7.5604   -1.1971   21.6201 H   0  0  0  0  0  0  0  0  0  0  0  0
  1  2  1  0  0  0  0
  1  3  2  0  0  0  0
  2  4  2  0  0  0  0
  3 12  1  0  0  0  0
  4 13  1  0  0  0  0
  5  7  2  0  0  0  0
  5 14  1  0  0  0  0
  6  8  1  0  0  0  0
  6 14  2  0  0  0  0
  7 15  1  0  0  0  0
  8 15  2  0  0  0  0
  9 11  1  0  0  0  0
  9 25  2  0  0  0  0
 10 11  2  0  0  0  0
 10 28  1  0  0  0  0
 11 23  1  0  0  0  0
 12 13  2  0  0  0  0
 12 26  1  0  0  0  0
 13 29  1  0  0  0  0
 14 30  1  0  0  0  0
 15 31  1  0  0  0  0
 16 24  1  0  0  0  0
 16 31  1  0  0  0  0
 16 32  2  0  0  0  0
 17 18  1  0  0  0  0
 17 19  1  0  0  0  0
 18 20  1  0  0  0  0
 19 21  1  0  0  0  0
 20 30  1  0  0  0  0
 21 30  1  0  0  0  0
 22 28  1  0  0  0  0
 23 31  1  0  0  0  0
 24 29  1  0  0  0  0
 25 28  1  0  0  0  0
 26 27  2  0  0  0  0
 27 29  1  0  0  0  0
  1 33  1  0  0  0  0
  2 34  1  0  0  0  0
  3 35  1  0  0  0  0
  4 36  1  0  0  0  0
  5 37  1  0  0  0  0
  6 38  1  0  0  0  0
  7 39  1  0  0  0  0
  8 40  1  0  0  0  0
  9 41  1  0  0  0  0
 10 42  1  0  0  0  0
 17 43  1  0  0  0  0
 17 44  1  0  0  0  0
 18 45  1  0  0  0  0
 18 46  1  0  0  0  0
 19 47  1  0  0  0  0
 19 48  1  0  0  0  0
 20 49  1  0  0  0  0
 20 50  1  0  0  0  0
 21 51  1  0  0  0  0
 21 52  1  0  0  0  0
 22 53  1  0  0  0  0
 22 54  1  0  0  0  0
 22 55  1  0  0  0  0
 23 56  1  0  0  0  0
 23 57  1  0  0  0  0
 24 58  1  0  0  0  0
 24 59  1  0  0  0  0
M  END
> <clash_score>
0

> <docking_score>
-8.813533782958984

> <overlap_score>
0.9881091713905334

$$$$
BENZO_346_1
  -OEChem-08222022203D

 59 63  0     0  0  0  0  0  0999 V2000
    3.9160    2.0630   19.5520 C   0  0  0  0  0  0  0  0  0  0  0  0
    4.2750    1.7050   20.8490 C   0  0  0  0  0  0  0  0  0  0  0  0
   13.4007    0.5725   24.7805 C   0  0  0  0  0  0  0  0  0  0  0  0
   12.0141    0.5273   24.6359 C   0  0  0  0  0  0  0  0  0  0  0  0
    4.6890    1.6810   18.4640 C   0  0  0  0  0  0  0  0  0  0  0  0
    5.4210    0.9600   21.0930 C   0  0  0  0  0  0  0  0  0  0  0  0
    8.9960   -2.3380   25.5320 C   0  0  0  0  0  0  0  0  0  0  0  0
    9.6730   -3.4710   23.5300 C   0  0  0  0  0  0  0  0  0  0  0  0
    9.0720   -1.1280   24.8640 C   0  0  0  0  0  0  0  0  0  0  0  0
    9.7200   -2.2600   22.8630 C   0  0  0  0  0  0  0  0  0  0  0  0
   14.1526    1.4666   24.0184 C   0  0  0  0  0  0  0  0  0  0  0  0
   12.1314    2.2702   22.9668 C   0  0  0  0  0  0  0  0  0  0  0  0
   11.3794    1.3761   23.7290 C   0  0  0  0  0  0  0  0  0  0  0  0
    5.8300    0.9190   18.6970 C   0  0  0  0  0  0  0  0  0  0  0  0
    6.1790    0.5730   19.9990 C   0  0  0  0  0  0  0  0  0  0  0  0
    9.3070   -3.5340   24.8780 C   0  0  0  0  0  0  0  0  0  0  0  0
    9.3350   -1.0880   23.5010 C   0  0  0  0  0  0  0  0  0  0  0  0
   13.5180    2.3154   23.1115 C   0  0  0  0  0  0  0  0  0  0  0  0
    9.0420    0.3700   21.5280 C   0  0  0  0  0  0  0  0  0  0  0  0
    7.3635   -6.1361   27.1888 C   0  0  0  0  0  0  0  0  0  0  0  0
    8.1961   -4.9735   27.7341 C   0  0  0  0  0  0  0  0  0  0  0  0
    7.1942   -6.0394   25.6709 C   0  0  0  0  0  0  0  0  0  0  0  0
    9.5196   -4.8490   26.9797 C   0  0  0  0  0  0  0  0  0  0  0  0
    8.5442   -5.8838   24.9639 C   0  0  0  0  0  0  0  0  0  0  0  0
    9.8870    1.3260   23.5730 C   0  0  0  0  0  0  0  0  0  0  0  0
    8.1890   -0.7180   20.8700 C   0  0  0  0  0  0  0  0  0  0  0  0
    6.7580    0.3810   17.8350 N   0  0  0  0  0  0  0  0  0  0  0  0
    7.6390   -0.2680   18.5410 N   0  0  0  0  0  0  0  0  0  0  0  0
    7.3170   -0.1610   19.8550 N   0  0  0  0  0  0  0  0  0  0  0  0
    9.2562   -4.7384   25.5422 N   0  0  0  0  0  0  0  0  0  0  0  0
    9.4560    0.1560   22.8130 N   0  0  0  0  0  0  0  0  0  0  0  0
    9.2690    1.4140   20.9380 O   0  0  0  0  0  0  0  0  0  0  0  0
   14.4463    3.4175   22.1707 Cl  0  0  0  0  0  0  0  0  0  0  0  0
    3.0136    2.6524   19.3909 H   0  0  0  0  0  0  0  0  0  0  0  0
    3.6477    2.0141   21.6817 H   0  0  0  0  0  0  0  0  0  0  0  0
   13.8945   -0.0888   25.4867 H   0  0  0  0  0  0  0  0  0  0  0  0
   11.4361   -0.1726   25.2338 H   0  0  0  0  0  0  0  0  0  0  0  0
    4.4042    1.9739   17.4524 H   0  0  0  0  0  0  0  0  0  0  0  0
    5.7107    0.6909   22.1141 H   0  0  0  0  0  0  0  0  0  0  0  0
    8.6905   -2.3533   26.5810 H   0  0  0  0  0  0  0  0  0  0  0  0
    9.9266   -4.3896   22.9917 H   0  0  0  0  0  0  0  0  0  0  0  0
    8.9233   -0.1992   25.4231 H   0  0  0  0  0  0  0  0  0  0  0  0
   10.0650   -2.2330   21.8256 H   0  0  0  0  0  0  0  0  0  0  0  0
   15.2326    1.4907   24.1414 H   0  0  0  0  0  0  0  0  0  0  0  0
   11.6317    2.9303   22.2615 H   0  0  0  0  0  0  0  0  0  0  0  0
    7.8482   -7.0901   27.4469 H   0  0  0  0  0  0  0  0  0  0  0  0
    6.3760   -6.1438   27.6724 H   0  0  0  0  0  0  0  0  0  0  0  0
    7.6307   -4.0424   27.6403 H   0  0  0  0  0  0  0  0  0  0  0  0
    8.3915   -5.1310   28.7968 H   0  0  0  0  0  0  0  0  0  0  0  0
    6.6888   -6.9376   25.3010 H   0  0  0  0  0  0  0  0  0  0  0  0
    6.5515   -5.1859   25.4257 H   0  0  0  0  0  0  0  0  0  0  0  0
   10.0492   -3.9640   27.3414 H   0  0  0  0  0  0  0  0  0  0  0  0
   10.1431   -5.7254   27.1778 H   0  0  0  0  0  0  0  0  0  0  0  0
    9.1338   -6.7931   25.0868 H   0  0  0  0  0  0  0  0  0  0  0  0
    8.3656   -5.7264   23.8998 H   0  0  0  0  0  0  0  0  0  0  0  0
    9.3974    1.2912   24.5523 H   0  0  0  0  0  0  0  0  0  0  0  0
    9.5159    2.2168   23.0554 H   0  0  0  0  0  0  0  0  0  0  0  0
    8.8326   -1.4554   20.3912 H   0  0  0  0  0  0  0  0  0  0  0  0
    7.5604   -1.1971   21.6201 H   0  0  0  0  0  0  0  0  0  0  0  0
  1  2  1  0  0  0  0
  1  5  2  0  0  0  0
  2  6  2  0  0  0  0
  3  4  2  0  0  0  0
  3 11  1  0  0  0  0
  4 13  1  0  0  0  0
  5 14  1  0  0  0  0
  6 15  1  0  0  0  0
  7  9  2  0  0  0  0
  7 16  1  0  0  0  0
  8 10  1  0  0  0  0
  8 16  2  0  0  0  0
  9 17  1  0  0  0  0
 10 17  2  0  0  0  0
 11 18  2  0  0  0  0
 12 13  2  0  0  0  0
 12 18  1  0  0  0  0
 13 25  1  0  0  0  0
 14 15  2  0  0  0  0
 14 27  1  0  0  0  0
 15 29  1  0  0  0  0
 16 30  1  0  0  0  0
 17 31  1  0  0  0  0
 18 33  1  0  0  0  0
 19 26  1  0  0  0  0
 19 31  1  0  0  0  0
 19 32  2  0  0  0  0
 20 21  1  0  0  0  0
 20 22  1  0  0  0  0
 21 23  1  0  0  0  0
 22 24  1  0  0  0  0
 23 30  1  0  0  0  0
 24 30  1  0  0  0  0
 25 31  1  0  0  0  0
 26 29  1  0  0  0  0
 27 28  2  0  0  0  0
 28 29  1  0  0  0  0
  1 34  1  0  0  0  0
  2 35  1  0  0  0  0
  3 36  1  0  0  0  0
  4 37  1  0  0  0  0
  5 38  1  0  0  0  0
  6 39  1  0  0  0  0
  7 40  1  0  0  0  0
  8 41  1  0  0  0  0
  9 42  1  0  0  0  0
 10 43  1  0  0  0  0
 11 44  1  0  0  0  0
 12 45  1  0  0  0  0
 20 46  1  0  0  0  0
 20 47  1  0  0  0  0
 21 48  1  0  0  0  0
 21 49  1  0  0  0  0
 22 50  1  0  0  0  0
 22 51  1  0  0  0  0
 23 52  1  0  0  0  0
 23 53  1  0  0  0  0
 24 54  1  0  0  0  0
 24 55  1  0  0  0  0
 25 56  1  0  0  0  0
 25 57  1  0  0  0  0
 26 58  1  0  0  0  0
 26 59  1  0  0  0  0
M  END
> <clash_score>
0

> <docking_score>
-8.234373092651367

> <overlap_score>
1.0042747259140015

$$$$
BENZO_349_1
  -OEChem-08222022203D

 47 50  0     0  0  0  0  0  0999 V2000
   14.1526    1.4694   24.0176 C   0  0  0  0  0  0  0  0  0  0  0  0
   13.3741    0.8121   24.9701 C   0  0  0  0  0  0  0  0  0  0  0  0
   13.5446    2.0802   22.9208 C   0  0  0  0  0  0  0  0  0  0  0  0
    3.9160    2.0630   19.5520 C   0  0  0  0  0  0  0  0  0  0  0  0
    4.2750    1.7050   20.8490 C   0  0  0  0  0  0  0  0  0  0  0  0
   11.9875    0.7654   24.8258 C   0  0  0  0  0  0  0  0  0  0  0  0
   12.1580    2.0335   22.7765 C   0  0  0  0  0  0  0  0  0  0  0  0
    8.9960   -2.3380   25.5320 C   0  0  0  0  0  0  0  0  0  0  0  0
    9.6730   -3.4710   23.5300 C   0  0  0  0  0  0  0  0  0  0  0  0
    4.6890    1.6810   18.4640 C   0  0  0  0  0  0  0  0  0  0  0  0
    5.4210    0.9600   21.0930 C   0  0  0  0  0  0  0  0  0  0  0  0
    9.0720   -1.1280   24.8640 C   0  0  0  0  0  0  0  0  0  0  0  0
    9.7200   -2.2600   22.8630 C   0  0  0  0  0  0  0  0  0  0  0  0
    9.3070   -3.5340   24.8780 C   0  0  0  0  0  0  0  0  0  0  0  0
   11.3794    1.3761   23.7290 C   0  0  0  0  0  0  0  0  0  0  0  0
    5.8300    0.9190   18.6970 C   0  0  0  0  0  0  0  0  0  0  0  0
    6.1790    0.5730   19.9990 C   0  0  0  0  0  0  0  0  0  0  0  0
    9.3350   -1.0880   23.5010 C   0  0  0  0  0  0  0  0  0  0  0  0
    9.0420    0.3700   21.5280 C   0  0  0  0  0  0  0  0  0  0  0  0
    9.2505   -4.8264   25.5904 C   0  0  0  0  0  0  0  0  0  0  0  0
    9.8870    1.3260   23.5730 C   0  0  0  0  0  0  0  0  0  0  0  0
    8.1890   -0.7180   20.8700 C   0  0  0  0  0  0  0  0  0  0  0  0
    6.7580    0.3810   17.8350 N   0  0  0  0  0  0  0  0  0  0  0  0
    7.6390   -0.2680   18.5410 N   0  0  0  0  0  0  0  0  0  0  0  0
    7.3170   -0.1610   19.8550 N   0  0  0  0  0  0  0  0  0  0  0  0
    9.4560    0.1560   22.8130 N   0  0  0  0  0  0  0  0  0  0  0  0
    9.2690    1.4140   20.9380 O   0  0  0  0  0  0  0  0  0  0  0  0
   15.2322    1.5068   24.1308 H   0  0  0  0  0  0  0  0  0  0  0  0
   13.8473    0.3374   25.8248 H   0  0  0  0  0  0  0  0  0  0  0  0
   14.1503    2.5930   22.1795 H   0  0  0  0  0  0  0  0  0  0  0  0
    3.0136    2.6524   19.3909 H   0  0  0  0  0  0  0  0  0  0  0  0
    3.6477    2.0141   21.6817 H   0  0  0  0  0  0  0  0  0  0  0  0
   11.3889    0.2508   25.5729 H   0  0  0  0  0  0  0  0  0  0  0  0
   11.6930    2.5120   21.9187 H   0  0  0  0  0  0  0  0  0  0  0  0
    8.6919   -2.3557   26.5813 H   0  0  0  0  0  0  0  0  0  0  0  0
    9.9267   -4.3907   22.9939 H   0  0  0  0  0  0  0  0  0  0  0  0
    4.4041    1.9739   17.4524 H   0  0  0  0  0  0  0  0  0  0  0  0
    5.7107    0.6909   22.1141 H   0  0  0  0  0  0  0  0  0  0  0  0
    8.9217   -0.1995   25.4231 H   0  0  0  0  0  0  0  0  0  0  0  0
   10.0653   -2.2339   21.8256 H   0  0  0  0  0  0  0  0  0  0  0  0
    8.2503   -5.2678   25.5020 H   0  0  0  0  0  0  0  0  0  0  0  0
    9.9817   -5.5374   25.1845 H   0  0  0  0  0  0  0  0  0  0  0  0
    9.4841   -4.7043   26.6562 H   0  0  0  0  0  0  0  0  0  0  0  0
    9.3974    1.2912   24.5523 H   0  0  0  0  0  0  0  0  0  0  0  0
    9.5159    2.2168   23.0554 H   0  0  0  0  0  0  0  0  0  0  0  0
    8.8255   -1.4531   20.3835 H   0  0  0  0  0  0  0  0  0  0  0  0
    7.5533   -1.1948   21.6123 H   0  0  0  0  0  0  0  0  0  0  0  0
  1  2  1  0  0  0  0
  1  3  2  0  0  0  0
  2  6  2  0  0  0  0
  3  7  1  0  0  0  0
  4  5  1  0  0  0  0
  4 10  2  0  0  0  0
  5 11  2  0  0  0  0
  6 15  1  0  0  0  0
  7 15  2  0  0  0  0
  8 12  2  0  0  0  0
  8 14  1  0  0  0  0
  9 13  1  0  0  0  0
  9 14  2  0  0  0  0
 10 16  1  0  0  0  0
 11 17  1  0  0  0  0
 12 18  1  0  0  0  0
 13 18  2  0  0  0  0
 14 20  1  0  0  0  0
 15 21  1  0  0  0  0
 16 17  2  0  0  0  0
 16 23  1  0  0  0  0
 17 25  1  0  0  0  0
 18 26  1  0  0  0  0
 19 22  1  0  0  0  0
 19 26  1  0  0  0  0
 19 27  2  0  0  0  0
 21 26  1  0  0  0  0
 22 25  1  0  0  0  0
 23 24  2  0  0  0  0
 24 25  1  0  0  0  0
  1 28  1  0  0  0  0
  2 29  1  0  0  0  0
  3 30  1  0  0  0  0
  4 31  1  0  0  0  0
  5 32  1  0  0  0  0
  6 33  1  0  0  0  0
  7 34  1  0  0  0  0
  8 35  1  0  0  0  0
  9 36  1  0  0  0  0
 10 37  1  0  0  0  0
 11 38  1  0  0  0  0
 12 39  1  0  0  0  0
 13 40  1  0  0  0  0
 20 41  1  0  0  0  0
 20 42  1  0  0  0  0
 20 43  1  0  0  0  0
 21 44  1  0  0  0  0
 21 45  1  0  0  0  0
 22 46  1  0  0  0  0
 22 47  1  0  0  0  0
M  END
> <clash_score>
0

> <docking_score>
-9.342416763305664

> <overlap_score>
0.9394524097442627

$$$$
BENZO_348_1
  -OEChem-08222022203D

 44 47  0     0  0  0  0  0  0999 V2000
    3.9160    2.0630   19.5520 C   0  0  0  0  0  0  0  0  0  0  0  0
    4.2750    1.7050   20.8490 C   0  0  0  0  0  0  0  0  0  0  0  0
    8.9960   -2.3380   25.5320 C   0  0  0  0  0  0  0  0  0  0  0  0
    9.6730   -3.4710   23.5300 C   0  0  0  0  0  0  0  0  0  0  0  0
    4.6890    1.6810   18.4640 C   0  0  0  0  0  0  0  0  0  0  0  0
    5.4210    0.9600   21.0930 C   0  0  0  0  0  0  0  0  0  0  0  0
    9.0720   -1.1280   24.8640 C   0  0  0  0  0  0  0  0  0  0  0  0
    9.7200   -2.2600   22.8630 C   0  0  0  0  0  0  0  0  0  0  0  0
   12.2111    0.2208   23.7905 C   0  0  0  0  0  0  0  0  0  0  0  0
   13.5412    0.5479   23.9363 C   0  0  0  0  0  0  0  0  0  0  0  0
   12.1057    2.5424   23.8305 C   0  0  0  0  0  0  0  0  0  0  0  0
    9.3070   -3.5340   24.8780 C   0  0  0  0  0  0  0  0  0  0  0  0
   11.3794    1.3761   23.7290 C   0  0  0  0  0  0  0  0  0  0  0  0
    5.8300    0.9190   18.6970 C   0  0  0  0  0  0  0  0  0  0  0  0
    6.1790    0.5730   19.9990 C   0  0  0  0  0  0  0  0  0  0  0  0
    9.3350   -1.0880   23.5010 C   0  0  0  0  0  0  0  0  0  0  0  0
    9.0420    0.3700   21.5280 C   0  0  0  0  0  0  0  0  0  0  0  0
    9.2505   -4.8264   25.5904 C   0  0  0  0  0  0  0  0  0  0  0  0
    9.8870    1.3260   23.5730 C   0  0  0  0  0  0  0  0  0  0  0  0
    8.1890   -0.7180   20.8700 C   0  0  0  0  0  0  0  0  0  0  0  0
    6.7580    0.3810   17.8350 N   0  0  0  0  0  0  0  0  0  0  0  0
    7.6390   -0.2680   18.5410 N   0  0  0  0  0  0  0  0  0  0  0  0
    7.3170   -0.1610   19.8550 N   0  0  0  0  0  0  0  0  0  0  0  0
    9.4560    0.1560   22.8130 N   0  0  0  0  0  0  0  0  0  0  0  0
    9.2690    1.4140   20.9380 O   0  0  0  0  0  0  0  0  0  0  0  0
   13.7831    2.2420   23.9988 S   0  0  0  0  0  0  0  0  0  0  0  0
    3.0136    2.6524   19.3909 H   0  0  0  0  0  0  0  0  0  0  0  0
    3.6477    2.0141   21.6817 H   0  0  0  0  0  0  0  0  0  0  0  0
    8.6919   -2.3557   26.5813 H   0  0  0  0  0  0  0  0  0  0  0  0
    9.9267   -4.3907   22.9939 H   0  0  0  0  0  0  0  0  0  0  0  0
    4.4041    1.9739   17.4524 H   0  0  0  0  0  0  0  0  0  0  0  0
    5.7107    0.6909   22.1141 H   0  0  0  0  0  0  0  0  0  0  0  0
    8.9217   -0.1995   25.4231 H   0  0  0  0  0  0  0  0  0  0  0  0
   10.0653   -2.2339   21.8256 H   0  0  0  0  0  0  0  0  0  0  0  0
   11.8558   -0.8003   23.7315 H   0  0  0  0  0  0  0  0  0  0  0  0
   14.3824   -0.1267   24.0100 H   0  0  0  0  0  0  0  0  0  0  0  0
   11.7354    3.5581   23.8155 H   0  0  0  0  0  0  0  0  0  0  0  0
    8.2503   -5.2678   25.5020 H   0  0  0  0  0  0  0  0  0  0  0  0
    9.9817   -5.5374   25.1845 H   0  0  0  0  0  0  0  0  0  0  0  0
    9.4841   -4.7043   26.6562 H   0  0  0  0  0  0  0  0  0  0  0  0
    9.3974    1.2912   24.5523 H   0  0  0  0  0  0  0  0  0  0  0  0
    9.5159    2.2168   23.0554 H   0  0  0  0  0  0  0  0  0  0  0  0
    8.8255   -1.4531   20.3835 H   0  0  0  0  0  0  0  0  0  0  0  0
    7.5533   -1.1948   21.6123 H   0  0  0  0  0  0  0  0  0  0  0  0
  1  2  1  0  0  0  0
  1  5  2  0  0  0  0
  2  6  2  0  0  0  0
  3  7  2  0  0  0  0
  3 12  1  0  0  0  0
  4  8  1  0  0  0  0
  4 12  2  0  0  0  0
  5 14  1  0  0  0  0
  6 15  1  0  0  0  0
  7 16  1  0  0  0  0
  8 16  2  0  0  0  0
  9 10  2  0  0  0  0
  9 13  1  0  0  0  0
 10 26  1  0  0  0  0
 11 13  2  0  0  0  0
 11 26  1  0  0  0  0
 12 18  1  0  0  0  0
 13 19  1  0  0  0  0
 14 15  2  0  0  0  0
 14 21  1  0  0  0  0
 15 23  1  0  0  0  0
 16 24  1  0  0  0  0
 17 20  1  0  0  0  0
 17 24  1  0  0  0  0
 17 25  2  0  0  0  0
 19 24  1  0  0  0  0
 20 23  1  0  0  0  0
 21 22  2  0  0  0  0
 22 23  1  0  0  0  0
  1 27  1  0  0  0  0
  2 28  1  0  0  0  0
  3 29  1  0  0  0  0
  4 30  1  0  0  0  0
  5 31  1  0  0  0  0
  6 32  1  0  0  0  0
  7 33  1  0  0  0  0
  8 34  1  0  0  0  0
  9 35  1  0  0  0  0
 10 36  1  0  0  0  0
 11 37  1  0  0  0  0
 18 38  1  0  0  0  0
 18 39  1  0  0  0  0
 18 40  1  0  0  0  0
 19 41  1  0  0  0  0
 19 42  1  0  0  0  0
 20 43  1  0  0  0  0
 20 44  1  0  0  0  0
M  END
> <clash_score>
0

> <docking_score>
-8.615595817565918

> <overlap_score>
0.924271285533905

$$$$
BENZO_351_1
  -OEChem-08222022203D

 47 50  0     0  0  0  0  0  0999 V2000
    3.9160    2.0630   19.5520 C   0  0  0  0  0  0  0  0  0  0  0  0
    4.2750    1.7050   20.8490 C   0  0  0  0  0  0  0  0  0  0  0  0
    8.9960   -2.3380   25.5320 C   0  0  0  0  0  0  0  0  0  0  0  0
    9.6730   -3.4710   23.5300 C   0  0  0  0  0  0  0  0  0  0  0  0
    4.6890    1.6810   18.4640 C   0  0  0  0  0  0  0  0  0  0  0  0
    5.4210    0.9600   21.0930 C   0  0  0  0  0  0  0  0  0  0  0  0
    9.0720   -1.1280   24.8640 C   0  0  0  0  0  0  0  0  0  0  0  0
    9.7200   -2.2600   22.8630 C   0  0  0  0  0  0  0  0  0  0  0  0
   12.2914    2.2071   23.0512 C   0  0  0  0  0  0  0  0  0  0  0  0
   12.1614    0.6214   24.5689 C   0  0  0  0  0  0  0  0  0  0  0  0
    9.3070   -3.5340   24.8780 C   0  0  0  0  0  0  0  0  0  0  0  0
   11.3794    1.3761   23.7290 C   0  0  0  0  0  0  0  0  0  0  0  0
    5.8300    0.9190   18.6970 C   0  0  0  0  0  0  0  0  0  0  0  0
    6.1790    0.5730   19.9990 C   0  0  0  0  0  0  0  0  0  0  0  0
    9.3350   -1.0880   23.5010 C   0  0  0  0  0  0  0  0  0  0  0  0
    9.0420    0.3700   21.5280 C   0  0  0  0  0  0  0  0  0  0  0  0
    9.2505   -4.8264   25.5904 C   0  0  0  0  0  0  0  0  0  0  0  0
   14.6267    0.5248   25.0067 C   0  0  0  0  0  0  0  0  0  0  0  0
    9.8870    1.3260   23.5730 C   0  0  0  0  0  0  0  0  0  0  0  0
    8.1890   -0.7180   20.8700 C   0  0  0  0  0  0  0  0  0  0  0  0
   13.5560    2.0002   23.4280 N   0  0  0  0  0  0  0  0  0  0  0  0
    6.7580    0.3810   17.8350 N   0  0  0  0  0  0  0  0  0  0  0  0
    7.6390   -0.2680   18.5410 N   0  0  0  0  0  0  0  0  0  0  0  0
   13.4442    1.0306   24.3518 N   0  0  0  0  0  0  0  0  0  0  0  0
    7.3170   -0.1610   19.8550 N   0  0  0  0  0  0  0  0  0  0  0  0
    9.4560    0.1560   22.8130 N   0  0  0  0  0  0  0  0  0  0  0  0
    9.2690    1.4140   20.9380 O   0  0  0  0  0  0  0  0  0  0  0  0
    3.0136    2.6524   19.3909 H   0  0  0  0  0  0  0  0  0  0  0  0
    3.6477    2.0141   21.6817 H   0  0  0  0  0  0  0  0  0  0  0  0
    8.6919   -2.3557   26.5813 H   0  0  0  0  0  0  0  0  0  0  0  0
    9.9267   -4.3907   22.9939 H   0  0  0  0  0  0  0  0  0  0  0  0
    4.4041    1.9739   17.4524 H   0  0  0  0  0  0  0  0  0  0  0  0
    5.7107    0.6909   22.1141 H   0  0  0  0  0  0  0  0  0  0  0  0
    8.9217   -0.1995   25.4231 H   0  0  0  0  0  0  0  0  0  0  0  0
   10.0653   -2.2339   21.8256 H   0  0  0  0  0  0  0  0  0  0  0  0
   12.0895    2.9562   22.2987 H   0  0  0  0  0  0  0  0  0  0  0  0
   11.9202   -0.1518   25.2857 H   0  0  0  0  0  0  0  0  0  0  0  0
    8.2503   -5.2678   25.5020 H   0  0  0  0  0  0  0  0  0  0  0  0
    9.9817   -5.5374   25.1845 H   0  0  0  0  0  0  0  0  0  0  0  0
    9.4841   -4.7043   26.6562 H   0  0  0  0  0  0  0  0  0  0  0  0
   15.0068   -0.3132   24.4165 H   0  0  0  0  0  0  0  0  0  0  0  0
   15.3758    1.3189   25.0698 H   0  0  0  0  0  0  0  0  0  0  0  0
   14.3676    0.1958   26.0170 H   0  0  0  0  0  0  0  0  0  0  0  0
    9.3974    1.2912   24.5523 H   0  0  0  0  0  0  0  0  0  0  0  0
    9.5159    2.2168   23.0554 H   0  0  0  0  0  0  0  0  0  0  0  0
    8.8255   -1.4531   20.3835 H   0  0  0  0  0  0  0  0  0  0  0  0
    7.5533   -1.1948   21.6123 H   0  0  0  0  0  0  0  0  0  0  0  0
  1  2  1  0  0  0  0
  1  5  2  0  0  0  0
  2  6  2  0  0  0  0
  3  7  2  0  0  0  0
  3 11  1  0  0  0  0
  4  8  1  0  0  0  0
  4 11  2  0  0  0  0
  5 13  1  0  0  0  0
  6 14  1  0  0  0  0
  7 15  1  0  0  0  0
  8 15  2  0  0  0  0
  9 12  1  0  0  0  0
  9 21  2  0  0  0  0
 10 12  2  0  0  0  0
 10 24  1  0  0  0  0
 11 17  1  0  0  0  0
 12 19  1  0  0  0  0
 13 14  2  0  0  0  0
 13 22  1  0  0  0  0
 14 25  1  0  0  0  0
 15 26  1  0  0  0  0
 16 20  1  0  0  0  0
 16 26  1  0  0  0  0
 16 27  2  0  0  0  0
 18 24  1  0  0  0  0
 19 26  1  0  0  0  0
 20 25  1  0  0  0  0
 21 24  1  0  0  0  0
 22 23  2  0  0  0  0
 23 25  1  0  0  0  0
  1 28  1  0  0  0  0
  2 29  1  0  0  0  0
  3 30  1  0  0  0  0
  4 31  1  0  0  0  0
  5 32  1  0  0  0  0
  6 33  1  0  0  0  0
  7 34  1  0  0  0  0
  8 35  1  0  0  0  0
  9 36  1  0  0  0  0
 10 37  1  0  0  0  0
 17 38  1  0  0  0  0
 17 39  1  0  0  0  0
 17 40  1  0  0  0  0
 18 41  1  0  0  0  0
 18 42  1  0  0  0  0
 18 43  1  0  0  0  0
 19 44  1  0  0  0  0
 19 45  1  0  0  0  0
 20 46  1  0  0  0  0
 20 47  1  0  0  0  0
M  END
> <clash_score>
0.6199406247098616

> <docking_score>
-9.050434112548828

> <overlap_score>
0.9382390379905701

$$$$
BENZO_353_1
  -OEChem-08222022203D

 48 51  0     0  0  0  0  0  0999 V2000
   14.1526    1.4694   24.0176 C   0  0  0  0  0  0  0  0  0  0  0  0
   13.3741    0.8121   24.9701 C   0  0  0  0  0  0  0  0  0  0  0  0
   13.5446    2.0802   22.9208 C   0  0  0  0  0  0  0  0  0  0  0  0
    3.9160    2.0630   19.5520 C   0  0  0  0  0  0  0  0  0  0  0  0
    4.2750    1.7050   20.8490 C   0  0  0  0  0  0  0  0  0  0  0  0
   11.9875    0.7654   24.8258 C   0  0  0  0  0  0  0  0  0  0  0  0
   12.1580    2.0335   22.7765 C   0  0  0  0  0  0  0  0  0  0  0  0
    4.6890    1.6810   18.4640 C   0  0  0  0  0  0  0  0  0  0  0  0
    5.4210    0.9600   21.0930 C   0  0  0  0  0  0  0  0  0  0  0  0
    9.0720   -1.1280   24.8640 C   0  0  0  0  0  0  0  0  0  0  0  0
    9.7200   -2.2600   22.8630 C   0  0  0  0  0  0  0  0  0  0  0  0
    8.9960   -2.3380   25.5320 C   0  0  0  0  0  0  0  0  0  0  0  0
    9.6730   -3.4710   23.5300 C   0  0  0  0  0  0  0  0  0  0  0  0
   11.3794    1.3761   23.7290 C   0  0  0  0  0  0  0  0  0  0  0  0
    5.8300    0.9190   18.6970 C   0  0  0  0  0  0  0  0  0  0  0  0
    6.1790    0.5730   19.9990 C   0  0  0  0  0  0  0  0  0  0  0  0
    9.3350   -1.0880   23.5010 C   0  0  0  0  0  0  0  0  0  0  0  0
    9.3070   -3.5340   24.8780 C   0  0  0  0  0  0  0  0  0  0  0  0
    9.0420    0.3700   21.5280 C   0  0  0  0  0  0  0  0  0  0  0  0
    9.5894   -5.8809   24.7798 C   0  0  0  0  0  0  0  0  0  0  0  0
    9.8870    1.3260   23.5730 C   0  0  0  0  0  0  0  0  0  0  0  0
    8.1890   -0.7180   20.8700 C   0  0  0  0  0  0  0  0  0  0  0  0
    6.7580    0.3810   17.8350 N   0  0  0  0  0  0  0  0  0  0  0  0
    7.6390   -0.2680   18.5410 N   0  0  0  0  0  0  0  0  0  0  0  0
    7.3170   -0.1610   19.8550 N   0  0  0  0  0  0  0  0  0  0  0  0
    9.4560    0.1560   22.8130 N   0  0  0  0  0  0  0  0  0  0  0  0
    9.2690    1.4140   20.9380 O   0  0  0  0  0  0  0  0  0  0  0  0
    9.2555   -4.7124   25.5274 O   0  0  0  0  0  0  0  0  0  0  0  0
   15.2322    1.5068   24.1308 H   0  0  0  0  0  0  0  0  0  0  0  0
   13.8473    0.3374   25.8248 H   0  0  0  0  0  0  0  0  0  0  0  0
   14.1503    2.5930   22.1795 H   0  0  0  0  0  0  0  0  0  0  0  0
    3.0136    2.6524   19.3909 H   0  0  0  0  0  0  0  0  0  0  0  0
    3.6477    2.0141   21.6817 H   0  0  0  0  0  0  0  0  0  0  0  0
   11.3889    0.2508   25.5729 H   0  0  0  0  0  0  0  0  0  0  0  0
   11.6930    2.5120   21.9187 H   0  0  0  0  0  0  0  0  0  0  0  0
    4.4041    1.9739   17.4524 H   0  0  0  0  0  0  0  0  0  0  0  0
    5.7107    0.6909   22.1141 H   0  0  0  0  0  0  0  0  0  0  0  0
    8.9221   -0.1995   25.4231 H   0  0  0  0  0  0  0  0  0  0  0  0
   10.0642   -2.2347   21.8253 H   0  0  0  0  0  0  0  0  0  0  0  0
    8.6902   -2.3588   26.5805 H   0  0  0  0  0  0  0  0  0  0  0  0
    9.9254   -4.3921   22.9961 H   0  0  0  0  0  0  0  0  0  0  0  0
    9.5074   -6.7611   25.4222 H   0  0  0  0  0  0  0  0  0  0  0  0
   10.6088   -5.7902   24.3963 H   0  0  0  0  0  0  0  0  0  0  0  0
    8.8944   -5.9778   23.9424 H   0  0  0  0  0  0  0  0  0  0  0  0
    9.3974    1.2912   24.5523 H   0  0  0  0  0  0  0  0  0  0  0  0
    9.5159    2.2168   23.0554 H   0  0  0  0  0  0  0  0  0  0  0  0
    8.8255   -1.4531   20.3835 H   0  0  0  0  0  0  0  0  0  0  0  0
    7.5533   -1.1948   21.6123 H   0  0  0  0  0  0  0  0  0  0  0  0
  1  2  1  0  0  0  0
  1  3  2  0  0  0  0
  2  6  2  0  0  0  0
  3  7  1  0  0  0  0
  4  5  1  0  0  0  0
  4  8  2  0  0  0  0
  5  9  2  0  0  0  0
  6 14  1  0  0  0  0
  7 14  2  0  0  0  0
  8 15  1  0  0  0  0
  9 16  1  0  0  0  0
 10 12  2  0  0  0  0
 10 17  1  0  0  0  0
 11 13  1  0  0  0  0
 11 17  2  0  0  0  0
 12 18  1  0  0  0  0
 13 18  2  0  0  0  0
 14 21  1  0  0  0  0
 15 16  2  0  0  0  0
 15 23  1  0  0  0  0
 16 25  1  0  0  0  0
 17 26  1  0  0  0  0
 18 28  1  0  0  0  0
 19 22  1  0  0  0  0
 19 26  1  0  0  0  0
 19 27  2  0  0  0  0
 20 28  1  0  0  0  0
 21 26  1  0  0  0  0
 22 25  1  0  0  0  0
 23 24  2  0  0  0  0
 24 25  1  0  0  0  0
  1 29  1  0  0  0  0
  2 30  1  0  0  0  0
  3 31  1  0  0  0  0
  4 32  1  0  0  0  0
  5 33  1  0  0  0  0
  6 34  1  0  0  0  0
  7 35  1  0  0  0  0
  8 36  1  0  0  0  0
  9 37  1  0  0  0  0
 10 38  1  0  0  0  0
 11 39  1  0  0  0  0
 12 40  1  0  0  0  0
 13 41  1  0  0  0  0
 20 42  1  0  0  0  0
 20 43  1  0  0  0  0
 20 44  1  0  0  0  0
 21 45  1  0  0  0  0
 21 46  1  0  0  0  0
 22 47  1  0  0  0  0
 22 48  1  0  0  0  0
M  END
> <clash_score>
0

> <docking_score>
-9.048529624938965

> <overlap_score>
0.9642544984817505

$$$$
BENZO_350_1
  -OEChem-08222022203D

 47 50  0     0  0  0  0  0  0999 V2000
    3.9160    2.0630   19.5520 C   0  0  0  0  0  0  0  0  0  0  0  0
    4.2750    1.7050   20.8490 C   0  0  0  0  0  0  0  0  0  0  0  0
   13.4006    0.5725   24.7805 C   0  0  0  0  0  0  0  0  0  0  0  0
   12.0141    0.5273   24.6359 C   0  0  0  0  0  0  0  0  0  0  0  0
    8.9960   -2.3380   25.5320 C   0  0  0  0  0  0  0  0  0  0  0  0
    9.6730   -3.4710   23.5300 C   0  0  0  0  0  0  0  0  0  0  0  0
    4.6890    1.6810   18.4640 C   0  0  0  0  0  0  0  0  0  0  0  0
    5.4210    0.9600   21.0930 C   0  0  0  0  0  0  0  0  0  0  0  0
    9.0720   -1.1280   24.8640 C   0  0  0  0  0  0  0  0  0  0  0  0
    9.7200   -2.2600   22.8630 C   0  0  0  0  0  0  0  0  0  0  0  0
   14.1526    1.4666   24.0184 C   0  0  0  0  0  0  0  0  0  0  0  0
   12.1314    2.2702   22.9668 C   0  0  0  0  0  0  0  0  0  0  0  0
    9.3070   -3.5340   24.8780 C   0  0  0  0  0  0  0  0  0  0  0  0
   11.3794    1.3761   23.7290 C   0  0  0  0  0  0  0  0  0  0  0  0
    5.8300    0.9190   18.6970 C   0  0  0  0  0  0  0  0  0  0  0  0
    6.1790    0.5730   19.9990 C   0  0  0  0  0  0  0  0  0  0  0  0
    9.3350   -1.0880   23.5010 C   0  0  0  0  0  0  0  0  0  0  0  0
   13.5180    2.3154   23.1115 C   0  0  0  0  0  0  0  0  0  0  0  0
    9.0420    0.3700   21.5280 C   0  0  0  0  0  0  0  0  0  0  0  0
    9.2505   -4.8264   25.5904 C   0  0  0  0  0  0  0  0  0  0  0  0
    9.8870    1.3260   23.5730 C   0  0  0  0  0  0  0  0  0  0  0  0
    8.1890   -0.7180   20.8700 C   0  0  0  0  0  0  0  0  0  0  0  0
    6.7580    0.3810   17.8350 N   0  0  0  0  0  0  0  0  0  0  0  0
    7.6390   -0.2680   18.5410 N   0  0  0  0  0  0  0  0  0  0  0  0
    7.3170   -0.1610   19.8550 N   0  0  0  0  0  0  0  0  0  0  0  0
    9.4560    0.1560   22.8130 N   0  0  0  0  0  0  0  0  0  0  0  0
    9.2690    1.4140   20.9380 O   0  0  0  0  0  0  0  0  0  0  0  0
   14.4463    3.4175   22.1707 Cl  0  0  0  0  0  0  0  0  0  0  0  0
    3.0136    2.6524   19.3909 H   0  0  0  0  0  0  0  0  0  0  0  0
    3.6477    2.0141   21.6817 H   0  0  0  0  0  0  0  0  0  0  0  0
   13.8945   -0.0888   25.4867 H   0  0  0  0  0  0  0  0  0  0  0  0
   11.4361   -0.1726   25.2338 H   0  0  0  0  0  0  0  0  0  0  0  0
    8.6919   -2.3557   26.5813 H   0  0  0  0  0  0  0  0  0  0  0  0
    9.9267   -4.3907   22.9939 H   0  0  0  0  0  0  0  0  0  0  0  0
    4.4041    1.9739   17.4524 H   0  0  0  0  0  0  0  0  0  0  0  0
    5.7107    0.6909   22.1141 H   0  0  0  0  0  0  0  0  0  0  0  0
    8.9217   -0.1995   25.4231 H   0  0  0  0  0  0  0  0  0  0  0  0
   10.0653   -2.2339   21.8256 H   0  0  0  0  0  0  0  0  0  0  0  0
   15.2326    1.4907   24.1414 H   0  0  0  0  0  0  0  0  0  0  0  0
   11.6318    2.9303   22.2615 H   0  0  0  0  0  0  0  0  0  0  0  0
    8.2503   -5.2678   25.5020 H   0  0  0  0  0  0  0  0  0  0  0  0
    9.9817   -5.5374   25.1845 H   0  0  0  0  0  0  0  0  0  0  0  0
    9.4841   -4.7043   26.6562 H   0  0  0  0  0  0  0  0  0  0  0  0
    9.3974    1.2912   24.5523 H   0  0  0  0  0  0  0  0  0  0  0  0
    9.5159    2.2168   23.0554 H   0  0  0  0  0  0  0  0  0  0  0  0
    8.8255   -1.4531   20.3835 H   0  0  0  0  0  0  0  0  0  0  0  0
    7.5533   -1.1948   21.6123 H   0  0  0  0  0  0  0  0  0  0  0  0
  1  2  1  0  0  0  0
  1  7  2  0  0  0  0
  2  8  2  0  0  0  0
  3  4  2  0  0  0  0
  3 11  1  0  0  0  0
  4 14  1  0  0  0  0
  5  9  2  0  0  0  0
  5 13  1  0  0  0  0
  6 10  1  0  0  0  0
  6 13  2  0  0  0  0
  7 15  1  0  0  0  0
  8 16  1  0  0  0  0
  9 17  1  0  0  0  0
 10 17  2  0  0  0  0
 11 18  2  0  0  0  0
 12 14  2  0  0  0  0
 12 18  1  0  0  0  0
 13 20  1  0  0  0  0
 14 21  1  0  0  0  0
 15 16  2  0  0  0  0
 15 23  1  0  0  0  0
 16 25  1  0  0  0  0
 17 26  1  0  0  0  0
 18 28  1  0  0  0  0
 19 22  1  0  0  0  0
 19 26  1  0  0  0  0
 19 27  2  0  0  0  0
 21 26  1  0  0  0  0
 22 25  1  0  0  0  0
 23 24  2  0  0  0  0
 24 25  1  0  0  0  0
  1 29  1  0  0  0  0
  2 30  1  0  0  0  0
  3 31  1  0  0  0  0
  4 32  1  0  0  0  0
  5 33  1  0  0  0  0
  6 34  1  0  0  0  0
  7 35  1  0  0  0  0
  8 36  1  0  0  0  0
  9 37  1  0  0  0  0
 10 38  1  0  0  0  0
 11 39  1  0  0  0  0
 12 40  1  0  0  0  0
 20 41  1  0  0  0  0
 20 42  1  0  0  0  0
 20 43  1  0  0  0  0
 21 44  1  0  0  0  0
 21 45  1  0  0  0  0
 22 46  1  0  0  0  0
 22 47  1  0  0  0  0
M  END
> <clash_score>
0

> <docking_score>
-8.479398727416992

> <overlap_score>
0.9507184624671936

$$$$
BENZO_352_1
  -OEChem-08222022203D

 45 48  0     0  0  0  0  0  0999 V2000
    3.9160    2.0630   19.5520 C   0  0  0  0  0  0  0  0  0  0  0  0
    4.2750    1.7050   20.8490 C   0  0  0  0  0  0  0  0  0  0  0  0
    4.6890    1.6810   18.4640 C   0  0  0  0  0  0  0  0  0  0  0  0
    5.4210    0.9600   21.0930 C   0  0  0  0  0  0  0  0  0  0  0  0
    9.0720   -1.1280   24.8640 C   0  0  0  0  0  0  0  0  0  0  0  0
    9.7200   -2.2600   22.8630 C   0  0  0  0  0  0  0  0  0  0  0  0
    8.9960   -2.3380   25.5320 C   0  0  0  0  0  0  0  0  0  0  0  0
    9.6730   -3.4710   23.5300 C   0  0  0  0  0  0  0  0  0  0  0  0
   12.2111    0.2208   23.7905 C   0  0  0  0  0  0  0  0  0  0  0  0
   13.5412    0.5479   23.9363 C   0  0  0  0  0  0  0  0  0  0  0  0
   12.1057    2.5424   23.8305 C   0  0  0  0  0  0  0  0  0  0  0  0
   11.3794    1.3761   23.7290 C   0  0  0  0  0  0  0  0  0  0  0  0
    5.8300    0.9190   18.6970 C   0  0  0  0  0  0  0  0  0  0  0  0
    6.1790    0.5730   19.9990 C   0  0  0  0  0  0  0  0  0  0  0  0
    9.3350   -1.0880   23.5010 C   0  0  0  0  0  0  0  0  0  0  0  0
    9.3070   -3.5340   24.8780 C   0  0  0  0  0  0  0  0  0  0  0  0
    9.0420    0.3700   21.5280 C   0  0  0  0  0  0  0  0  0  0  0  0
    9.5894   -5.8809   24.7798 C   0  0  0  0  0  0  0  0  0  0  0  0
    9.8870    1.3260   23.5730 C   0  0  0  0  0  0  0  0  0  0  0  0
    8.1890   -0.7180   20.8700 C   0  0  0  0  0  0  0  0  0  0  0  0
    6.7580    0.3810   17.8350 N   0  0  0  0  0  0  0  0  0  0  0  0
    7.6390   -0.2680   18.5410 N   0  0  0  0  0  0  0  0  0  0  0  0
    7.3170   -0.1610   19.8550 N   0  0  0  0  0  0  0  0  0  0  0  0
    9.4560    0.1560   22.8130 N   0  0  0  0  0  0  0  0  0  0  0  0
    9.2690    1.4140   20.9380 O   0  0  0  0  0  0  0  0  0  0  0  0
    9.2555   -4.7124   25.5274 O   0  0  0  0  0  0  0  0  0  0  0  0
   13.7831    2.2420   23.9988 S   0  0  0  0  0  0  0  0  0  0  0  0
    3.0136    2.6524   19.3909 H   0  0  0  0  0  0  0  0  0  0  0  0
    3.6477    2.0141   21.6817 H   0  0  0  0  0  0  0  0  0  0  0  0
    4.4041    1.9739   17.4524 H   0  0  0  0  0  0  0  0  0  0  0  0
    5.7107    0.6909   22.1141 H   0  0  0  0  0  0  0  0  0  0  0  0
    8.9221   -0.1995   25.4231 H   0  0  0  0  0  0  0  0  0  0  0  0
   10.0642   -2.2347   21.8253 H   0  0  0  0  0  0  0  0  0  0  0  0
    8.6902   -2.3588   26.5805 H   0  0  0  0  0  0  0  0  0  0  0  0
    9.9254   -4.3921   22.9961 H   0  0  0  0  0  0  0  0  0  0  0  0
   11.8558   -0.8003   23.7315 H   0  0  0  0  0  0  0  0  0  0  0  0
   14.3824   -0.1267   24.0100 H   0  0  0  0  0  0  0  0  0  0  0  0
   11.7354    3.5581   23.8155 H   0  0  0  0  0  0  0  0  0  0  0  0
    9.5074   -6.7611   25.4222 H   0  0  0  0  0  0  0  0  0  0  0  0
   10.6088   -5.7902   24.3963 H   0  0  0  0  0  0  0  0  0  0  0  0
    8.8944   -5.9778   23.9424 H   0  0  0  0  0  0  0  0  0  0  0  0
    9.3974    1.2912   24.5523 H   0  0  0  0  0  0  0  0  0  0  0  0
    9.5159    2.2168   23.0554 H   0  0  0  0  0  0  0  0  0  0  0  0
    8.8255   -1.4531   20.3835 H   0  0  0  0  0  0  0  0  0  0  0  0
    7.5533   -1.1948   21.6123 H   0  0  0  0  0  0  0  0  0  0  0  0
  1  2  1  0  0  0  0
  1  3  2  0  0  0  0
  2  4  2  0  0  0  0
  3 13  1  0  0  0  0
  4 14  1  0  0  0  0
  5  7  2  0  0  0  0
  5 15  1  0  0  0  0
  6  8  1  0  0  0  0
  6 15  2  0  0  0  0
  7 16  1  0  0  0  0
  8 16  2  0  0  0  0
  9 10  2  0  0  0  0
  9 12  1  0  0  0  0
 10 27  1  0  0  0  0
 11 12  2  0  0  0  0
 11 27  1  0  0  0  0
 12 19  1  0  0  0  0
 13 14  2  0  0  0  0
 13 21  1  0  0  0  0
 14 23  1  0  0  0  0
 15 24  1  0  0  0  0
 16 26  1  0  0  0  0
 17 20  1  0  0  0  0
 17 24  1  0  0  0  0
 17 25  2  0  0  0  0
 18 26  1  0  0  0  0
 19 24  1  0  0  0  0
 20 23  1  0  0  0  0
 21 22  2  0  0  0  0
 22 23  1  0  0  0  0
  1 28  1  0  0  0  0
  2 29  1  0  0  0  0
  3 30  1  0  0  0  0
  4 31  1  0  0  0  0
  5 32  1  0  0  0  0
  6 33  1  0  0  0  0
  7 34  1  0  0  0  0
  8 35  1  0  0  0  0
  9 36  1  0  0  0  0
 10 37  1  0  0  0  0
 11 38  1  0  0  0  0
 18 39  1  0  0  0  0
 18 40  1  0  0  0  0
 18 41  1  0  0  0  0
 19 42  1  0  0  0  0
 19 43  1  0  0  0  0
 20 44  1  0  0  0  0
 20 45  1  0  0  0  0
M  END
> <clash_score>
0

> <docking_score>
-8.321707725524902

> <overlap_score>
0.9491583108901978

$$$$
BENZO_355_1
  -OEChem-08222022203D

 48 51  0     0  0  0  0  0  0999 V2000
    3.9160    2.0630   19.5520 C   0  0  0  0  0  0  0  0  0  0  0  0
    4.2750    1.7050   20.8490 C   0  0  0  0  0  0  0  0  0  0  0  0
    4.6890    1.6810   18.4640 C   0  0  0  0  0  0  0  0  0  0  0  0
    5.4210    0.9600   21.0930 C   0  0  0  0  0  0  0  0  0  0  0  0
    9.0720   -1.1280   24.8640 C   0  0  0  0  0  0  0  0  0  0  0  0
    9.7200   -2.2600   22.8630 C   0  0  0  0  0  0  0  0  0  0  0  0
    8.9960   -2.3380   25.5320 C   0  0  0  0  0  0  0  0  0  0  0  0
    9.6730   -3.4710   23.5300 C   0  0  0  0  0  0  0  0  0  0  0  0
   12.2914    2.2071   23.0512 C   0  0  0  0  0  0  0  0  0  0  0  0
   12.1614    0.6214   24.5689 C   0  0  0  0  0  0  0  0  0  0  0  0
   11.3794    1.3761   23.7290 C   0  0  0  0  0  0  0  0  0  0  0  0
    5.8300    0.9190   18.6970 C   0  0  0  0  0  0  0  0  0  0  0  0
    6.1790    0.5730   19.9990 C   0  0  0  0  0  0  0  0  0  0  0  0
    9.3350   -1.0880   23.5010 C   0  0  0  0  0  0  0  0  0  0  0  0
    9.3070   -3.5340   24.8780 C   0  0  0  0  0  0  0  0  0  0  0  0
    9.0420    0.3700   21.5280 C   0  0  0  0  0  0  0  0  0  0  0  0
   14.6267    0.5248   25.0067 C   0  0  0  0  0  0  0  0  0  0  0  0
    8.8720   -4.6805   26.9013 C   0  0  0  0  0  0  0  0  0  0  0  0
    9.8870    1.3260   23.5730 C   0  0  0  0  0  0  0  0  0  0  0  0
    8.1890   -0.7180   20.8700 C   0  0  0  0  0  0  0  0  0  0  0  0
   13.5560    2.0002   23.4280 N   0  0  0  0  0  0  0  0  0  0  0  0
    6.7580    0.3810   17.8350 N   0  0  0  0  0  0  0  0  0  0  0  0
    7.6390   -0.2680   18.5410 N   0  0  0  0  0  0  0  0  0  0  0  0
   13.4442    1.0306   24.3518 N   0  0  0  0  0  0  0  0  0  0  0  0
    7.3170   -0.1610   19.8550 N   0  0  0  0  0  0  0  0  0  0  0  0
    9.4560    0.1560   22.8130 N   0  0  0  0  0  0  0  0  0  0  0  0
    9.2690    1.4140   20.9380 O   0  0  0  0  0  0  0  0  0  0  0  0
    9.2555   -4.7124   25.5274 O   0  0  0  0  0  0  0  0  0  0  0  0
    3.0136    2.6524   19.3909 H   0  0  0  0  0  0  0  0  0  0  0  0
    3.6477    2.0141   21.6817 H   0  0  0  0  0  0  0  0  0  0  0  0
    4.4041    1.9739   17.4524 H   0  0  0  0  0  0  0  0  0  0  0  0
    5.7107    0.6909   22.1141 H   0  0  0  0  0  0  0  0  0  0  0  0
    8.9221   -0.1995   25.4231 H   0  0  0  0  0  0  0  0  0  0  0  0
   10.0642   -2.2347   21.8253 H   0  0  0  0  0  0  0  0  0  0  0  0
    8.6902   -2.3588   26.5805 H   0  0  0  0  0  0  0  0  0  0  0  0
    9.9254   -4.3921   22.9961 H   0  0  0  0  0  0  0  0  0  0  0  0
   12.0895    2.9562   22.2987 H   0  0  0  0  0  0  0  0  0  0  0  0
   11.9202   -0.1518   25.2857 H   0  0  0  0  0  0  0  0  0  0  0  0
   15.0068   -0.3132   24.4165 H   0  0  0  0  0  0  0  0  0  0  0  0
   15.3758    1.3189   25.0698 H   0  0  0  0  0  0  0  0  0  0  0  0
   14.3676    0.1958   26.0170 H   0  0  0  0  0  0  0  0  0  0  0  0
    8.8711   -5.6964   27.3038 H   0  0  0  0  0  0  0  0  0  0  0  0
    7.8758   -4.2402   26.9923 H   0  0  0  0  0  0  0  0  0  0  0  0
    9.5894   -4.0716   27.4566 H   0  0  0  0  0  0  0  0  0  0  0  0
    9.3974    1.2912   24.5523 H   0  0  0  0  0  0  0  0  0  0  0  0
    9.5159    2.2168   23.0554 H   0  0  0  0  0  0  0  0  0  0  0  0
    8.8255   -1.4531   20.3835 H   0  0  0  0  0  0  0  0  0  0  0  0
    7.5533   -1.1948   21.6123 H   0  0  0  0  0  0  0  0  0  0  0  0
  1  2  1  0  0  0  0
  1  3  2  0  0  0  0
  2  4  2  0  0  0  0
  3 12  1  0  0  0  0
  4 13  1  0  0  0  0
  5  7  2  0  0  0  0
  5 14  1  0  0  0  0
  6  8  1  0  0  0  0
  6 14  2  0  0  0  0
  7 15  1  0  0  0  0
  8 15  2  0  0  0  0
  9 11  1  0  0  0  0
  9 21  2  0  0  0  0
 10 11  2  0  0  0  0
 10 24  1  0  0  0  0
 11 19  1  0  0  0  0
 12 13  2  0  0  0  0
 12 22  1  0  0  0  0
 13 25  1  0  0  0  0
 14 26  1  0  0  0  0
 15 28  1  0  0  0  0
 16 20  1  0  0  0  0
 16 26  1  0  0  0  0
 16 27  2  0  0  0  0
 17 24  1  0  0  0  0
 18 28  1  0  0  0  0
 19 26  1  0  0  0  0
 20 25  1  0  0  0  0
 21 24  1  0  0  0  0
 22 23  2  0  0  0  0
 23 25  1  0  0  0  0
  1 29  1  0  0  0  0
  2 30  1  0  0  0  0
  3 31  1  0  0  0  0
  4 32  1  0  0  0  0
  5 33  1  0  0  0  0
  6 34  1  0  0  0  0
  7 35  1  0  0  0  0
  8 36  1  0  0  0  0
  9 37  1  0  0  0  0
 10 38  1  0  0  0  0
 17 39  1  0  0  0  0
 17 40  1  0  0  0  0
 17 41  1  0  0  0  0
 18 42  1  0  0  0  0
 18 43  1  0  0  0  0
 18 44  1  0  0  0  0
 19 45  1  0  0  0  0
 19 46  1  0  0  0  0
 20 47  1  0  0  0  0
 20 48  1  0  0  0  0
M  END
> <clash_score>
0.6199406247098616

> <docking_score>
-8.786742210388184

> <overlap_score>
0.9605908989906311

$$$$
BENZO_354_1
  -OEChem-08222022203D

 48 51  0     0  0  0  0  0  0999 V2000
    3.9160    2.0630   19.5520 C   0  0  0  0  0  0  0  0  0  0  0  0
    4.2750    1.7050   20.8490 C   0  0  0  0  0  0  0  0  0  0  0  0
   13.4006    0.5725   24.7805 C   0  0  0  0  0  0  0  0  0  0  0  0
   12.0141    0.5273   24.6359 C   0  0  0  0  0  0  0  0  0  0  0  0
    4.6890    1.6810   18.4640 C   0  0  0  0  0  0  0  0  0  0  0  0
    5.4210    0.9600   21.0930 C   0  0  0  0  0  0  0  0  0  0  0  0
    9.0720   -1.1280   24.8640 C   0  0  0  0  0  0  0  0  0  0  0  0
    9.7200   -2.2600   22.8630 C   0  0  0  0  0  0  0  0  0  0  0  0
    8.9960   -2.3380   25.5320 C   0  0  0  0  0  0  0  0  0  0  0  0
    9.6730   -3.4710   23.5300 C   0  0  0  0  0  0  0  0  0  0  0  0
   14.1526    1.4666   24.0184 C   0  0  0  0  0  0  0  0  0  0  0  0
   12.1314    2.2702   22.9668 C   0  0  0  0  0  0  0  0  0  0  0  0
   11.3794    1.3761   23.7290 C   0  0  0  0  0  0  0  0  0  0  0  0
    5.8300    0.9190   18.6970 C   0  0  0  0  0  0  0  0  0  0  0  0
    6.1790    0.5730   19.9990 C   0  0  0  0  0  0  0  0  0  0  0  0
    9.3350   -1.0880   23.5010 C   0  0  0  0  0  0  0  0  0  0  0  0
    9.3070   -3.5340   24.8780 C   0  0  0  0  0  0  0  0  0  0  0  0
   13.5180    2.3154   23.1115 C   0  0  0  0  0  0  0  0  0  0  0  0
    9.0420    0.3700   21.5280 C   0  0  0  0  0  0  0  0  0  0  0  0
    8.8720   -4.6805   26.9013 C   0  0  0  0  0  0  0  0  0  0  0  0
    9.8870    1.3260   23.5730 C   0  0  0  0  0  0  0  0  0  0  0  0
    8.1890   -0.7180   20.8700 C   0  0  0  0  0  0  0  0  0  0  0  0
    6.7580    0.3810   17.8350 N   0  0  0  0  0  0  0  0  0  0  0  0
    7.6390   -0.2680   18.5410 N   0  0  0  0  0  0  0  0  0  0  0  0
    7.3170   -0.1610   19.8550 N   0  0  0  0  0  0  0  0  0  0  0  0
    9.4560    0.1560   22.8130 N   0  0  0  0  0  0  0  0  0  0  0  0
    9.2690    1.4140   20.9380 O   0  0  0  0  0  0  0  0  0  0  0  0
    9.2555   -4.7124   25.5274 O   0  0  0  0  0  0  0  0  0  0  0  0
   14.4463    3.4175   22.1707 Cl  0  0  0  0  0  0  0  0  0  0  0  0
    3.0136    2.6524   19.3909 H   0  0  0  0  0  0  0  0  0  0  0  0
    3.6477    2.0141   21.6817 H   0  0  0  0  0  0  0  0  0  0  0  0
   13.8945   -0.0888   25.4867 H   0  0  0  0  0  0  0  0  0  0  0  0
   11.4361   -0.1726   25.2338 H   0  0  0  0  0  0  0  0  0  0  0  0
    4.4041    1.9739   17.4524 H   0  0  0  0  0  0  0  0  0  0  0  0
    5.7107    0.6909   22.1141 H   0  0  0  0  0  0  0  0  0  0  0  0
    8.9221   -0.1995   25.4231 H   0  0  0  0  0  0  0  0  0  0  0  0
   10.0642   -2.2347   21.8253 H   0  0  0  0  0  0  0  0  0  0  0  0
    8.6902   -2.3588   26.5805 H   0  0  0  0  0  0  0  0  0  0  0  0
    9.9254   -4.3921   22.9961 H   0  0  0  0  0  0  0  0  0  0  0  0
   15.2326    1.4907   24.1414 H   0  0  0  0  0  0  0  0  0  0  0  0
   11.6318    2.9303   22.2615 H   0  0  0  0  0  0  0  0  0  0  0  0
    8.8711   -5.6964   27.3038 H   0  0  0  0  0  0  0  0  0  0  0  0
    7.8758   -4.2402   26.9923 H   0  0  0  0  0  0  0  0  0  0  0  0
    9.5894   -4.0716   27.4566 H   0  0  0  0  0  0  0  0  0  0  0  0
    9.3974    1.2912   24.5523 H   0  0  0  0  0  0  0  0  0  0  0  0
    9.5159    2.2168   23.0554 H   0  0  0  0  0  0  0  0  0  0  0  0
    8.8255   -1.4531   20.3835 H   0  0  0  0  0  0  0  0  0  0  0  0
    7.5533   -1.1948   21.6123 H   0  0  0  0  0  0  0  0  0  0  0  0
  1  2  1  0  0  0  0
  1  5  2  0  0  0  0
  2  6  2  0  0  0  0
  3  4  2  0  0  0  0
  3 11  1  0  0  0  0
  4 13  1  0  0  0  0
  5 14  1  0  0  0  0
  6 15  1  0  0  0  0
  7  9  2  0  0  0  0
  7 16  1  0  0  0  0
  8 10  1  0  0  0  0
  8 16  2  0  0  0  0
  9 17  1  0  0  0  0
 10 17  2  0  0  0  0
 11 18  2  0  0  0  0
 12 13  2  0  0  0  0
 12 18  1  0  0  0  0
 13 21  1  0  0  0  0
 14 15  2  0  0  0  0
 14 23  1  0  0  0  0
 15 25  1  0  0  0  0
 16 26  1  0  0  0  0
 17 28  1  0  0  0  0
 18 29  1  0  0  0  0
 19 22  1  0  0  0  0
 19 26  1  0  0  0  0
 19 27  2  0  0  0  0
 20 28  1  0  0  0  0
 21 26  1  0  0  0  0
 22 25  1  0  0  0  0
 23 24  2  0  0  0  0
 24 25  1  0  0  0  0
  1 30  1  0  0  0  0
  2 31  1  0  0  0  0
  3 32  1  0  0  0  0
  4 33  1  0  0  0  0
  5 34  1  0  0  0  0
  6 35  1  0  0  0  0
  7 36  1  0  0  0  0
  8 37  1  0  0  0  0
  9 38  1  0  0  0  0
 10 39  1  0  0  0  0
 11 40  1  0  0  0  0
 12 41  1  0  0  0  0
 20 42  1  0  0  0  0
 20 43  1  0  0  0  0
 20 44  1  0  0  0  0
 21 45  1  0  0  0  0
 21 46  1  0  0  0  0
 22 47  1  0  0  0  0
 22 48  1  0  0  0  0
M  END
> <clash_score>
0

> <docking_score>
-8.215703964233398

> <overlap_score>
0.9730234742164612

$$$$
BENZO_357_1
  -OEChem-08222022203D

 58 62  0     0  0  0  0  0  0999 V2000
   14.1526    1.4694   24.0176 C   0  0  0  0  0  0  0  0  0  0  0  0
   13.3741    0.8121   24.9701 C   0  0  0  0  0  0  0  0  0  0  0  0
   13.5446    2.0802   22.9208 C   0  0  0  0  0  0  0  0  0  0  0  0
    3.9160    2.0630   19.5520 C   0  0  0  0  0  0  0  0  0  0  0  0
    4.2750    1.7050   20.8490 C   0  0  0  0  0  0  0  0  0  0  0  0
   11.9875    0.7654   24.8258 C   0  0  0  0  0  0  0  0  0  0  0  0
   12.1580    2.0335   22.7765 C   0  0  0  0  0  0  0  0  0  0  0  0
    4.6890    1.6810   18.4640 C   0  0  0  0  0  0  0  0  0  0  0  0
    5.4210    0.9600   21.0930 C   0  0  0  0  0  0  0  0  0  0  0  0
    8.9960   -2.3380   25.5320 C   0  0  0  0  0  0  0  0  0  0  0  0
    9.6730   -3.4710   23.5300 C   0  0  0  0  0  0  0  0  0  0  0  0
    9.0720   -1.1280   24.8640 C   0  0  0  0  0  0  0  0  0  0  0  0
    9.7200   -2.2600   22.8630 C   0  0  0  0  0  0  0  0  0  0  0  0
   11.3794    1.3761   23.7290 C   0  0  0  0  0  0  0  0  0  0  0  0
    5.8300    0.9190   18.6970 C   0  0  0  0  0  0  0  0  0  0  0  0
    6.1790    0.5730   19.9990 C   0  0  0  0  0  0  0  0  0  0  0  0
    9.3070   -3.5340   24.8780 C   0  0  0  0  0  0  0  0  0  0  0  0
    9.3350   -1.0880   23.5010 C   0  0  0  0  0  0  0  0  0  0  0  0
    8.3597   -5.0073   26.6307 C   0  0  0  0  0  0  0  0  0  0  0  0
    9.0420    0.3700   21.5280 C   0  0  0  0  0  0  0  0  0  0  0  0
    8.4720   -6.3981   27.2296 C   0  0  0  0  0  0  0  0  0  0  0  0
    9.9252   -6.7605   27.4803 C   0  0  0  0  0  0  0  0  0  0  0  0
   10.7833   -6.6094   26.2282 C   0  0  0  0  0  0  0  0  0  0  0  0
   10.0539   -5.9099   25.0823 C   0  0  0  0  0  0  0  0  0  0  0  0
    9.8870    1.3260   23.5730 C   0  0  0  0  0  0  0  0  0  0  0  0
    8.1890   -0.7180   20.8700 C   0  0  0  0  0  0  0  0  0  0  0  0
    6.7580    0.3810   17.8350 N   0  0  0  0  0  0  0  0  0  0  0  0
    7.6390   -0.2680   18.5410 N   0  0  0  0  0  0  0  0  0  0  0  0
    7.3170   -0.1610   19.8550 N   0  0  0  0  0  0  0  0  0  0  0  0
    9.2529   -4.7797   25.5644 N   0  0  0  0  0  0  0  0  0  0  0  0
    9.4560    0.1560   22.8130 N   0  0  0  0  0  0  0  0  0  0  0  0
    7.4954   -4.2356   27.0449 O   0  0  0  0  0  0  0  0  0  0  0  0
    9.2690    1.4140   20.9380 O   0  0  0  0  0  0  0  0  0  0  0  0
   15.2322    1.5068   24.1308 H   0  0  0  0  0  0  0  0  0  0  0  0
   13.8473    0.3374   25.8248 H   0  0  0  0  0  0  0  0  0  0  0  0
   14.1503    2.5930   22.1795 H   0  0  0  0  0  0  0  0  0  0  0  0
    3.0136    2.6524   19.3909 H   0  0  0  0  0  0  0  0  0  0  0  0
    3.6477    2.0141   21.6817 H   0  0  0  0  0  0  0  0  0  0  0  0
   11.3889    0.2508   25.5729 H   0  0  0  0  0  0  0  0  0  0  0  0
   11.6930    2.5120   21.9187 H   0  0  0  0  0  0  0  0  0  0  0  0
    4.4041    1.9739   17.4524 H   0  0  0  0  0  0  0  0  0  0  0  0
    5.7107    0.6909   22.1141 H   0  0  0  0  0  0  0  0  0  0  0  0
    8.6895   -2.3529   26.5807 H   0  0  0  0  0  0  0  0  0  0  0  0
    9.9262   -4.3897   22.9916 H   0  0  0  0  0  0  0  0  0  0  0  0
    8.9224   -0.1998   25.4238 H   0  0  0  0  0  0  0  0  0  0  0  0
   10.0649   -2.2343   21.8258 H   0  0  0  0  0  0  0  0  0  0  0  0
    7.9325   -6.4148   28.1641 H   0  0  0  0  0  0  0  0  0  0  0  0
    8.0254   -7.0920   26.5333 H   0  0  0  0  0  0  0  0  0  0  0  0
   10.3387   -6.1267   28.2923 H   0  0  0  0  0  0  0  0  0  0  0  0
    9.9904   -7.8023   27.8537 H   0  0  0  0  0  0  0  0  0  0  0  0
   11.7037   -6.0404   26.4771 H   0  0  0  0  0  0  0  0  0  0  0  0
   11.1411   -7.6068   25.8918 H   0  0  0  0  0  0  0  0  0  0  0  0
   10.7782   -5.5162   24.3756 H   0  0  0  0  0  0  0  0  0  0  0  0
    9.4042   -6.6189   24.5807 H   0  0  0  0  0  0  0  0  0  0  0  0
    9.3974    1.2912   24.5523 H   0  0  0  0  0  0  0  0  0  0  0  0
    9.5159    2.2168   23.0554 H   0  0  0  0  0  0  0  0  0  0  0  0
    8.8326   -1.4554   20.3912 H   0  0  0  0  0  0  0  0  0  0  0  0
    7.5604   -1.1971   21.6201 H   0  0  0  0  0  0  0  0  0  0  0  0
  1  2  1  0  0  0  0
  1  3  2  0  0  0  0
  2  6  2  0  0  0  0
  3  7  1  0  0  0  0
  4  5  1  0  0  0  0
  4  8  2  0  0  0  0
  5  9  2  0  0  0  0
  6 14  1  0  0  0  0
  7 14  2  0  0  0  0
  8 15  1  0  0  0  0
  9 16  1  0  0  0  0
 10 12  2  0  0  0  0
 10 17  1  0  0  0  0
 11 13  1  0  0  0  0
 11 17  2  0  0  0  0
 12 18  1  0  0  0  0
 13 18  2  0  0  0  0
 14 25  1  0  0  0  0
 15 16  2  0  0  0  0
 15 27  1  0  0  0  0
 16 29  1  0  0  0  0
 17 30  1  0  0  0  0
 18 31  1  0  0  0  0
 19 21  1  0  0  0  0
 19 30  1  0  0  0  0
 19 32  2  0  0  0  0
 20 26  1  0  0  0  0
 20 31  1  0  0  0  0
 20 33  2  0  0  0  0
 21 22  1  0  0  0  0
 22 23  1  0  0  0  0
 23 24  1  0  0  0  0
 24 30  1  0  0  0  0
 25 31  1  0  0  0  0
 26 29  1  0  0  0  0
 27 28  2  0  0  0  0
 28 29  1  0  0  0  0
  1 34  1  0  0  0  0
  2 35  1  0  0  0  0
  3 36  1  0  0  0  0
  4 37  1  0  0  0  0
  5 38  1  0  0  0  0
  6 39  1  0  0  0  0
  7 40  1  0  0  0  0
  8 41  1  0  0  0  0
  9 42  1  0  0  0  0
 10 43  1  0  0  0  0
 11 44  1  0  0  0  0
 12 45  1  0  0  0  0
 13 46  1  0  0  0  0
 21 47  1  0  0  0  0
 21 48  1  0  0  0  0
 22 49  1  0  0  0  0
 22 50  1  0  0  0  0
 23 51  1  0  0  0  0
 23 52  1  0  0  0  0
 24 53  1  0  0  0  0
 24 54  1  0  0  0  0
 25 55  1  0  0  0  0
 25 56  1  0  0  0  0
 26 57  1  0  0  0  0
 26 58  1  0  0  0  0
M  END
> <clash_score>
0.7790751876189459

> <docking_score>
-8.43835735321045

> <overlap_score>
1.0041024684906006

$$$$
BENZO_356_1
  -OEChem-08222022203D

 55 59  0     0  0  0  0  0  0999 V2000
    3.9160    2.0630   19.5520 C   0  0  0  0  0  0  0  0  0  0  0  0
    4.2750    1.7050   20.8490 C   0  0  0  0  0  0  0  0  0  0  0  0
    4.6890    1.6810   18.4640 C   0  0  0  0  0  0  0  0  0  0  0  0
    5.4210    0.9600   21.0930 C   0  0  0  0  0  0  0  0  0  0  0  0
    8.9960   -2.3380   25.5320 C   0  0  0  0  0  0  0  0  0  0  0  0
    9.6730   -3.4710   23.5300 C   0  0  0  0  0  0  0  0  0  0  0  0
    9.0720   -1.1280   24.8640 C   0  0  0  0  0  0  0  0  0  0  0  0
    9.7200   -2.2600   22.8630 C   0  0  0  0  0  0  0  0  0  0  0  0
   12.2913    1.4279   22.6355 C   0  0  0  0  0  0  0  0  0  0  0  0
   13.6024    1.4662   23.0564 C   0  0  0  0  0  0  0  0  0  0  0  0
   12.0284    1.3764   24.9443 C   0  0  0  0  0  0  0  0  0  0  0  0
   11.3794    1.3761   23.7290 C   0  0  0  0  0  0  0  0  0  0  0  0
    5.8300    0.9190   18.6970 C   0  0  0  0  0  0  0  0  0  0  0  0
    6.1790    0.5730   19.9990 C   0  0  0  0  0  0  0  0  0  0  0  0
    9.3070   -3.5340   24.8780 C   0  0  0  0  0  0  0  0  0  0  0  0
    9.3350   -1.0880   23.5010 C   0  0  0  0  0  0  0  0  0  0  0  0
    8.3596   -5.0074   26.6308 C   0  0  0  0  0  0  0  0  0  0  0  0
    9.0420    0.3700   21.5280 C   0  0  0  0  0  0  0  0  0  0  0  0
    8.4579   -6.4047   27.2169 C   0  0  0  0  0  0  0  0  0  0  0  0
    8.4717   -7.4504   26.1159 C   0  0  0  0  0  0  0  0  0  0  0  0
    9.5645   -7.1893   25.0842 C   0  0  0  0  0  0  0  0  0  0  0  0
   10.2327   -5.8252   25.2501 C   0  0  0  0  0  0  0  0  0  0  0  0
    9.8870    1.3260   23.5730 C   0  0  0  0  0  0  0  0  0  0  0  0
    8.1890   -0.7180   20.8700 C   0  0  0  0  0  0  0  0  0  0  0  0
    6.7580    0.3810   17.8350 N   0  0  0  0  0  0  0  0  0  0  0  0
    7.6390   -0.2680   18.5410 N   0  0  0  0  0  0  0  0  0  0  0  0
    7.3170   -0.1610   19.8550 N   0  0  0  0  0  0  0  0  0  0  0  0
    9.2529   -4.7798   25.5645 N   0  0  0  0  0  0  0  0  0  0  0  0
    9.4560    0.1560   22.8130 N   0  0  0  0  0  0  0  0  0  0  0  0
    7.5990   -4.1865   27.1424 O   0  0  0  0  0  0  0  0  0  0  0  0
    9.2690    1.4140   20.9380 O   0  0  0  0  0  0  0  0  0  0  0  0
   13.7301    1.4394   24.7638 S   0  0  0  0  0  0  0  0  0  0  0  0
    3.0136    2.6524   19.3909 H   0  0  0  0  0  0  0  0  0  0  0  0
    3.6477    2.0141   21.6817 H   0  0  0  0  0  0  0  0  0  0  0  0
    4.4041    1.9739   17.4524 H   0  0  0  0  0  0  0  0  0  0  0  0
    5.7107    0.6909   22.1141 H   0  0  0  0  0  0  0  0  0  0  0  0
    8.6895   -2.3529   26.5807 H   0  0  0  0  0  0  0  0  0  0  0  0
    9.9262   -4.3897   22.9916 H   0  0  0  0  0  0  0  0  0  0  0  0
    8.9224   -0.1998   25.4238 H   0  0  0  0  0  0  0  0  0  0  0  0
   10.0649   -2.2343   21.8258 H   0  0  0  0  0  0  0  0  0  0  0  0
   12.0045    1.4365   21.5915 H   0  0  0  0  0  0  0  0  0  0  0  0
   14.4914    1.5078   22.4431 H   0  0  0  0  0  0  0  0  0  0  0  0
   11.5886    1.3416   25.9314 H   0  0  0  0  0  0  0  0  0  0  0  0
    9.3706   -6.4745   27.7885 H   0  0  0  0  0  0  0  0  0  0  0  0
    7.6055   -6.5497   27.8636 H   0  0  0  0  0  0  0  0  0  0  0  0
    8.6095   -8.4604   26.5550 H   0  0  0  0  0  0  0  0  0  0  0  0
    7.4835   -7.4763   25.6142 H   0  0  0  0  0  0  0  0  0  0  0  0
   10.3359   -7.9850   25.1531 H   0  0  0  0  0  0  0  0  0  0  0  0
    9.1458   -7.2796   24.0582 H   0  0  0  0  0  0  0  0  0  0  0  0
   10.9408   -5.8640   26.0725 H   0  0  0  0  0  0  0  0  0  0  0  0
   10.7521   -5.5631   24.3347 H   0  0  0  0  0  0  0  0  0  0  0  0
    9.3974    1.2912   24.5523 H   0  0  0  0  0  0  0  0  0  0  0  0
    9.5159    2.2168   23.0554 H   0  0  0  0  0  0  0  0  0  0  0  0
    8.8326   -1.4554   20.3912 H   0  0  0  0  0  0  0  0  0  0  0  0
    7.5604   -1.1971   21.6201 H   0  0  0  0  0  0  0  0  0  0  0  0
  1  2  1  0  0  0  0
  1  3  2  0  0  0  0
  2  4  2  0  0  0  0
  3 13  1  0  0  0  0
  4 14  1  0  0  0  0
  5  7  2  0  0  0  0
  5 15  1  0  0  0  0
  6  8  1  0  0  0  0
  6 15  2  0  0  0  0
  7 16  1  0  0  0  0
  8 16  2  0  0  0  0
  9 10  2  0  0  0  0
  9 12  1  0  0  0  0
 10 32  1  0  0  0  0
 11 12  2  0  0  0  0
 11 32  1  0  0  0  0
 12 23  1  0  0  0  0
 13 14  2  0  0  0  0
 13 25  1  0  0  0  0
 14 27  1  0  0  0  0
 15 28  1  0  0  0  0
 16 29  1  0  0  0  0
 17 19  1  0  0  0  0
 17 28  1  0  0  0  0
 17 30  2  0  0  0  0
 18 24  1  0  0  0  0
 18 29  1  0  0  0  0
 18 31  2  0  0  0  0
 19 20  1  0  0  0  0
 20 21  1  0  0  0  0
 21 22  1  0  0  0  0
 22 28  1  0  0  0  0
 23 29  1  0  0  0  0
 24 27  1  0  0  0  0
 25 26  2  0  0  0  0
 26 27  1  0  0  0  0
  1 33  1  0  0  0  0
  2 34  1  0  0  0  0
  3 35  1  0  0  0  0
  4 36  1  0  0  0  0
  5 37  1  0  0  0  0
  6 38  1  0  0  0  0
  7 39  1  0  0  0  0
  8 40  1  0  0  0  0
  9 41  1  0  0  0  0
 10 42  1  0  0  0  0
 11 43  1  0  0  0  0
 19 44  1  0  0  0  0
 19 45  1  0  0  0  0
 20 46  1  0  0  0  0
 20 47  1  0  0  0  0
 21 48  1  0  0  0  0
 21 49  1  0  0  0  0
 22 50  1  0  0  0  0
 22 51  1  0  0  0  0
 23 52  1  0  0  0  0
 23 53  1  0  0  0  0
 24 54  1  0  0  0  0
 24 55  1  0  0  0  0
M  END
> <clash_score>
0.6354466317061015

> <docking_score>
-8.353660583496094

> <overlap_score>
0.9878003001213074

$$$$
BENZO_361_1
  -OEChem-08222022203D

 57 61  0     0  0  0  0  0  0999 V2000
   14.1526    1.4694   24.0176 C   0  0  0  0  0  0  0  0  0  0  0  0
   13.3741    0.8121   24.9701 C   0  0  0  0  0  0  0  0  0  0  0  0
   13.5446    2.0802   22.9208 C   0  0  0  0  0  0  0  0  0  0  0  0
    3.9160    2.0630   19.5520 C   0  0  0  0  0  0  0  0  0  0  0  0
    4.2750    1.7050   20.8490 C   0  0  0  0  0  0  0  0  0  0  0  0
   11.9875    0.7654   24.8258 C   0  0  0  0  0  0  0  0  0  0  0  0
   12.1580    2.0335   22.7765 C   0  0  0  0  0  0  0  0  0  0  0  0
    4.6890    1.6810   18.4640 C   0  0  0  0  0  0  0  0  0  0  0  0
    5.4210    0.9600   21.0930 C   0  0  0  0  0  0  0  0  0  0  0  0
    8.9960   -2.3380   25.5320 C   0  0  0  0  0  0  0  0  0  0  0  0
    9.6730   -3.4710   23.5300 C   0  0  0  0  0  0  0  0  0  0  0  0
    9.0720   -1.1280   24.8640 C   0  0  0  0  0  0  0  0  0  0  0  0
    9.7200   -2.2600   22.8630 C   0  0  0  0  0  0  0  0  0  0  0  0
   11.3794    1.3761   23.7290 C   0  0  0  0  0  0  0  0  0  0  0  0
    5.8300    0.9190   18.6970 C   0  0  0  0  0  0  0  0  0  0  0  0
    6.1790    0.5730   19.9990 C   0  0  0  0  0  0  0  0  0  0  0  0
    9.3070   -3.5340   24.8780 C   0  0  0  0  0  0  0  0  0  0  0  0
    9.3350   -1.0880   23.5010 C   0  0  0  0  0  0  0  0  0  0  0  0
    9.0420    0.3700   21.5280 C   0  0  0  0  0  0  0  0  0  0  0  0
   10.0771   -5.0255   26.7193 C   0  0  0  0  0  0  0  0  0  0  0  0
    8.0927   -5.6195   25.4071 C   0  0  0  0  0  0  0  0  0  0  0  0
    9.1933   -4.9427   27.9592 C   0  0  0  0  0  0  0  0  0  0  0  0
    7.2756   -5.5290   26.6967 C   0  0  0  0  0  0  0  0  0  0  0  0
    9.8870    1.3260   23.5730 C   0  0  0  0  0  0  0  0  0  0  0  0
    8.1890   -0.7180   20.8700 C   0  0  0  0  0  0  0  0  0  0  0  0
    6.7580    0.3810   17.8350 N   0  0  0  0  0  0  0  0  0  0  0  0
    7.6390   -0.2680   18.5410 N   0  0  0  0  0  0  0  0  0  0  0  0
    7.3170   -0.1610   19.8550 N   0  0  0  0  0  0  0  0  0  0  0  0
    9.2563   -4.7368   25.5413 N   0  0  0  0  0  0  0  0  0  0  0  0
    9.4560    0.1560   22.8130 N   0  0  0  0  0  0  0  0  0  0  0  0
    9.2690    1.4140   20.9380 O   0  0  0  0  0  0  0  0  0  0  0  0
    8.0883   -5.8459   27.8325 O   0  0  0  0  0  0  0  0  0  0  0  0
   15.2322    1.5068   24.1308 H   0  0  0  0  0  0  0  0  0  0  0  0
   13.8473    0.3374   25.8248 H   0  0  0  0  0  0  0  0  0  0  0  0
   14.1503    2.5930   22.1795 H   0  0  0  0  0  0  0  0  0  0  0  0
    3.0136    2.6524   19.3909 H   0  0  0  0  0  0  0  0  0  0  0  0
    3.6477    2.0141   21.6817 H   0  0  0  0  0  0  0  0  0  0  0  0
   11.3889    0.2508   25.5729 H   0  0  0  0  0  0  0  0  0  0  0  0
   11.6930    2.5120   21.9187 H   0  0  0  0  0  0  0  0  0  0  0  0
    4.4042    1.9739   17.4524 H   0  0  0  0  0  0  0  0  0  0  0  0
    5.7107    0.6909   22.1141 H   0  0  0  0  0  0  0  0  0  0  0  0
    8.6905   -2.3533   26.5810 H   0  0  0  0  0  0  0  0  0  0  0  0
    9.9266   -4.3896   22.9917 H   0  0  0  0  0  0  0  0  0  0  0  0
    8.9233   -0.1992   25.4232 H   0  0  0  0  0  0  0  0  0  0  0  0
   10.0650   -2.2330   21.8256 H   0  0  0  0  0  0  0  0  0  0  0  0
   10.8985   -4.3115   26.8085 H   0  0  0  0  0  0  0  0  0  0  0  0
   10.4915   -6.0334   26.6323 H   0  0  0  0  0  0  0  0  0  0  0  0
    8.4327   -6.6456   25.2620 H   0  0  0  0  0  0  0  0  0  0  0  0
    7.4725   -5.3241   24.5619 H   0  0  0  0  0  0  0  0  0  0  0  0
    9.7636   -5.2398   28.8419 H   0  0  0  0  0  0  0  0  0  0  0  0
    8.8236   -3.9268   28.1248 H   0  0  0  0  0  0  0  0  0  0  0  0
    6.8339   -4.5337   26.8232 H   0  0  0  0  0  0  0  0  0  0  0  0
    6.4550   -6.2521   26.6643 H   0  0  0  0  0  0  0  0  0  0  0  0
    9.3974    1.2912   24.5523 H   0  0  0  0  0  0  0  0  0  0  0  0
    9.5159    2.2168   23.0554 H   0  0  0  0  0  0  0  0  0  0  0  0
    8.8326   -1.4554   20.3912 H   0  0  0  0  0  0  0  0  0  0  0  0
    7.5604   -1.1971   21.6201 H   0  0  0  0  0  0  0  0  0  0  0  0
  1  2  1  0  0  0  0
  1  3  2  0  0  0  0
  2  6  2  0  0  0  0
  3  7  1  0  0  0  0
  4  5  1  0  0  0  0
  4  8  2  0  0  0  0
  5  9  2  0  0  0  0
  6 14  1  0  0  0  0
  7 14  2  0  0  0  0
  8 15  1  0  0  0  0
  9 16  1  0  0  0  0
 10 12  2  0  0  0  0
 10 17  1  0  0  0  0
 11 13  1  0  0  0  0
 11 17  2  0  0  0  0
 12 18  1  0  0  0  0
 13 18  2  0  0  0  0
 14 24  1  0  0  0  0
 15 16  2  0  0  0  0
 15 26  1  0  0  0  0
 16 28  1  0  0  0  0
 17 29  1  0  0  0  0
 18 30  1  0  0  0  0
 19 25  1  0  0  0  0
 19 30  1  0  0  0  0
 19 31  2  0  0  0  0
 20 22  1  0  0  0  0
 20 29  1  0  0  0  0
 21 23  1  0  0  0  0
 21 29  1  0  0  0  0
 22 32  1  0  0  0  0
 23 32  1  0  0  0  0
 24 30  1  0  0  0  0
 25 28  1  0  0  0  0
 26 27  2  0  0  0  0
 27 28  1  0  0  0  0
  1 33  1  0  0  0  0
  2 34  1  0  0  0  0
  3 35  1  0  0  0  0
  4 36  1  0  0  0  0
  5 37  1  0  0  0  0
  6 38  1  0  0  0  0
  7 39  1  0  0  0  0
  8 40  1  0  0  0  0
  9 41  1  0  0  0  0
 10 42  1  0  0  0  0
 11 43  1  0  0  0  0
 12 44  1  0  0  0  0
 13 45  1  0  0  0  0
 20 46  1  0  0  0  0
 20 47  1  0  0  0  0
 21 48  1  0  0  0  0
 21 49  1  0  0  0  0
 22 50  1  0  0  0  0
 22 51  1  0  0  0  0
 23 52  1  0  0  0  0
 23 53  1  0  0  0  0
 24 54  1  0  0  0  0
 24 55  1  0  0  0  0
 25 56  1  0  0  0  0
 25 57  1  0  0  0  0
M  END
> <clash_score>
0

> <docking_score>
-9.419473648071289

> <overlap_score>
0.990332305431366

$$$$
BENZO_358_1
  -OEChem-08222022203D

 58 62  0     0  0  0  0  0  0999 V2000
    3.9160    2.0630   19.5520 C   0  0  0  0  0  0  0  0  0  0  0  0
    4.2750    1.7050   20.8490 C   0  0  0  0  0  0  0  0  0  0  0  0
   13.4007    0.5725   24.7805 C   0  0  0  0  0  0  0  0  0  0  0  0
   12.0141    0.5273   24.6359 C   0  0  0  0  0  0  0  0  0  0  0  0
    4.6890    1.6810   18.4640 C   0  0  0  0  0  0  0  0  0  0  0  0
    5.4210    0.9600   21.0930 C   0  0  0  0  0  0  0  0  0  0  0  0
    8.9960   -2.3380   25.5320 C   0  0  0  0  0  0  0  0  0  0  0  0
    9.6730   -3.4710   23.5300 C   0  0  0  0  0  0  0  0  0  0  0  0
    9.0720   -1.1280   24.8640 C   0  0  0  0  0  0  0  0  0  0  0  0
    9.7200   -2.2600   22.8630 C   0  0  0  0  0  0  0  0  0  0  0  0
   14.1526    1.4666   24.0184 C   0  0  0  0  0  0  0  0  0  0  0  0
   12.1314    2.2702   22.9668 C   0  0  0  0  0  0  0  0  0  0  0  0
   11.3794    1.3761   23.7290 C   0  0  0  0  0  0  0  0  0  0  0  0
    5.8300    0.9190   18.6970 C   0  0  0  0  0  0  0  0  0  0  0  0
    6.1790    0.5730   19.9990 C   0  0  0  0  0  0  0  0  0  0  0  0
    9.3070   -3.5340   24.8780 C   0  0  0  0  0  0  0  0  0  0  0  0
    9.3350   -1.0880   23.5010 C   0  0  0  0  0  0  0  0  0  0  0  0
   13.5180    2.3154   23.1115 C   0  0  0  0  0  0  0  0  0  0  0  0
    8.3597   -5.0073   26.6307 C   0  0  0  0  0  0  0  0  0  0  0  0
    9.0420    0.3700   21.5280 C   0  0  0  0  0  0  0  0  0  0  0  0
    8.4720   -6.3981   27.2296 C   0  0  0  0  0  0  0  0  0  0  0  0
    9.9252   -6.7605   27.4803 C   0  0  0  0  0  0  0  0  0  0  0  0
   10.7833   -6.6094   26.2282 C   0  0  0  0  0  0  0  0  0  0  0  0
   10.0539   -5.9099   25.0823 C   0  0  0  0  0  0  0  0  0  0  0  0
    9.8870    1.3260   23.5730 C   0  0  0  0  0  0  0  0  0  0  0  0
    8.1890   -0.7180   20.8700 C   0  0  0  0  0  0  0  0  0  0  0  0
    6.7580    0.3810   17.8350 N   0  0  0  0  0  0  0  0  0  0  0  0
    7.6390   -0.2680   18.5410 N   0  0  0  0  0  0  0  0  0  0  0  0
    7.3170   -0.1610   19.8550 N   0  0  0  0  0  0  0  0  0  0  0  0
    9.2529   -4.7797   25.5644 N   0  0  0  0  0  0  0  0  0  0  0  0
    9.4560    0.1560   22.8130 N   0  0  0  0  0  0  0  0  0  0  0  0
    7.4954   -4.2356   27.0449 O   0  0  0  0  0  0  0  0  0  0  0  0
    9.2690    1.4140   20.9380 O   0  0  0  0  0  0  0  0  0  0  0  0
   14.4463    3.4175   22.1707 Cl  0  0  0  0  0  0  0  0  0  0  0  0
    3.0136    2.6524   19.3909 H   0  0  0  0  0  0  0  0  0  0  0  0
    3.6477    2.0141   21.6817 H   0  0  0  0  0  0  0  0  0  0  0  0
   13.8945   -0.0888   25.4867 H   0  0  0  0  0  0  0  0  0  0  0  0
   11.4361   -0.1726   25.2338 H   0  0  0  0  0  0  0  0  0  0  0  0
    4.4041    1.9739   17.4524 H   0  0  0  0  0  0  0  0  0  0  0  0
    5.7107    0.6909   22.1141 H   0  0  0  0  0  0  0  0  0  0  0  0
    8.6895   -2.3529   26.5807 H   0  0  0  0  0  0  0  0  0  0  0  0
    9.9262   -4.3897   22.9916 H   0  0  0  0  0  0  0  0  0  0  0  0
    8.9224   -0.1998   25.4238 H   0  0  0  0  0  0  0  0  0  0  0  0
   10.0649   -2.2343   21.8258 H   0  0  0  0  0  0  0  0  0  0  0  0
   15.2326    1.4907   24.1414 H   0  0  0  0  0  0  0  0  0  0  0  0
   11.6318    2.9303   22.2615 H   0  0  0  0  0  0  0  0  0  0  0  0
    7.9325   -6.4148   28.1641 H   0  0  0  0  0  0  0  0  0  0  0  0
    8.0254   -7.0920   26.5333 H   0  0  0  0  0  0  0  0  0  0  0  0
   10.3387   -6.1267   28.2923 H   0  0  0  0  0  0  0  0  0  0  0  0
    9.9904   -7.8023   27.8537 H   0  0  0  0  0  0  0  0  0  0  0  0
   11.7037   -6.0404   26.4771 H   0  0  0  0  0  0  0  0  0  0  0  0
   11.1411   -7.6068   25.8918 H   0  0  0  0  0  0  0  0  0  0  0  0
   10.7782   -5.5162   24.3756 H   0  0  0  0  0  0  0  0  0  0  0  0
    9.4042   -6.6189   24.5807 H   0  0  0  0  0  0  0  0  0  0  0  0
    9.3974    1.2912   24.5523 H   0  0  0  0  0  0  0  0  0  0  0  0
    9.5159    2.2168   23.0554 H   0  0  0  0  0  0  0  0  0  0  0  0
    8.8326   -1.4554   20.3912 H   0  0  0  0  0  0  0  0  0  0  0  0
    7.5604   -1.1971   21.6201 H   0  0  0  0  0  0  0  0  0  0  0  0
  1  2  1  0  0  0  0
  1  5  2  0  0  0  0
  2  6  2  0  0  0  0
  3  4  2  0  0  0  0
  3 11  1  0  0  0  0
  4 13  1  0  0  0  0
  5 14  1  0  0  0  0
  6 15  1  0  0  0  0
  7  9  2  0  0  0  0
  7 16  1  0  0  0  0
  8 10  1  0  0  0  0
  8 16  2  0  0  0  0
  9 17  1  0  0  0  0
 10 17  2  0  0  0  0
 11 18  2  0  0  0  0
 12 13  2  0  0  0  0
 12 18  1  0  0  0  0
 13 25  1  0  0  0  0
 14 15  2  0  0  0  0
 14 27  1  0  0  0  0
 15 29  1  0  0  0  0
 16 30  1  0  0  0  0
 17 31  1  0  0  0  0
 18 34  1  0  0  0  0
 19 21  1  0  0  0  0
 19 30  1  0  0  0  0
 19 32  2  0  0  0  0
 20 26  1  0  0  0  0
 20 31  1  0  0  0  0
 20 33  2  0  0  0  0
 21 22  1  0  0  0  0
 22 23  1  0  0  0  0
 23 24  1  0  0  0  0
 24 30  1  0  0  0  0
 25 31  1  0  0  0  0
 26 29  1  0  0  0  0
 27 28  2  0  0  0  0
 28 29  1  0  0  0  0
  1 35  1  0  0  0  0
  2 36  1  0  0  0  0
  3 37  1  0  0  0  0
  4 38  1  0  0  0  0
  5 39  1  0  0  0  0
  6 40  1  0  0  0  0
  7 41  1  0  0  0  0
  8 42  1  0  0  0  0
  9 43  1  0  0  0  0
 10 44  1  0  0  0  0
 11 45  1  0  0  0  0
 12 46  1  0  0  0  0
 21 47  1  0  0  0  0
 21 48  1  0  0  0  0
 22 49  1  0  0  0  0
 22 50  1  0  0  0  0
 23 51  1  0  0  0  0
 23 52  1  0  0  0  0
 24 53  1  0  0  0  0
 24 54  1  0  0  0  0
 25 55  1  0  0  0  0
 25 56  1  0  0  0  0
 26 57  1  0  0  0  0
 26 58  1  0  0  0  0
M  END
> <clash_score>
0.7790751876189459

> <docking_score>
-7.575326919555664

> <overlap_score>
1.015157699584961

$$$$
BENZO_359_1
  -OEChem-08222022203D

 58 62  0     0  0  0  0  0  0999 V2000
    3.9160    2.0630   19.5520 C   0  0  0  0  0  0  0  0  0  0  0  0
    4.2750    1.7050   20.8490 C   0  0  0  0  0  0  0  0  0  0  0  0
    4.6890    1.6810   18.4640 C   0  0  0  0  0  0  0  0  0  0  0  0
    5.4210    0.9600   21.0930 C   0  0  0  0  0  0  0  0  0  0  0  0
    8.9960   -2.3380   25.5320 C   0  0  0  0  0  0  0  0  0  0  0  0
    9.6730   -3.4710   23.5300 C   0  0  0  0  0  0  0  0  0  0  0  0
    9.0720   -1.1280   24.8640 C   0  0  0  0  0  0  0  0  0  0  0  0
    9.7200   -2.2600   22.8630 C   0  0  0  0  0  0  0  0  0  0  0  0
   12.1233    1.3811   24.9242 C   0  0  0  0  0  0  0  0  0  0  0  0
   12.3262    1.4247   22.7351 C   0  0  0  0  0  0  0  0  0  0  0  0
   11.3794    1.3761   23.7290 C   0  0  0  0  0  0  0  0  0  0  0  0
    5.8300    0.9190   18.6970 C   0  0  0  0  0  0  0  0  0  0  0  0
    6.1790    0.5730   19.9990 C   0  0  0  0  0  0  0  0  0  0  0  0
    9.3070   -3.5340   24.8780 C   0  0  0  0  0  0  0  0  0  0  0  0
    9.3350   -1.0880   23.5010 C   0  0  0  0  0  0  0  0  0  0  0  0
    8.3597   -5.0073   26.6307 C   0  0  0  0  0  0  0  0  0  0  0  0
    9.0420    0.3700   21.5280 C   0  0  0  0  0  0  0  0  0  0  0  0
    8.4720   -6.3981   27.2296 C   0  0  0  0  0  0  0  0  0  0  0  0
    9.9252   -6.7605   27.4803 C   0  0  0  0  0  0  0  0  0  0  0  0
   10.7833   -6.6094   26.2282 C   0  0  0  0  0  0  0  0  0  0  0  0
   10.0539   -5.9099   25.0823 C   0  0  0  0  0  0  0  0  0  0  0  0
   14.8305    1.5084   22.7418 C   0  0  0  0  0  0  0  0  0  0  0  0
    9.8870    1.3260   23.5730 C   0  0  0  0  0  0  0  0  0  0  0  0
    8.1890   -0.7180   20.8700 C   0  0  0  0  0  0  0  0  0  0  0  0
   13.4410    1.4289   24.7112 N   0  0  0  0  0  0  0  0  0  0  0  0
    6.7580    0.3810   17.8350 N   0  0  0  0  0  0  0  0  0  0  0  0
    7.6390   -0.2680   18.5410 N   0  0  0  0  0  0  0  0  0  0  0  0
   13.5326    1.4543   23.3707 N   0  0  0  0  0  0  0  0  0  0  0  0
    7.3170   -0.1610   19.8550 N   0  0  0  0  0  0  0  0  0  0  0  0
    9.2529   -4.7797   25.5644 N   0  0  0  0  0  0  0  0  0  0  0  0
    9.4560    0.1560   22.8130 N   0  0  0  0  0  0  0  0  0  0  0  0
    7.4954   -4.2356   27.0449 O   0  0  0  0  0  0  0  0  0  0  0  0
    9.2690    1.4140   20.9380 O   0  0  0  0  0  0  0  0  0  0  0  0
    3.0136    2.6524   19.3909 H   0  0  0  0  0  0  0  0  0  0  0  0
    3.6477    2.0141   21.6817 H   0  0  0  0  0  0  0  0  0  0  0  0
    4.4041    1.9739   17.4524 H   0  0  0  0  0  0  0  0  0  0  0  0
    5.7107    0.6909   22.1141 H   0  0  0  0  0  0  0  0  0  0  0  0
    8.6895   -2.3529   26.5807 H   0  0  0  0  0  0  0  0  0  0  0  0
    9.9262   -4.3897   22.9916 H   0  0  0  0  0  0  0  0  0  0  0  0
    8.9224   -0.1998   25.4238 H   0  0  0  0  0  0  0  0  0  0  0  0
   10.0649   -2.2343   21.8258 H   0  0  0  0  0  0  0  0  0  0  0  0
   11.7624    1.3510   25.9426 H   0  0  0  0  0  0  0  0  0  0  0  0
   12.2462    1.4390   21.6566 H   0  0  0  0  0  0  0  0  0  0  0  0
    7.9325   -6.4148   28.1641 H   0  0  0  0  0  0  0  0  0  0  0  0
    8.0254   -7.0920   26.5333 H   0  0  0  0  0  0  0  0  0  0  0  0
   10.3387   -6.1267   28.2923 H   0  0  0  0  0  0  0  0  0  0  0  0
    9.9904   -7.8023   27.8537 H   0  0  0  0  0  0  0  0  0  0  0  0
   11.7037   -6.0404   26.4771 H   0  0  0  0  0  0  0  0  0  0  0  0
   11.1411   -7.6068   25.8918 H   0  0  0  0  0  0  0  0  0  0  0  0
   10.7782   -5.5162   24.3756 H   0  0  0  0  0  0  0  0  0  0  0  0
    9.4042   -6.6189   24.5807 H   0  0  0  0  0  0  0  0  0  0  0  0
   15.0990    2.5601   22.6124 H   0  0  0  0  0  0  0  0  0  0  0  0
   15.5636    1.0018   23.3756 H   0  0  0  0  0  0  0  0  0  0  0  0
   14.7841    1.0025   21.7733 H   0  0  0  0  0  0  0  0  0  0  0  0
    9.3974    1.2912   24.5523 H   0  0  0  0  0  0  0  0  0  0  0  0
    9.5159    2.2168   23.0554 H   0  0  0  0  0  0  0  0  0  0  0  0
    8.8326   -1.4554   20.3912 H   0  0  0  0  0  0  0  0  0  0  0  0
    7.5604   -1.1971   21.6201 H   0  0  0  0  0  0  0  0  0  0  0  0
  1  2  1  0  0  0  0
  1  3  2  0  0  0  0
  2  4  2  0  0  0  0
  3 12  1  0  0  0  0
  4 13  1  0  0  0  0
  5  7  2  0  0  0  0
  5 14  1  0  0  0  0
  6  8  1  0  0  0  0
  6 14  2  0  0  0  0
  7 15  1  0  0  0  0
  8 15  2  0  0  0  0
  9 11  1  0  0  0  0
  9 25  2  0  0  0  0
 10 11  2  0  0  0  0
 10 28  1  0  0  0  0
 11 23  1  0  0  0  0
 12 13  2  0  0  0  0
 12 26  1  0  0  0  0
 13 29  1  0  0  0  0
 14 30  1  0  0  0  0
 15 31  1  0  0  0  0
 16 18  1  0  0  0  0
 16 30  1  0  0  0  0
 16 32  2  0  0  0  0
 17 24  1  0  0  0  0
 17 31  1  0  0  0  0
 17 33  2  0  0  0  0
 18 19  1  0  0  0  0
 19 20  1  0  0  0  0
 20 21  1  0  0  0  0
 21 30  1  0  0  0  0
 22 28  1  0  0  0  0
 23 31  1  0  0  0  0
 24 29  1  0  0  0  0
 25 28  1  0  0  0  0
 26 27  2  0  0  0  0
 27 29  1  0  0  0  0
  1 34  1  0  0  0  0
  2 35  1  0  0  0  0
  3 36  1  0  0  0  0
  4 37  1  0  0  0  0
  5 38  1  0  0  0  0
  6 39  1  0  0  0  0
  7 40  1  0  0  0  0
  8 41  1  0  0  0  0
  9 42  1  0  0  0  0
 10 43  1  0  0  0  0
 18 44  1  0  0  0  0
 18 45  1  0  0  0  0
 19 46  1  0  0  0  0
 19 47  1  0  0  0  0
 20 48  1  0  0  0  0
 20 49  1  0  0  0  0
 21 50  1  0  0  0  0
 21 51  1  0  0  0  0
 22 52  1  0  0  0  0
 22 53  1  0  0  0  0
 22 54  1  0  0  0  0
 23 55  1  0  0  0  0
 23 56  1  0  0  0  0
 24 57  1  0  0  0  0
 24 58  1  0  0  0  0
M  END
> <clash_score>
0.7790751876189459

> <docking_score>
-8.15449047088623

> <overlap_score>
0.999036431312561

$$$$
BENZO_360_1
  -OEChem-08222022203D

 54 58  0     0  0  0  0  0  0999 V2000
    3.9160    2.0630   19.5520 C   0  0  0  0  0  0  0  0  0  0  0  0
    4.2750    1.7050   20.8490 C   0  0  0  0  0  0  0  0  0  0  0  0
    4.6890    1.6810   18.4640 C   0  0  0  0  0  0  0  0  0  0  0  0
    5.4210    0.9600   21.0930 C   0  0  0  0  0  0  0  0  0  0  0  0
    8.9960   -2.3380   25.5320 C   0  0  0  0  0  0  0  0  0  0  0  0
    9.6730   -3.4710   23.5300 C   0  0  0  0  0  0  0  0  0  0  0  0
    9.0720   -1.1280   24.8640 C   0  0  0  0  0  0  0  0  0  0  0  0
    9.7200   -2.2600   22.8630 C   0  0  0  0  0  0  0  0  0  0  0  0
   12.2111    0.2208   23.7905 C   0  0  0  0  0  0  0  0  0  0  0  0
   13.5412    0.5479   23.9363 C   0  0  0  0  0  0  0  0  0  0  0  0
   12.1057    2.5424   23.8305 C   0  0  0  0  0  0  0  0  0  0  0  0
   11.3794    1.3761   23.7290 C   0  0  0  0  0  0  0  0  0  0  0  0
    5.8300    0.9190   18.6970 C   0  0  0  0  0  0  0  0  0  0  0  0
    6.1790    0.5730   19.9990 C   0  0  0  0  0  0  0  0  0  0  0  0
    9.3070   -3.5340   24.8780 C   0  0  0  0  0  0  0  0  0  0  0  0
    9.3350   -1.0880   23.5010 C   0  0  0  0  0  0  0  0  0  0  0  0
    9.0420    0.3700   21.5280 C   0  0  0  0  0  0  0  0  0  0  0  0
    9.5175   -4.8597   26.9771 C   0  0  0  0  0  0  0  0  0  0  0  0
    8.5165   -5.8725   24.9808 C   0  0  0  0  0  0  0  0  0  0  0  0
    8.1868   -5.0439   27.6987 C   0  0  0  0  0  0  0  0  0  0  0  0
    7.2200   -6.0347   25.7755 C   0  0  0  0  0  0  0  0  0  0  0  0
    9.8870    1.3260   23.5730 C   0  0  0  0  0  0  0  0  0  0  0  0
    8.1890   -0.7180   20.8700 C   0  0  0  0  0  0  0  0  0  0  0  0
    6.7580    0.3810   17.8350 N   0  0  0  0  0  0  0  0  0  0  0  0
    7.6390   -0.2680   18.5410 N   0  0  0  0  0  0  0  0  0  0  0  0
    7.3170   -0.1610   19.8550 N   0  0  0  0  0  0  0  0  0  0  0  0
    9.2563   -4.7368   25.5413 N   0  0  0  0  0  0  0  0  0  0  0  0
    9.4560    0.1560   22.8130 N   0  0  0  0  0  0  0  0  0  0  0  0
    9.2690    1.4140   20.9380 O   0  0  0  0  0  0  0  0  0  0  0  0
    7.4994   -6.1853   27.1719 O   0  0  0  0  0  0  0  0  0  0  0  0
   13.7831    2.2420   23.9988 S   0  0  0  0  0  0  0  0  0  0  0  0
    3.0136    2.6524   19.3909 H   0  0  0  0  0  0  0  0  0  0  0  0
    3.6477    2.0141   21.6817 H   0  0  0  0  0  0  0  0  0  0  0  0
    4.4042    1.9739   17.4524 H   0  0  0  0  0  0  0  0  0  0  0  0
    5.7107    0.6909   22.1141 H   0  0  0  0  0  0  0  0  0  0  0  0
    8.6905   -2.3533   26.5810 H   0  0  0  0  0  0  0  0  0  0  0  0
    9.9266   -4.3896   22.9917 H   0  0  0  0  0  0  0  0  0  0  0  0
    8.9233   -0.1992   25.4232 H   0  0  0  0  0  0  0  0  0  0  0  0
   10.0650   -2.2330   21.8256 H   0  0  0  0  0  0  0  0  0  0  0  0
   11.8559   -0.8003   23.7315 H   0  0  0  0  0  0  0  0  0  0  0  0
   14.3824   -0.1267   24.0100 H   0  0  0  0  0  0  0  0  0  0  0  0
   11.7354    3.5581   23.8155 H   0  0  0  0  0  0  0  0  0  0  0  0
   10.0205   -3.9698   27.3609 H   0  0  0  0  0  0  0  0  0  0  0  0
   10.1535   -5.7310   27.1549 H   0  0  0  0  0  0  0  0  0  0  0  0
    9.1181   -6.7773   25.0755 H   0  0  0  0  0  0  0  0  0  0  0  0
    8.2812   -5.7064   23.9305 H   0  0  0  0  0  0  0  0  0  0  0  0
    8.3629   -5.2252   28.7611 H   0  0  0  0  0  0  0  0  0  0  0  0
    7.5530   -4.1570   27.6103 H   0  0  0  0  0  0  0  0  0  0  0  0
    6.5459   -5.1839   25.6221 H   0  0  0  0  0  0  0  0  0  0  0  0
    6.6948   -6.9354   25.4436 H   0  0  0  0  0  0  0  0  0  0  0  0
    9.3974    1.2912   24.5523 H   0  0  0  0  0  0  0  0  0  0  0  0
    9.5159    2.2168   23.0554 H   0  0  0  0  0  0  0  0  0  0  0  0
    8.8326   -1.4554   20.3912 H   0  0  0  0  0  0  0  0  0  0  0  0
    7.5604   -1.1971   21.6201 H   0  0  0  0  0  0  0  0  0  0  0  0
  1  2  1  0  0  0  0
  1  3  2  0  0  0  0
  2  4  2  0  0  0  0
  3 13  1  0  0  0  0
  4 14  1  0  0  0  0
  5  7  2  0  0  0  0
  5 15  1  0  0  0  0
  6  8  1  0  0  0  0
  6 15  2  0  0  0  0
  7 16  1  0  0  0  0
  8 16  2  0  0  0  0
  9 10  2  0  0  0  0
  9 12  1  0  0  0  0
 10 31  1  0  0  0  0
 11 12  2  0  0  0  0
 11 31  1  0  0  0  0
 12 22  1  0  0  0  0
 13 14  2  0  0  0  0
 13 24  1  0  0  0  0
 14 26  1  0  0  0  0
 15 27  1  0  0  0  0
 16 28  1  0  0  0  0
 17 23  1  0  0  0  0
 17 28  1  0  0  0  0
 17 29  2  0  0  0  0
 18 20  1  0  0  0  0
 18 27  1  0  0  0  0
 19 21  1  0  0  0  0
 19 27  1  0  0  0  0
 20 30  1  0  0  0  0
 21 30  1  0  0  0  0
 22 28  1  0  0  0  0
 23 26  1  0  0  0  0
 24 25  2  0  0  0  0
 25 26  1  0  0  0  0
  1 32  1  0  0  0  0
  2 33  1  0  0  0  0
  3 34  1  0  0  0  0
  4 35  1  0  0  0  0
  5 36  1  0  0  0  0
  6 37  1  0  0  0  0
  7 38  1  0  0  0  0
  8 39  1  0  0  0  0
  9 40  1  0  0  0  0
 10 41  1  0  0  0  0
 11 42  1  0  0  0  0
 18 43  1  0  0  0  0
 18 44  1  0  0  0  0
 19 45  1  0  0  0  0
 19 46  1  0  0  0  0
 20 47  1  0  0  0  0
 20 48  1  0  0  0  0
 21 49  1  0  0  0  0
 21 50  1  0  0  0  0
 22 51  1  0  0  0  0
 22 52  1  0  0  0  0
 23 53  1  0  0  0  0
 23 54  1  0  0  0  0
M  END
> <clash_score>
0

> <docking_score>
-8.654757499694824

> <overlap_score>
0.9791509509086609

$$$$
BENZO_365_1
  -OEChem-08222022203D

 53 56  0     0  0  0  0  0  0999 V2000
   14.1526    1.4694   24.0176 C   0  0  0  0  0  0  0  0  0  0  0  0
   13.3741    0.8121   24.9701 C   0  0  0  0  0  0  0  0  0  0  0  0
   13.5446    2.0802   22.9208 C   0  0  0  0  0  0  0  0  0  0  0  0
    3.9160    2.0630   19.5520 C   0  0  0  0  0  0  0  0  0  0  0  0
    4.2750    1.7050   20.8490 C   0  0  0  0  0  0  0  0  0  0  0  0
   11.9875    0.7654   24.8258 C   0  0  0  0  0  0  0  0  0  0  0  0
   12.1580    2.0335   22.7765 C   0  0  0  0  0  0  0  0  0  0  0  0
    4.6890    1.6810   18.4640 C   0  0  0  0  0  0  0  0  0  0  0  0
    5.4210    0.9600   21.0930 C   0  0  0  0  0  0  0  0  0  0  0  0
    9.0720   -1.1280   24.8640 C   0  0  0  0  0  0  0  0  0  0  0  0
    9.7200   -2.2600   22.8630 C   0  0  0  0  0  0  0  0  0  0  0  0
    8.9960   -2.3380   25.5320 C   0  0  0  0  0  0  0  0  0  0  0  0
    9.6730   -3.4710   23.5300 C   0  0  0  0  0  0  0  0  0  0  0  0
    7.6390   -0.2680   18.5410 C   0  0  0  0  0  0  0  0  0  0  0  0
   11.3794    1.3761   23.7290 C   0  0  0  0  0  0  0  0  0  0  0  0
    5.8300    0.9190   18.6970 C   0  0  0  0  0  0  0  0  0  0  0  0
    6.1790    0.5730   19.9990 C   0  0  0  0  0  0  0  0  0  0  0  0
    9.3350   -1.0880   23.5010 C   0  0  0  0  0  0  0  0  0  0  0  0
    9.3070   -3.5340   24.8780 C   0  0  0  0  0  0  0  0  0  0  0  0
    9.0420    0.3700   21.5280 C   0  0  0  0  0  0  0  0  0  0  0  0
    8.0128   -5.2151   26.1416 C   0  0  0  0  0  0  0  0  0  0  0  0
   10.4372   -5.5860   25.6589 C   0  0  0  0  0  0  0  0  0  0  0  0
    9.8870    1.3260   23.5730 C   0  0  0  0  0  0  0  0  0  0  0  0
    8.1890   -0.7180   20.8700 C   0  0  0  0  0  0  0  0  0  0  0  0
    6.7580    0.3810   17.8350 N   0  0  0  0  0  0  0  0  0  0  0  0
    7.3170   -0.1610   19.8550 N   0  0  0  0  0  0  0  0  0  0  0  0
    9.4560    0.1560   22.8130 N   0  0  0  0  0  0  0  0  0  0  0  0
    9.2543   -4.7552   25.5519 N   0  0  0  0  0  0  0  0  0  0  0  0
    9.2690    1.4140   20.9380 O   0  0  0  0  0  0  0  0  0  0  0  0
   15.2322    1.5068   24.1308 H   0  0  0  0  0  0  0  0  0  0  0  0
   13.8473    0.3374   25.8248 H   0  0  0  0  0  0  0  0  0  0  0  0
   14.1503    2.5930   22.1795 H   0  0  0  0  0  0  0  0  0  0  0  0
    3.0133    2.6526   19.3911 H   0  0  0  0  0  0  0  0  0  0  0  0
    3.6478    2.0143   21.6818 H   0  0  0  0  0  0  0  0  0  0  0  0
   11.3889    0.2508   25.5729 H   0  0  0  0  0  0  0  0  0  0  0  0
   11.6930    2.5120   21.9187 H   0  0  0  0  0  0  0  0  0  0  0  0
    4.4036    1.9735   17.4543 H   0  0  0  0  0  0  0  0  0  0  0  0
    5.7089    0.6922   22.1131 H   0  0  0  0  0  0  0  0  0  0  0  0
    8.9217   -0.1995   25.4232 H   0  0  0  0  0  0  0  0  0  0  0  0
   10.0643   -2.2341   21.8254 H   0  0  0  0  0  0  0  0  0  0  0  0
    8.6893   -2.3540   26.5808 H   0  0  0  0  0  0  0  0  0  0  0  0
    9.9257   -4.3898   22.9921 H   0  0  0  0  0  0  0  0  0  0  0  0
    8.4865   -0.8061   18.1803 H   0  0  0  0  0  0  0  0  0  0  0  0
    8.1744   -6.1904   26.6238 H   0  0  0  0  0  0  0  0  0  0  0  0
    7.6718   -4.4870   26.8924 H   0  0  0  0  0  0  0  0  0  0  0  0
    7.2494   -5.3166   25.3561 H   0  0  0  0  0  0  0  0  0  0  0  0
   10.1946   -6.4995   26.2216 H   0  0  0  0  0  0  0  0  0  0  0  0
   10.7865   -5.8578   24.6518 H   0  0  0  0  0  0  0  0  0  0  0  0
   11.2285   -5.0312   26.1842 H   0  0  0  0  0  0  0  0  0  0  0  0
    9.3974    1.2912   24.5523 H   0  0  0  0  0  0  0  0  0  0  0  0
    9.5159    2.2168   23.0553 H   0  0  0  0  0  0  0  0  0  0  0  0
    8.8262   -1.4533   20.3842 H   0  0  0  0  0  0  0  0  0  0  0  0
    7.5540   -1.1950   21.6130 H   0  0  0  0  0  0  0  0  0  0  0  0
  1  2  1  0  0  0  0
  1  3  2  0  0  0  0
  2  6  2  0  0  0  0
  3  7  1  0  0  0  0
  4  5  1  0  0  0  0
  4  8  2  0  0  0  0
  5  9  2  0  0  0  0
  6 15  1  0  0  0  0
  7 15  2  0  0  0  0
  8 16  1  0  0  0  0
  9 17  1  0  0  0  0
 10 12  2  0  0  0  0
 10 18  1  0  0  0  0
 11 13  1  0  0  0  0
 11 18  2  0  0  0  0
 12 19  1  0  0  0  0
 13 19  2  0  0  0  0
 14 25  2  0  0  0  0
 14 26  1  0  0  0  0
 15 23  1  0  0  0  0
 16 17  2  0  0  0  0
 16 25  1  0  0  0  0
 17 26  1  0  0  0  0
 18 27  1  0  0  0  0
 19 28  1  0  0  0  0
 20 24  1  0  0  0  0
 20 27  1  0  0  0  0
 20 29  2  0  0  0  0
 21 28  1  0  0  0  0
 22 28  1  0  0  0  0
 23 27  1  0  0  0  0
 24 26  1  0  0  0  0
  1 30  1  0  0  0  0
  2 31  1  0  0  0  0
  3 32  1  0  0  0  0
  4 33  1  0  0  0  0
  5 34  1  0  0  0  0
  6 35  1  0  0  0  0
  7 36  1  0  0  0  0
  8 37  1  0  0  0  0
  9 38  1  0  0  0  0
 10 39  1  0  0  0  0
 11 40  1  0  0  0  0
 12 41  1  0  0  0  0
 13 42  1  0  0  0  0
 14 43  1  0  0  0  0
 21 44  1  0  0  0  0
 21 45  1  0  0  0  0
 21 46  1  0  0  0  0
 22 47  1  0  0  0  0
 22 48  1  0  0  0  0
 22 49  1  0  0  0  0
 23 50  1  0  0  0  0
 23 51  1  0  0  0  0
 24 52  1  0  0  0  0
 24 53  1  0  0  0  0
M  END
> <clash_score>
0

> <docking_score>
-10.271506309509277

> <overlap_score>
0.9780114889144897

$$$$
BENZO_362_1
  -OEChem-08222022203D

 57 61  0     0  0  0  0  0  0999 V2000
    3.9160    2.0630   19.5520 C   0  0  0  0  0  0  0  0  0  0  0  0
    4.2750    1.7050   20.8490 C   0  0  0  0  0  0  0  0  0  0  0  0
   13.4007    0.5725   24.7805 C   0  0  0  0  0  0  0  0  0  0  0  0
   12.0141    0.5273   24.6359 C   0  0  0  0  0  0  0  0  0  0  0  0
    4.6890    1.6810   18.4640 C   0  0  0  0  0  0  0  0  0  0  0  0
    5.4210    0.9600   21.0930 C   0  0  0  0  0  0  0  0  0  0  0  0
    8.9960   -2.3380   25.5320 C   0  0  0  0  0  0  0  0  0  0  0  0
    9.6730   -3.4710   23.5300 C   0  0  0  0  0  0  0  0  0  0  0  0
    9.0720   -1.1280   24.8640 C   0  0  0  0  0  0  0  0  0  0  0  0
    9.7200   -2.2600   22.8630 C   0  0  0  0  0  0  0  0  0  0  0  0
   14.1526    1.4666   24.0184 C   0  0  0  0  0  0  0  0  0  0  0  0
   12.1314    2.2702   22.9668 C   0  0  0  0  0  0  0  0  0  0  0  0
   11.3794    1.3761   23.7290 C   0  0  0  0  0  0  0  0  0  0  0  0
    5.8300    0.9190   18.6970 C   0  0  0  0  0  0  0  0  0  0  0  0
    6.1790    0.5730   19.9990 C   0  0  0  0  0  0  0  0  0  0  0  0
    9.3070   -3.5340   24.8780 C   0  0  0  0  0  0  0  0  0  0  0  0
    9.3350   -1.0880   23.5010 C   0  0  0  0  0  0  0  0  0  0  0  0
   13.5180    2.3154   23.1115 C   0  0  0  0  0  0  0  0  0  0  0  0
    9.0420    0.3700   21.5280 C   0  0  0  0  0  0  0  0  0  0  0  0
   10.0771   -5.0255   26.7193 C   0  0  0  0  0  0  0  0  0  0  0  0
    8.0927   -5.6195   25.4071 C   0  0  0  0  0  0  0  0  0  0  0  0
    9.1933   -4.9427   27.9592 C   0  0  0  0  0  0  0  0  0  0  0  0
    7.2756   -5.5290   26.6967 C   0  0  0  0  0  0  0  0  0  0  0  0
    9.8870    1.3260   23.5730 C   0  0  0  0  0  0  0  0  0  0  0  0
    8.1890   -0.7180   20.8700 C   0  0  0  0  0  0  0  0  0  0  0  0
    6.7580    0.3810   17.8350 N   0  0  0  0  0  0  0  0  0  0  0  0
    7.6390   -0.2680   18.5410 N   0  0  0  0  0  0  0  0  0  0  0  0
    7.3170   -0.1610   19.8550 N   0  0  0  0  0  0  0  0  0  0  0  0
    9.2563   -4.7368   25.5413 N   0  0  0  0  0  0  0  0  0  0  0  0
    9.4560    0.1560   22.8130 N   0  0  0  0  0  0  0  0  0  0  0  0
    9.2690    1.4140   20.9380 O   0  0  0  0  0  0  0  0  0  0  0  0
    8.0883   -5.8459   27.8325 O   0  0  0  0  0  0  0  0  0  0  0  0
   14.4463    3.4175   22.1707 Cl  0  0  0  0  0  0  0  0  0  0  0  0
    3.0136    2.6524   19.3909 H   0  0  0  0  0  0  0  0  0  0  0  0
    3.6477    2.0141   21.6817 H   0  0  0  0  0  0  0  0  0  0  0  0
   13.8945   -0.0888   25.4867 H   0  0  0  0  0  0  0  0  0  0  0  0
   11.4361   -0.1726   25.2338 H   0  0  0  0  0  0  0  0  0  0  0  0
    4.4042    1.9739   17.4524 H   0  0  0  0  0  0  0  0  0  0  0  0
    5.7107    0.6909   22.1141 H   0  0  0  0  0  0  0  0  0  0  0  0
    8.6905   -2.3533   26.5810 H   0  0  0  0  0  0  0  0  0  0  0  0
    9.9266   -4.3896   22.9917 H   0  0  0  0  0  0  0  0  0  0  0  0
    8.9233   -0.1992   25.4232 H   0  0  0  0  0  0  0  0  0  0  0  0
   10.0650   -2.2330   21.8256 H   0  0  0  0  0  0  0  0  0  0  0  0
   15.2326    1.4907   24.1414 H   0  0  0  0  0  0  0  0  0  0  0  0
   11.6317    2.9303   22.2615 H   0  0  0  0  0  0  0  0  0  0  0  0
   10.8985   -4.3115   26.8085 H   0  0  0  0  0  0  0  0  0  0  0  0
   10.4915   -6.0334   26.6323 H   0  0  0  0  0  0  0  0  0  0  0  0
    8.4327   -6.6456   25.2620 H   0  0  0  0  0  0  0  0  0  0  0  0
    7.4725   -5.3241   24.5619 H   0  0  0  0  0  0  0  0  0  0  0  0
    9.7636   -5.2398   28.8419 H   0  0  0  0  0  0  0  0  0  0  0  0
    8.8236   -3.9268   28.1248 H   0  0  0  0  0  0  0  0  0  0  0  0
    6.8339   -4.5337   26.8232 H   0  0  0  0  0  0  0  0  0  0  0  0
    6.4550   -6.2521   26.6643 H   0  0  0  0  0  0  0  0  0  0  0  0
    9.3974    1.2912   24.5523 H   0  0  0  0  0  0  0  0  0  0  0  0
    9.5159    2.2168   23.0554 H   0  0  0  0  0  0  0  0  0  0  0  0
    8.8326   -1.4554   20.3912 H   0  0  0  0  0  0  0  0  0  0  0  0
    7.5604   -1.1971   21.6201 H   0  0  0  0  0  0  0  0  0  0  0  0
  1  2  1  0  0  0  0
  1  5  2  0  0  0  0
  2  6  2  0  0  0  0
  3  4  2  0  0  0  0
  3 11  1  0  0  0  0
  4 13  1  0  0  0  0
  5 14  1  0  0  0  0
  6 15  1  0  0  0  0
  7  9  2  0  0  0  0
  7 16  1  0  0  0  0
  8 10  1  0  0  0  0
  8 16  2  0  0  0  0
  9 17  1  0  0  0  0
 10 17  2  0  0  0  0
 11 18  2  0  0  0  0
 12 13  2  0  0  0  0
 12 18  1  0  0  0  0
 13 24  1  0  0  0  0
 14 15  2  0  0  0  0
 14 26  1  0  0  0  0
 15 28  1  0  0  0  0
 16 29  1  0  0  0  0
 17 30  1  0  0  0  0
 18 33  1  0  0  0  0
 19 25  1  0  0  0  0
 19 30  1  0  0  0  0
 19 31  2  0  0  0  0
 20 22  1  0  0  0  0
 20 29  1  0  0  0  0
 21 23  1  0  0  0  0
 21 29  1  0  0  0  0
 22 32  1  0  0  0  0
 23 32  1  0  0  0  0
 24 30  1  0  0  0  0
 25 28  1  0  0  0  0
 26 27  2  0  0  0  0
 27 28  1  0  0  0  0
  1 34  1  0  0  0  0
  2 35  1  0  0  0  0
  3 36  1  0  0  0  0
  4 37  1  0  0  0  0
  5 38  1  0  0  0  0
  6 39  1  0  0  0  0
  7 40  1  0  0  0  0
  8 41  1  0  0  0  0
  9 42  1  0  0  0  0
 10 43  1  0  0  0  0
 11 44  1  0  0  0  0
 12 45  1  0  0  0  0
 20 46  1  0  0  0  0
 20 47  1  0  0  0  0
 21 48  1  0  0  0  0
 21 49  1  0  0  0  0
 22 50  1  0  0  0  0
 22 51  1  0  0  0  0
 23 52  1  0  0  0  0
 23 53  1  0  0  0  0
 24 54  1  0  0  0  0
 24 55  1  0  0  0  0
 25 56  1  0  0  0  0
 25 57  1  0  0  0  0
M  END
> <clash_score>
0

> <docking_score>
-8.556467056274414

> <overlap_score>
1.001426100730896

$$$$
BENZO_364_1
  -OEChem-08222022203D

 50 53  0     0  0  0  0  0  0999 V2000
    3.9160    2.0630   19.5520 C   0  0  0  0  0  0  0  0  0  0  0  0
    4.2750    1.7050   20.8490 C   0  0  0  0  0  0  0  0  0  0  0  0
    4.6890    1.6810   18.4640 C   0  0  0  0  0  0  0  0  0  0  0  0
    5.4210    0.9600   21.0930 C   0  0  0  0  0  0  0  0  0  0  0  0
    9.0720   -1.1280   24.8640 C   0  0  0  0  0  0  0  0  0  0  0  0
    9.7200   -2.2600   22.8630 C   0  0  0  0  0  0  0  0  0  0  0  0
    8.9960   -2.3380   25.5320 C   0  0  0  0  0  0  0  0  0  0  0  0
    9.6730   -3.4710   23.5300 C   0  0  0  0  0  0  0  0  0  0  0  0
   12.2913    1.4279   22.6355 C   0  0  0  0  0  0  0  0  0  0  0  0
   13.6024    1.4662   23.0564 C   0  0  0  0  0  0  0  0  0  0  0  0
   12.0284    1.3764   24.9443 C   0  0  0  0  0  0  0  0  0  0  0  0
    7.6390   -0.2680   18.5410 C   0  0  0  0  0  0  0  0  0  0  0  0
   11.3794    1.3761   23.7290 C   0  0  0  0  0  0  0  0  0  0  0  0
    5.8300    0.9190   18.6970 C   0  0  0  0  0  0  0  0  0  0  0  0
    6.1790    0.5730   19.9990 C   0  0  0  0  0  0  0  0  0  0  0  0
    9.3350   -1.0880   23.5010 C   0  0  0  0  0  0  0  0  0  0  0  0
    9.3070   -3.5340   24.8780 C   0  0  0  0  0  0  0  0  0  0  0  0
    9.0420    0.3700   21.5280 C   0  0  0  0  0  0  0  0  0  0  0  0
    8.8742   -4.8064   26.9496 C   0  0  0  0  0  0  0  0  0  0  0  0
    9.5655   -5.9897   24.8591 C   0  0  0  0  0  0  0  0  0  0  0  0
    9.8870    1.3260   23.5730 C   0  0  0  0  0  0  0  0  0  0  0  0
    8.1890   -0.7180   20.8700 C   0  0  0  0  0  0  0  0  0  0  0  0
    6.7580    0.3810   17.8350 N   0  0  0  0  0  0  0  0  0  0  0  0
    7.3170   -0.1610   19.8550 N   0  0  0  0  0  0  0  0  0  0  0  0
    9.4560    0.1560   22.8130 N   0  0  0  0  0  0  0  0  0  0  0  0
    9.2543   -4.7552   25.5519 N   0  0  0  0  0  0  0  0  0  0  0  0
    9.2690    1.4140   20.9380 O   0  0  0  0  0  0  0  0  0  0  0  0
   13.7301    1.4394   24.7638 S   0  0  0  0  0  0  0  0  0  0  0  0
    3.0133    2.6526   19.3911 H   0  0  0  0  0  0  0  0  0  0  0  0
    3.6478    2.0143   21.6818 H   0  0  0  0  0  0  0  0  0  0  0  0
    4.4036    1.9735   17.4543 H   0  0  0  0  0  0  0  0  0  0  0  0
    5.7089    0.6922   22.1131 H   0  0  0  0  0  0  0  0  0  0  0  0
    8.9217   -0.1995   25.4232 H   0  0  0  0  0  0  0  0  0  0  0  0
   10.0643   -2.2341   21.8254 H   0  0  0  0  0  0  0  0  0  0  0  0
    8.6893   -2.3540   26.5808 H   0  0  0  0  0  0  0  0  0  0  0  0
    9.9257   -4.3898   22.9921 H   0  0  0  0  0  0  0  0  0  0  0  0
   12.0045    1.4365   21.5915 H   0  0  0  0  0  0  0  0  0  0  0  0
   14.4914    1.5078   22.4431 H   0  0  0  0  0  0  0  0  0  0  0  0
   11.5886    1.3416   25.9314 H   0  0  0  0  0  0  0  0  0  0  0  0
    8.4865   -0.8061   18.1803 H   0  0  0  0  0  0  0  0  0  0  0  0
    8.8922   -5.8499   27.2971 H   0  0  0  0  0  0  0  0  0  0  0  0
    9.5819   -4.2098   27.5440 H   0  0  0  0  0  0  0  0  0  0  0  0
    7.8599   -4.3978   27.0688 H   0  0  0  0  0  0  0  0  0  0  0  0
    9.4683   -6.8360   25.5551 H   0  0  0  0  0  0  0  0  0  0  0  0
    8.8685   -6.1243   24.0189 H   0  0  0  0  0  0  0  0  0  0  0  0
   10.5961   -5.9459   24.4772 H   0  0  0  0  0  0  0  0  0  0  0  0
    9.3974    1.2912   24.5523 H   0  0  0  0  0  0  0  0  0  0  0  0
    9.5159    2.2168   23.0553 H   0  0  0  0  0  0  0  0  0  0  0  0
    8.8262   -1.4533   20.3842 H   0  0  0  0  0  0  0  0  0  0  0  0
    7.5540   -1.1950   21.6130 H   0  0  0  0  0  0  0  0  0  0  0  0
  1  2  1  0  0  0  0
  1  3  2  0  0  0  0
  2  4  2  0  0  0  0
  3 14  1  0  0  0  0
  4 15  1  0  0  0  0
  5  7  2  0  0  0  0
  5 16  1  0  0  0  0
  6  8  1  0  0  0  0
  6 16  2  0  0  0  0
  7 17  1  0  0  0  0
  8 17  2  0  0  0  0
  9 10  2  0  0  0  0
  9 13  1  0  0  0  0
 10 28  1  0  0  0  0
 11 13  2  0  0  0  0
 11 28  1  0  0  0  0
 12 23  2  0  0  0  0
 12 24  1  0  0  0  0
 13 21  1  0  0  0  0
 14 15  2  0  0  0  0
 14 23  1  0  0  0  0
 15 24  1  0  0  0  0
 16 25  1  0  0  0  0
 17 26  1  0  0  0  0
 18 22  1  0  0  0  0
 18 25  1  0  0  0  0
 18 27  2  0  0  0  0
 19 26  1  0  0  0  0
 20 26  1  0  0  0  0
 21 25  1  0  0  0  0
 22 24  1  0  0  0  0
  1 29  1  0  0  0  0
  2 30  1  0  0  0  0
  3 31  1  0  0  0  0
  4 32  1  0  0  0  0
  5 33  1  0  0  0  0
  6 34  1  0  0  0  0
  7 35  1  0  0  0  0
  8 36  1  0  0  0  0
  9 37  1  0  0  0  0
 10 38  1  0  0  0  0
 11 39  1  0  0  0  0
 12 40  1  0  0  0  0
 19 41  1  0  0  0  0
 19 42  1  0  0  0  0
 19 43  1  0  0  0  0
 20 44  1  0  0  0  0
 20 45  1  0  0  0  0
 20 46  1  0  0  0  0
 21 47  1  0  0  0  0
 21 48  1  0  0  0  0
 22 49  1  0  0  0  0
 22 50  1  0  0  0  0
M  END
> <clash_score>
0

> <docking_score>
-10.028486251831055

> <overlap_score>
0.963939368724823

$$$$
BENZO_363_1
  -OEChem-08222022203D

 57 61  0     0  0  0  0  0  0999 V2000
    3.9160    2.0630   19.5520 C   0  0  0  0  0  0  0  0  0  0  0  0
    4.2750    1.7050   20.8490 C   0  0  0  0  0  0  0  0  0  0  0  0
    4.6890    1.6810   18.4640 C   0  0  0  0  0  0  0  0  0  0  0  0
    5.4210    0.9600   21.0930 C   0  0  0  0  0  0  0  0  0  0  0  0
    8.9960   -2.3380   25.5320 C   0  0  0  0  0  0  0  0  0  0  0  0
    9.6730   -3.4710   23.5300 C   0  0  0  0  0  0  0  0  0  0  0  0
    9.0720   -1.1280   24.8640 C   0  0  0  0  0  0  0  0  0  0  0  0
    9.7200   -2.2600   22.8630 C   0  0  0  0  0  0  0  0  0  0  0  0
   12.2914    2.2071   23.0512 C   0  0  0  0  0  0  0  0  0  0  0  0
   12.1614    0.6214   24.5689 C   0  0  0  0  0  0  0  0  0  0  0  0
   11.3794    1.3761   23.7290 C   0  0  0  0  0  0  0  0  0  0  0  0
    5.8300    0.9190   18.6970 C   0  0  0  0  0  0  0  0  0  0  0  0
    6.1790    0.5730   19.9990 C   0  0  0  0  0  0  0  0  0  0  0  0
    9.3070   -3.5340   24.8780 C   0  0  0  0  0  0  0  0  0  0  0  0
    9.3350   -1.0880   23.5010 C   0  0  0  0  0  0  0  0  0  0  0  0
    9.0420    0.3700   21.5280 C   0  0  0  0  0  0  0  0  0  0  0  0
   10.0771   -5.0255   26.7193 C   0  0  0  0  0  0  0  0  0  0  0  0
    8.0927   -5.6195   25.4071 C   0  0  0  0  0  0  0  0  0  0  0  0
    9.1933   -4.9427   27.9592 C   0  0  0  0  0  0  0  0  0  0  0  0
    7.2756   -5.5290   26.6967 C   0  0  0  0  0  0  0  0  0  0  0  0
   14.6267    0.5248   25.0067 C   0  0  0  0  0  0  0  0  0  0  0  0
    9.8870    1.3260   23.5730 C   0  0  0  0  0  0  0  0  0  0  0  0
    8.1890   -0.7180   20.8700 C   0  0  0  0  0  0  0  0  0  0  0  0
   13.5560    2.0002   23.4280 N   0  0  0  0  0  0  0  0  0  0  0  0
    6.7580    0.3810   17.8350 N   0  0  0  0  0  0  0  0  0  0  0  0
    7.6390   -0.2680   18.5410 N   0  0  0  0  0  0  0  0  0  0  0  0
   13.4442    1.0306   24.3518 N   0  0  0  0  0  0  0  0  0  0  0  0
    7.3170   -0.1610   19.8550 N   0  0  0  0  0  0  0  0  0  0  0  0
    9.2563   -4.7368   25.5413 N   0  0  0  0  0  0  0  0  0  0  0  0
    9.4560    0.1560   22.8130 N   0  0  0  0  0  0  0  0  0  0  0  0
    9.2690    1.4140   20.9380 O   0  0  0  0  0  0  0  0  0  0  0  0
    8.0883   -5.8459   27.8325 O   0  0  0  0  0  0  0  0  0  0  0  0
    3.0136    2.6524   19.3909 H   0  0  0  0  0  0  0  0  0  0  0  0
    3.6477    2.0141   21.6817 H   0  0  0  0  0  0  0  0  0  0  0  0
    4.4042    1.9739   17.4524 H   0  0  0  0  0  0  0  0  0  0  0  0
    5.7107    0.6909   22.1141 H   0  0  0  0  0  0  0  0  0  0  0  0
    8.6905   -2.3533   26.5810 H   0  0  0  0  0  0  0  0  0  0  0  0
    9.9266   -4.3896   22.9917 H   0  0  0  0  0  0  0  0  0  0  0  0
    8.9233   -0.1992   25.4232 H   0  0  0  0  0  0  0  0  0  0  0  0
   10.0650   -2.2330   21.8256 H   0  0  0  0  0  0  0  0  0  0  0  0
   12.0895    2.9562   22.2987 H   0  0  0  0  0  0  0  0  0  0  0  0
   11.9201   -0.1518   25.2857 H   0  0  0  0  0  0  0  0  0  0  0  0
   10.8985   -4.3115   26.8085 H   0  0  0  0  0  0  0  0  0  0  0  0
   10.4915   -6.0334   26.6323 H   0  0  0  0  0  0  0  0  0  0  0  0
    8.4327   -6.6456   25.2620 H   0  0  0  0  0  0  0  0  0  0  0  0
    7.4725   -5.3241   24.5619 H   0  0  0  0  0  0  0  0  0  0  0  0
    9.7636   -5.2398   28.8419 H   0  0  0  0  0  0  0  0  0  0  0  0
    8.8236   -3.9268   28.1248 H   0  0  0  0  0  0  0  0  0  0  0  0
    6.8339   -4.5337   26.8232 H   0  0  0  0  0  0  0  0  0  0  0  0
    6.4550   -6.2521   26.6643 H   0  0  0  0  0  0  0  0  0  0  0  0
   15.0068   -0.3132   24.4165 H   0  0  0  0  0  0  0  0  0  0  0  0
   15.3758    1.3189   25.0698 H   0  0  0  0  0  0  0  0  0  0  0  0
   14.3676    0.1958   26.0170 H   0  0  0  0  0  0  0  0  0  0  0  0
    9.3974    1.2912   24.5523 H   0  0  0  0  0  0  0  0  0  0  0  0
    9.5159    2.2168   23.0554 H   0  0  0  0  0  0  0  0  0  0  0  0
    8.8326   -1.4554   20.3912 H   0  0  0  0  0  0  0  0  0  0  0  0
    7.5604   -1.1971   21.6201 H   0  0  0  0  0  0  0  0  0  0  0  0
  1  2  1  0  0  0  0
  1  3  2  0  0  0  0
  2  4  2  0  0  0  0
  3 12  1  0  0  0  0
  4 13  1  0  0  0  0
  5  7  2  0  0  0  0
  5 14  1  0  0  0  0
  6  8  1  0  0  0  0
  6 14  2  0  0  0  0
  7 15  1  0  0  0  0
  8 15  2  0  0  0  0
  9 11  1  0  0  0  0
  9 24  2  0  0  0  0
 10 11  2  0  0  0  0
 10 27  1  0  0  0  0
 11 22  1  0  0  0  0
 12 13  2  0  0  0  0
 12 25  1  0  0  0  0
 13 28  1  0  0  0  0
 14 29  1  0  0  0  0
 15 30  1  0  0  0  0
 16 23  1  0  0  0  0
 16 30  1  0  0  0  0
 16 31  2  0  0  0  0
 17 19  1  0  0  0  0
 17 29  1  0  0  0  0
 18 20  1  0  0  0  0
 18 29  1  0  0  0  0
 19 32  1  0  0  0  0
 20 32  1  0  0  0  0
 21 27  1  0  0  0  0
 22 30  1  0  0  0  0
 23 28  1  0  0  0  0
 24 27  1  0  0  0  0
 25 26  2  0  0  0  0
 26 28  1  0  0  0  0
  1 33  1  0  0  0  0
  2 34  1  0  0  0  0
  3 35  1  0  0  0  0
  4 36  1  0  0  0  0
  5 37  1  0  0  0  0
  6 38  1  0  0  0  0
  7 39  1  0  0  0  0
  8 40  1  0  0  0  0
  9 41  1  0  0  0  0
 10 42  1  0  0  0  0
 17 43  1  0  0  0  0
 17 44  1  0  0  0  0
 18 45  1  0  0  0  0
 18 46  1  0  0  0  0
 19 47  1  0  0  0  0
 19 48  1  0  0  0  0
 20 49  1  0  0  0  0
 20 50  1  0  0  0  0
 21 51  1  0  0  0  0
 21 52  1  0  0  0  0
 21 53  1  0  0  0  0
 22 54  1  0  0  0  0
 22 55  1  0  0  0  0
 23 56  1  0  0  0  0
 23 57  1  0  0  0  0
M  END
> <clash_score>
0.6199426913845782

> <docking_score>
-9.127490043640137

> <overlap_score>
0.9891136884689331

$$$$
BENZO_367_1
  -OEChem-08222022203D

 53 56  0     0  0  0  0  0  0999 V2000
    3.9160    2.0630   19.5520 C   0  0  0  0  0  0  0  0  0  0  0  0
    4.2750    1.7050   20.8490 C   0  0  0  0  0  0  0  0  0  0  0  0
    4.6890    1.6810   18.4640 C   0  0  0  0  0  0  0  0  0  0  0  0
    5.4210    0.9600   21.0930 C   0  0  0  0  0  0  0  0  0  0  0  0
    9.0720   -1.1280   24.8640 C   0  0  0  0  0  0  0  0  0  0  0  0
    9.7200   -2.2600   22.8630 C   0  0  0  0  0  0  0  0  0  0  0  0
    8.9960   -2.3380   25.5320 C   0  0  0  0  0  0  0  0  0  0  0  0
    9.6730   -3.4710   23.5300 C   0  0  0  0  0  0  0  0  0  0  0  0
   12.2914    2.2071   23.0512 C   0  0  0  0  0  0  0  0  0  0  0  0
   12.1614    0.6214   24.5689 C   0  0  0  0  0  0  0  0  0  0  0  0
    7.6390   -0.2680   18.5410 C   0  0  0  0  0  0  0  0  0  0  0  0
   11.3794    1.3761   23.7290 C   0  0  0  0  0  0  0  0  0  0  0  0
    5.8300    0.9190   18.6970 C   0  0  0  0  0  0  0  0  0  0  0  0
    6.1790    0.5730   19.9990 C   0  0  0  0  0  0  0  0  0  0  0  0
    9.3350   -1.0880   23.5010 C   0  0  0  0  0  0  0  0  0  0  0  0
    9.3070   -3.5340   24.8780 C   0  0  0  0  0  0  0  0  0  0  0  0
    9.0420    0.3700   21.5280 C   0  0  0  0  0  0  0  0  0  0  0  0
   14.6267    0.5248   25.0067 C   0  0  0  0  0  0  0  0  0  0  0  0
    8.0128   -5.2151   26.1416 C   0  0  0  0  0  0  0  0  0  0  0  0
   10.4372   -5.5860   25.6589 C   0  0  0  0  0  0  0  0  0  0  0  0
    9.8870    1.3260   23.5730 C   0  0  0  0  0  0  0  0  0  0  0  0
    8.1890   -0.7180   20.8700 C   0  0  0  0  0  0  0  0  0  0  0  0
   13.5560    2.0002   23.4280 N   0  0  0  0  0  0  0  0  0  0  0  0
    6.7580    0.3810   17.8350 N   0  0  0  0  0  0  0  0  0  0  0  0
   13.4442    1.0306   24.3518 N   0  0  0  0  0  0  0  0  0  0  0  0
    7.3170   -0.1610   19.8550 N   0  0  0  0  0  0  0  0  0  0  0  0
    9.4560    0.1560   22.8130 N   0  0  0  0  0  0  0  0  0  0  0  0
    9.2543   -4.7552   25.5519 N   0  0  0  0  0  0  0  0  0  0  0  0
    9.2690    1.4140   20.9380 O   0  0  0  0  0  0  0  0  0  0  0  0
    3.0133    2.6526   19.3911 H   0  0  0  0  0  0  0  0  0  0  0  0
    3.6478    2.0143   21.6818 H   0  0  0  0  0  0  0  0  0  0  0  0
    4.4036    1.9735   17.4543 H   0  0  0  0  0  0  0  0  0  0  0  0
    5.7089    0.6922   22.1131 H   0  0  0  0  0  0  0  0  0  0  0  0
    8.9217   -0.1995   25.4232 H   0  0  0  0  0  0  0  0  0  0  0  0
   10.0643   -2.2341   21.8254 H   0  0  0  0  0  0  0  0  0  0  0  0
    8.6893   -2.3540   26.5808 H   0  0  0  0  0  0  0  0  0  0  0  0
    9.9257   -4.3898   22.9921 H   0  0  0  0  0  0  0  0  0  0  0  0
   12.0895    2.9562   22.2987 H   0  0  0  0  0  0  0  0  0  0  0  0
   11.9202   -0.1518   25.2857 H   0  0  0  0  0  0  0  0  0  0  0  0
    8.4865   -0.8061   18.1803 H   0  0  0  0  0  0  0  0  0  0  0  0
   15.0068   -0.3132   24.4165 H   0  0  0  0  0  0  0  0  0  0  0  0
   15.3758    1.3189   25.0698 H   0  0  0  0  0  0  0  0  0  0  0  0
   14.3676    0.1958   26.0170 H   0  0  0  0  0  0  0  0  0  0  0  0
    8.1744   -6.1904   26.6238 H   0  0  0  0  0  0  0  0  0  0  0  0
    7.6718   -4.4870   26.8924 H   0  0  0  0  0  0  0  0  0  0  0  0
    7.2494   -5.3166   25.3561 H   0  0  0  0  0  0  0  0  0  0  0  0
   10.1946   -6.4995   26.2216 H   0  0  0  0  0  0  0  0  0  0  0  0
   10.7865   -5.8578   24.6518 H   0  0  0  0  0  0  0  0  0  0  0  0
   11.2285   -5.0312   26.1842 H   0  0  0  0  0  0  0  0  0  0  0  0
    9.3974    1.2912   24.5523 H   0  0  0  0  0  0  0  0  0  0  0  0
    9.5159    2.2168   23.0553 H   0  0  0  0  0  0  0  0  0  0  0  0
    8.8262   -1.4533   20.3842 H   0  0  0  0  0  0  0  0  0  0  0  0
    7.5540   -1.1950   21.6130 H   0  0  0  0  0  0  0  0  0  0  0  0
  1  2  1  0  0  0  0
  1  3  2  0  0  0  0
  2  4  2  0  0  0  0
  3 13  1  0  0  0  0
  4 14  1  0  0  0  0
  5  7  2  0  0  0  0
  5 15  1  0  0  0  0
  6  8  1  0  0  0  0
  6 15  2  0  0  0  0
  7 16  1  0  0  0  0
  8 16  2  0  0  0  0
  9 12  1  0  0  0  0
  9 23  2  0  0  0  0
 10 12  2  0  0  0  0
 10 25  1  0  0  0  0
 11 24  2  0  0  0  0
 11 26  1  0  0  0  0
 12 21  1  0  0  0  0
 13 14  2  0  0  0  0
 13 24  1  0  0  0  0
 14 26  1  0  0  0  0
 15 27  1  0  0  0  0
 16 28  1  0  0  0  0
 17 22  1  0  0  0  0
 17 27  1  0  0  0  0
 17 29  2  0  0  0  0
 18 25  1  0  0  0  0
 19 28  1  0  0  0  0
 20 28  1  0  0  0  0
 21 27  1  0  0  0  0
 22 26  1  0  0  0  0
 23 25  1  0  0  0  0
  1 30  1  0  0  0  0
  2 31  1  0  0  0  0
  3 32  1  0  0  0  0
  4 33  1  0  0  0  0
  5 34  1  0  0  0  0
  6 35  1  0  0  0  0
  7 36  1  0  0  0  0
  8 37  1  0  0  0  0
  9 38  1  0  0  0  0
 10 39  1  0  0  0  0
 11 40  1  0  0  0  0
 18 41  1  0  0  0  0
 18 42  1  0  0  0  0
 18 43  1  0  0  0  0
 19 44  1  0  0  0  0
 19 45  1  0  0  0  0
 19 46  1  0  0  0  0
 20 47  1  0  0  0  0
 20 48  1  0  0  0  0
 20 49  1  0  0  0  0
 21 50  1  0  0  0  0
 21 51  1  0  0  0  0
 22 52  1  0  0  0  0
 22 53  1  0  0  0  0
M  END
> <clash_score>
0.6199410780228687

> <docking_score>
-9.979513168334961

> <overlap_score>
0.9767898917198181

$$$$
BENZO_366_1
  -OEChem-08222022203D

 53 56  0     0  0  0  0  0  0999 V2000
    3.9160    2.0630   19.5520 C   0  0  0  0  0  0  0  0  0  0  0  0
    4.2750    1.7050   20.8490 C   0  0  0  0  0  0  0  0  0  0  0  0
   13.4007    0.5725   24.7805 C   0  0  0  0  0  0  0  0  0  0  0  0
   12.0141    0.5273   24.6359 C   0  0  0  0  0  0  0  0  0  0  0  0
    4.6890    1.6810   18.4640 C   0  0  0  0  0  0  0  0  0  0  0  0
    5.4210    0.9600   21.0930 C   0  0  0  0  0  0  0  0  0  0  0  0
    9.0720   -1.1280   24.8640 C   0  0  0  0  0  0  0  0  0  0  0  0
    9.7200   -2.2600   22.8630 C   0  0  0  0  0  0  0  0  0  0  0  0
    8.9960   -2.3380   25.5320 C   0  0  0  0  0  0  0  0  0  0  0  0
    9.6730   -3.4710   23.5300 C   0  0  0  0  0  0  0  0  0  0  0  0
   14.1526    1.4666   24.0184 C   0  0  0  0  0  0  0  0  0  0  0  0
   12.1314    2.2702   22.9668 C   0  0  0  0  0  0  0  0  0  0  0  0
    7.6390   -0.2680   18.5410 C   0  0  0  0  0  0  0  0  0  0  0  0
   11.3794    1.3761   23.7290 C   0  0  0  0  0  0  0  0  0  0  0  0
    5.8300    0.9190   18.6970 C   0  0  0  0  0  0  0  0  0  0  0  0
    6.1790    0.5730   19.9990 C   0  0  0  0  0  0  0  0  0  0  0  0
    9.3350   -1.0880   23.5010 C   0  0  0  0  0  0  0  0  0  0  0  0
    9.3070   -3.5340   24.8780 C   0  0  0  0  0  0  0  0  0  0  0  0
   13.5180    2.3154   23.1115 C   0  0  0  0  0  0  0  0  0  0  0  0
    9.0420    0.3700   21.5280 C   0  0  0  0  0  0  0  0  0  0  0  0
    8.0128   -5.2151   26.1416 C   0  0  0  0  0  0  0  0  0  0  0  0
   10.4372   -5.5860   25.6589 C   0  0  0  0  0  0  0  0  0  0  0  0
    9.8870    1.3260   23.5730 C   0  0  0  0  0  0  0  0  0  0  0  0
    8.1890   -0.7180   20.8700 C   0  0  0  0  0  0  0  0  0  0  0  0
    6.7580    0.3810   17.8350 N   0  0  0  0  0  0  0  0  0  0  0  0
    7.3170   -0.1610   19.8550 N   0  0  0  0  0  0  0  0  0  0  0  0
    9.4560    0.1560   22.8130 N   0  0  0  0  0  0  0  0  0  0  0  0
    9.2543   -4.7552   25.5519 N   0  0  0  0  0  0  0  0  0  0  0  0
    9.2690    1.4140   20.9380 O   0  0  0  0  0  0  0  0  0  0  0  0
   14.4463    3.4175   22.1707 Cl  0  0  0  0  0  0  0  0  0  0  0  0
    3.0133    2.6526   19.3911 H   0  0  0  0  0  0  0  0  0  0  0  0
    3.6478    2.0143   21.6818 H   0  0  0  0  0  0  0  0  0  0  0  0
   13.8945   -0.0888   25.4867 H   0  0  0  0  0  0  0  0  0  0  0  0
   11.4361   -0.1726   25.2338 H   0  0  0  0  0  0  0  0  0  0  0  0
    4.4036    1.9735   17.4543 H   0  0  0  0  0  0  0  0  0  0  0  0
    5.7089    0.6922   22.1131 H   0  0  0  0  0  0  0  0  0  0  0  0
    8.9217   -0.1995   25.4232 H   0  0  0  0  0  0  0  0  0  0  0  0
   10.0643   -2.2341   21.8254 H   0  0  0  0  0  0  0  0  0  0  0  0
    8.6893   -2.3540   26.5808 H   0  0  0  0  0  0  0  0  0  0  0  0
    9.9257   -4.3898   22.9921 H   0  0  0  0  0  0  0  0  0  0  0  0
   15.2326    1.4907   24.1414 H   0  0  0  0  0  0  0  0  0  0  0  0
   11.6318    2.9303   22.2615 H   0  0  0  0  0  0  0  0  0  0  0  0
    8.4865   -0.8061   18.1803 H   0  0  0  0  0  0  0  0  0  0  0  0
    8.1744   -6.1904   26.6238 H   0  0  0  0  0  0  0  0  0  0  0  0
    7.6718   -4.4870   26.8924 H   0  0  0  0  0  0  0  0  0  0  0  0
    7.2494   -5.3166   25.3561 H   0  0  0  0  0  0  0  0  0  0  0  0
   10.1946   -6.4995   26.2216 H   0  0  0  0  0  0  0  0  0  0  0  0
   10.7865   -5.8578   24.6518 H   0  0  0  0  0  0  0  0  0  0  0  0
   11.2285   -5.0312   26.1842 H   0  0  0  0  0  0  0  0  0  0  0  0
    9.3974    1.2912   24.5523 H   0  0  0  0  0  0  0  0  0  0  0  0
    9.5159    2.2168   23.0553 H   0  0  0  0  0  0  0  0  0  0  0  0
    8.8262   -1.4533   20.3842 H   0  0  0  0  0  0  0  0  0  0  0  0
    7.5540   -1.1950   21.6130 H   0  0  0  0  0  0  0  0  0  0  0  0
  1  2  1  0  0  0  0
  1  5  2  0  0  0  0
  2  6  2  0  0  0  0
  3  4  2  0  0  0  0
  3 11  1  0  0  0  0
  4 14  1  0  0  0  0
  5 15  1  0  0  0  0
  6 16  1  0  0  0  0
  7  9  2  0  0  0  0
  7 17  1  0  0  0  0
  8 10  1  0  0  0  0
  8 17  2  0  0  0  0
  9 18  1  0  0  0  0
 10 18  2  0  0  0  0
 11 19  2  0  0  0  0
 12 14  2  0  0  0  0
 12 19  1  0  0  0  0
 13 25  2  0  0  0  0
 13 26  1  0  0  0  0
 14 23  1  0  0  0  0
 15 16  2  0  0  0  0
 15 25  1  0  0  0  0
 16 26  1  0  0  0  0
 17 27  1  0  0  0  0
 18 28  1  0  0  0  0
 19 30  1  0  0  0  0
 20 24  1  0  0  0  0
 20 27  1  0  0  0  0
 20 29  2  0  0  0  0
 21 28  1  0  0  0  0
 22 28  1  0  0  0  0
 23 27  1  0  0  0  0
 24 26  1  0  0  0  0
  1 31  1  0  0  0  0
  2 32  1  0  0  0  0
  3 33  1  0  0  0  0
  4 34  1  0  0  0  0
  5 35  1  0  0  0  0
  6 36  1  0  0  0  0
  7 37  1  0  0  0  0
  8 38  1  0  0  0  0
  9 39  1  0  0  0  0
 10 40  1  0  0  0  0
 11 41  1  0  0  0  0
 12 42  1  0  0  0  0
 13 43  1  0  0  0  0
 21 44  1  0  0  0  0
 21 45  1  0  0  0  0
 21 46  1  0  0  0  0
 22 47  1  0  0  0  0
 22 48  1  0  0  0  0
 22 49  1  0  0  0  0
 23 50  1  0  0  0  0
 23 51  1  0  0  0  0
 24 52  1  0  0  0  0
 24 53  1  0  0  0  0
M  END
> <clash_score>
0

> <docking_score>
-9.408478736877441

> <overlap_score>
0.9891859889030457

$$$$
BENZO_369_1
  -OEChem-08222022203D

 55 58  0     0  0  0  0  0  0999 V2000
   14.1526    1.4694   24.0176 C   0  0  0  0  0  0  0  0  0  0  0  0
   13.3741    0.8121   24.9701 C   0  0  0  0  0  0  0  0  0  0  0  0
   13.5446    2.0802   22.9208 C   0  0  0  0  0  0  0  0  0  0  0  0
    3.9160    2.0630   19.5520 C   0  0  0  0  0  0  0  0  0  0  0  0
    4.2750    1.7050   20.8490 C   0  0  0  0  0  0  0  0  0  0  0  0
   11.9875    0.7654   24.8258 C   0  0  0  0  0  0  0  0  0  0  0  0
   12.1580    2.0335   22.7765 C   0  0  0  0  0  0  0  0  0  0  0  0
    4.6890    1.6810   18.4640 C   0  0  0  0  0  0  0  0  0  0  0  0
    5.4210    0.9600   21.0930 C   0  0  0  0  0  0  0  0  0  0  0  0
    8.9960   -2.3380   25.5320 C   0  0  0  0  0  0  0  0  0  0  0  0
    9.6730   -3.4710   23.5300 C   0  0  0  0  0  0  0  0  0  0  0  0
    9.0720   -1.1280   24.8640 C   0  0  0  0  0  0  0  0  0  0  0  0
    9.7200   -2.2600   22.8630 C   0  0  0  0  0  0  0  0  0  0  0  0
    7.6390   -0.2680   18.5410 C   0  0  0  0  0  0  0  0  0  0  0  0
   11.3794    1.3761   23.7290 C   0  0  0  0  0  0  0  0  0  0  0  0
    5.8300    0.9190   18.6970 C   0  0  0  0  0  0  0  0  0  0  0  0
    6.1790    0.5730   19.9990 C   0  0  0  0  0  0  0  0  0  0  0  0
    9.3070   -3.5340   24.8780 C   0  0  0  0  0  0  0  0  0  0  0  0
    9.3350   -1.0880   23.5010 C   0  0  0  0  0  0  0  0  0  0  0  0
    9.5333   -6.0236   25.0413 C   0  0  0  0  0  0  0  0  0  0  0  0
    9.0420    0.3700   21.5280 C   0  0  0  0  0  0  0  0  0  0  0  0
   10.6330   -7.3747   26.8774 C   0  0  0  0  0  0  0  0  0  0  0  0
    9.8870    1.3260   23.5730 C   0  0  0  0  0  0  0  0  0  0  0  0
    9.3523   -7.0865   26.1148 C   0  0  0  0  0  0  0  0  0  0  0  0
    8.1890   -0.7180   20.8700 C   0  0  0  0  0  0  0  0  0  0  0  0
    6.7580    0.3810   17.8350 N   0  0  0  0  0  0  0  0  0  0  0  0
    7.3170   -0.1610   19.8550 N   0  0  0  0  0  0  0  0  0  0  0  0
    9.2546   -4.7422   25.5438 N   0  0  0  0  0  0  0  0  0  0  0  0
    9.4560    0.1560   22.8130 N   0  0  0  0  0  0  0  0  0  0  0  0
    9.8805   -6.3052   23.8991 O   0  0  0  0  0  0  0  0  0  0  0  0
    9.2690    1.4140   20.9380 O   0  0  0  0  0  0  0  0  0  0  0  0
   15.2322    1.5068   24.1308 H   0  0  0  0  0  0  0  0  0  0  0  0
   13.8473    0.3374   25.8248 H   0  0  0  0  0  0  0  0  0  0  0  0
   14.1503    2.5930   22.1795 H   0  0  0  0  0  0  0  0  0  0  0  0
    3.0133    2.6526   19.3911 H   0  0  0  0  0  0  0  0  0  0  0  0
    3.6478    2.0143   21.6818 H   0  0  0  0  0  0  0  0  0  0  0  0
   11.3889    0.2508   25.5729 H   0  0  0  0  0  0  0  0  0  0  0  0
   11.6930    2.5120   21.9187 H   0  0  0  0  0  0  0  0  0  0  0  0
    4.4036    1.9735   17.4543 H   0  0  0  0  0  0  0  0  0  0  0  0
    5.7089    0.6922   22.1131 H   0  0  0  0  0  0  0  0  0  0  0  0
    8.6895   -2.3529   26.5807 H   0  0  0  0  0  0  0  0  0  0  0  0
    9.9262   -4.3897   22.9916 H   0  0  0  0  0  0  0  0  0  0  0  0
    8.9224   -0.1998   25.4238 H   0  0  0  0  0  0  0  0  0  0  0  0
   10.0649   -2.2343   21.8258 H   0  0  0  0  0  0  0  0  0  0  0  0
    8.4865   -0.8061   18.1803 H   0  0  0  0  0  0  0  0  0  0  0  0
   11.4241   -7.7171   26.2022 H   0  0  0  0  0  0  0  0  0  0  0  0
   10.4629   -8.1531   27.6275 H   0  0  0  0  0  0  0  0  0  0  0  0
   10.9950   -6.4780   27.3910 H   0  0  0  0  0  0  0  0  0  0  0  0
    9.3974    1.2912   24.5523 H   0  0  0  0  0  0  0  0  0  0  0  0
    9.5159    2.2168   23.0553 H   0  0  0  0  0  0  0  0  0  0  0  0
    8.5795   -6.7463   26.8137 H   0  0  0  0  0  0  0  0  0  0  0  0
    8.9965   -8.0064   25.6366 H   0  0  0  0  0  0  0  0  0  0  0  0
    8.8262   -1.4533   20.3842 H   0  0  0  0  0  0  0  0  0  0  0  0
    7.5540   -1.1950   21.6130 H   0  0  0  0  0  0  0  0  0  0  0  0
    8.9776   -4.7057   26.5317 H   0  0  0  0  0  0  0  0  0  0  0  0
  1  2  1  0  0  0  0
  1  3  2  0  0  0  0
  2  6  2  0  0  0  0
  3  7  1  0  0  0  0
  4  5  1  0  0  0  0
  4  8  2  0  0  0  0
  5  9  2  0  0  0  0
  6 15  1  0  0  0  0
  7 15  2  0  0  0  0
  8 16  1  0  0  0  0
  9 17  1  0  0  0  0
 10 12  2  0  0  0  0
 10 18  1  0  0  0  0
 11 13  1  0  0  0  0
 11 18  2  0  0  0  0
 12 19  1  0  0  0  0
 13 19  2  0  0  0  0
 14 26  2  0  0  0  0
 14 27  1  0  0  0  0
 15 23  1  0  0  0  0
 16 17  2  0  0  0  0
 16 26  1  0  0  0  0
 17 27  1  0  0  0  0
 18 28  1  0  0  0  0
 19 29  1  0  0  0  0
 20 24  1  0  0  0  0
 20 28  1  0  0  0  0
 20 30  2  0  0  0  0
 21 25  1  0  0  0  0
 21 29  1  0  0  0  0
 21 31  2  0  0  0  0
 22 24  1  0  0  0  0
 23 29  1  0  0  0  0
 25 27  1  0  0  0  0
  1 32  1  0  0  0  0
  2 33  1  0  0  0  0
  3 34  1  0  0  0  0
  4 35  1  0  0  0  0
  5 36  1  0  0  0  0
  6 37  1  0  0  0  0
  7 38  1  0  0  0  0
  8 39  1  0  0  0  0
  9 40  1  0  0  0  0
 10 41  1  0  0  0  0
 11 42  1  0  0  0  0
 12 43  1  0  0  0  0
 13 44  1  0  0  0  0
 14 45  1  0  0  0  0
 22 46  1  0  0  0  0
 22 47  1  0  0  0  0
 22 48  1  0  0  0  0
 23 49  1  0  0  0  0
 23 50  1  0  0  0  0
 24 51  1  0  0  0  0
 24 52  1  0  0  0  0
 25 53  1  0  0  0  0
 25 54  1  0  0  0  0
 28 55  1  0  0  0  0
M  END
> <clash_score>
1.498603890647447

> <docking_score>
-7.077194690704346

> <overlap_score>
0.9802291989326477

$$$$
BENZO_368_1
  -OEChem-08222022203D

 52 55  0     0  0  0  0  0  0999 V2000
    3.9160    2.0630   19.5520 C   0  0  0  0  0  0  0  0  0  0  0  0
    4.2750    1.7050   20.8490 C   0  0  0  0  0  0  0  0  0  0  0  0
    4.6890    1.6810   18.4640 C   0  0  0  0  0  0  0  0  0  0  0  0
    5.4210    0.9600   21.0930 C   0  0  0  0  0  0  0  0  0  0  0  0
    8.9960   -2.3380   25.5320 C   0  0  0  0  0  0  0  0  0  0  0  0
    9.6730   -3.4710   23.5300 C   0  0  0  0  0  0  0  0  0  0  0  0
    9.0720   -1.1280   24.8640 C   0  0  0  0  0  0  0  0  0  0  0  0
    9.7200   -2.2600   22.8630 C   0  0  0  0  0  0  0  0  0  0  0  0
   12.2111    0.2208   23.7905 C   0  0  0  0  0  0  0  0  0  0  0  0
   13.5412    0.5479   23.9363 C   0  0  0  0  0  0  0  0  0  0  0  0
   12.1057    2.5424   23.8305 C   0  0  0  0  0  0  0  0  0  0  0  0
    7.6390   -0.2680   18.5410 C   0  0  0  0  0  0  0  0  0  0  0  0
   11.3794    1.3761   23.7290 C   0  0  0  0  0  0  0  0  0  0  0  0
    5.8300    0.9190   18.6970 C   0  0  0  0  0  0  0  0  0  0  0  0
    6.1790    0.5730   19.9990 C   0  0  0  0  0  0  0  0  0  0  0  0
    9.3070   -3.5340   24.8780 C   0  0  0  0  0  0  0  0  0  0  0  0
    9.3350   -1.0880   23.5010 C   0  0  0  0  0  0  0  0  0  0  0  0
    9.5333   -6.0236   25.0413 C   0  0  0  0  0  0  0  0  0  0  0  0
    9.0420    0.3700   21.5280 C   0  0  0  0  0  0  0  0  0  0  0  0
   10.6330   -7.3747   26.8774 C   0  0  0  0  0  0  0  0  0  0  0  0
    9.8870    1.3260   23.5730 C   0  0  0  0  0  0  0  0  0  0  0  0
    9.3523   -7.0865   26.1148 C   0  0  0  0  0  0  0  0  0  0  0  0
    8.1890   -0.7180   20.8700 C   0  0  0  0  0  0  0  0  0  0  0  0
    6.7580    0.3810   17.8350 N   0  0  0  0  0  0  0  0  0  0  0  0
    7.3170   -0.1610   19.8550 N   0  0  0  0  0  0  0  0  0  0  0  0
    9.2546   -4.7422   25.5438 N   0  0  0  0  0  0  0  0  0  0  0  0
    9.4560    0.1560   22.8130 N   0  0  0  0  0  0  0  0  0  0  0  0
    9.8805   -6.3052   23.8991 O   0  0  0  0  0  0  0  0  0  0  0  0
    9.2690    1.4140   20.9380 O   0  0  0  0  0  0  0  0  0  0  0  0
   13.7831    2.2420   23.9988 S   0  0  0  0  0  0  0  0  0  0  0  0
    3.0133    2.6526   19.3911 H   0  0  0  0  0  0  0  0  0  0  0  0
    3.6478    2.0143   21.6818 H   0  0  0  0  0  0  0  0  0  0  0  0
    4.4036    1.9735   17.4543 H   0  0  0  0  0  0  0  0  0  0  0  0
    5.7089    0.6922   22.1131 H   0  0  0  0  0  0  0  0  0  0  0  0
    8.6895   -2.3529   26.5807 H   0  0  0  0  0  0  0  0  0  0  0  0
    9.9262   -4.3897   22.9916 H   0  0  0  0  0  0  0  0  0  0  0  0
    8.9224   -0.1998   25.4238 H   0  0  0  0  0  0  0  0  0  0  0  0
   10.0649   -2.2343   21.8258 H   0  0  0  0  0  0  0  0  0  0  0  0
   11.8558   -0.8003   23.7315 H   0  0  0  0  0  0  0  0  0  0  0  0
   14.3824   -0.1267   24.0100 H   0  0  0  0  0  0  0  0  0  0  0  0
   11.7354    3.5581   23.8155 H   0  0  0  0  0  0  0  0  0  0  0  0
    8.4865   -0.8061   18.1803 H   0  0  0  0  0  0  0  0  0  0  0  0
   11.4241   -7.7171   26.2022 H   0  0  0  0  0  0  0  0  0  0  0  0
   10.4629   -8.1531   27.6275 H   0  0  0  0  0  0  0  0  0  0  0  0
   10.9950   -6.4780   27.3910 H   0  0  0  0  0  0  0  0  0  0  0  0
    9.3974    1.2912   24.5523 H   0  0  0  0  0  0  0  0  0  0  0  0
    9.5159    2.2168   23.0553 H   0  0  0  0  0  0  0  0  0  0  0  0
    8.5795   -6.7463   26.8137 H   0  0  0  0  0  0  0  0  0  0  0  0
    8.9965   -8.0064   25.6366 H   0  0  0  0  0  0  0  0  0  0  0  0
    8.8262   -1.4533   20.3842 H   0  0  0  0  0  0  0  0  0  0  0  0
    7.5540   -1.1950   21.6130 H   0  0  0  0  0  0  0  0  0  0  0  0
    8.9776   -4.7057   26.5317 H   0  0  0  0  0  0  0  0  0  0  0  0
  1  2  1  0  0  0  0
  1  3  2  0  0  0  0
  2  4  2  0  0  0  0
  3 14  1  0  0  0  0
  4 15  1  0  0  0  0
  5  7  2  0  0  0  0
  5 16  1  0  0  0  0
  6  8  1  0  0  0  0
  6 16  2  0  0  0  0
  7 17  1  0  0  0  0
  8 17  2  0  0  0  0
  9 10  2  0  0  0  0
  9 13  1  0  0  0  0
 10 30  1  0  0  0  0
 11 13  2  0  0  0  0
 11 30  1  0  0  0  0
 12 24  2  0  0  0  0
 12 25  1  0  0  0  0
 13 21  1  0  0  0  0
 14 15  2  0  0  0  0
 14 24  1  0  0  0  0
 15 25  1  0  0  0  0
 16 26  1  0  0  0  0
 17 27  1  0  0  0  0
 18 22  1  0  0  0  0
 18 26  1  0  0  0  0
 18 28  2  0  0  0  0
 19 23  1  0  0  0  0
 19 27  1  0  0  0  0
 19 29  2  0  0  0  0
 20 22  1  0  0  0  0
 21 27  1  0  0  0  0
 23 25  1  0  0  0  0
  1 31  1  0  0  0  0
  2 32  1  0  0  0  0
  3 33  1  0  0  0  0
  4 34  1  0  0  0  0
  5 35  1  0  0  0  0
  6 36  1  0  0  0  0
  7 37  1  0  0  0  0
  8 38  1  0  0  0  0
  9 39  1  0  0  0  0
 10 40  1  0  0  0  0
 11 41  1  0  0  0  0
 12 42  1  0  0  0  0
 20 43  1  0  0  0  0
 20 44  1  0  0  0  0
 20 45  1  0  0  0  0
 21 46  1  0  0  0  0
 21 47  1  0  0  0  0
 22 48  1  0  0  0  0
 22 49  1  0  0  0  0
 23 50  1  0  0  0  0
 23 51  1  0  0  0  0
 26 52  1  0  0  0  0
M  END
> <clash_score>
1.498603890647447

> <docking_score>
-6.350369453430176

> <overlap_score>
0.9652436375617981

$$$$
BENZO_373_1
  -OEChem-08222022203D

 60 64  0     0  0  0  0  0  0999 V2000
   14.1526    1.4694   24.0176 C   0  0  0  0  0  0  0  0  0  0  0  0
   13.3741    0.8121   24.9701 C   0  0  0  0  0  0  0  0  0  0  0  0
   13.5446    2.0802   22.9208 C   0  0  0  0  0  0  0  0  0  0  0  0
    3.9160    2.0630   19.5520 C   0  0  0  0  0  0  0  0  0  0  0  0
    4.2750    1.7050   20.8490 C   0  0  0  0  0  0  0  0  0  0  0  0
   11.9875    0.7654   24.8258 C   0  0  0  0  0  0  0  0  0  0  0  0
   12.1580    2.0335   22.7765 C   0  0  0  0  0  0  0  0  0  0  0  0
    4.6890    1.6810   18.4640 C   0  0  0  0  0  0  0  0  0  0  0  0
    5.4210    0.9600   21.0930 C   0  0  0  0  0  0  0  0  0  0  0  0
    8.9960   -2.3380   25.5320 C   0  0  0  0  0  0  0  0  0  0  0  0
    9.6730   -3.4710   23.5300 C   0  0  0  0  0  0  0  0  0  0  0  0
    9.0720   -1.1280   24.8640 C   0  0  0  0  0  0  0  0  0  0  0  0
    9.7200   -2.2600   22.8630 C   0  0  0  0  0  0  0  0  0  0  0  0
    7.6390   -0.2680   18.5410 C   0  0  0  0  0  0  0  0  0  0  0  0
   11.3794    1.3761   23.7290 C   0  0  0  0  0  0  0  0  0  0  0  0
    5.8300    0.9190   18.6970 C   0  0  0  0  0  0  0  0  0  0  0  0
    6.1790    0.5730   19.9990 C   0  0  0  0  0  0  0  0  0  0  0  0
    9.3070   -3.5340   24.8780 C   0  0  0  0  0  0  0  0  0  0  0  0
    9.3350   -1.0880   23.5010 C   0  0  0  0  0  0  0  0  0  0  0  0
    9.0420    0.3700   21.5280 C   0  0  0  0  0  0  0  0  0  0  0  0
    7.3635   -6.1361   27.1888 C   0  0  0  0  0  0  0  0  0  0  0  0
    8.1961   -4.9735   27.7341 C   0  0  0  0  0  0  0  0  0  0  0  0
    7.1942   -6.0394   25.6709 C   0  0  0  0  0  0  0  0  0  0  0  0
    9.5196   -4.8490   26.9797 C   0  0  0  0  0  0  0  0  0  0  0  0
    8.5442   -5.8838   24.9639 C   0  0  0  0  0  0  0  0  0  0  0  0
    9.8870    1.3260   23.5730 C   0  0  0  0  0  0  0  0  0  0  0  0
    8.1890   -0.7180   20.8700 C   0  0  0  0  0  0  0  0  0  0  0  0
    6.7580    0.3810   17.8350 N   0  0  0  0  0  0  0  0  0  0  0  0
    7.3170   -0.1610   19.8550 N   0  0  0  0  0  0  0  0  0  0  0  0
    9.2562   -4.7384   25.5422 N   0  0  0  0  0  0  0  0  0  0  0  0
    9.4560    0.1560   22.8130 N   0  0  0  0  0  0  0  0  0  0  0  0
    9.2690    1.4140   20.9380 O   0  0  0  0  0  0  0  0  0  0  0  0
   15.2322    1.5068   24.1308 H   0  0  0  0  0  0  0  0  0  0  0  0
   13.8473    0.3374   25.8248 H   0  0  0  0  0  0  0  0  0  0  0  0
   14.1503    2.5930   22.1795 H   0  0  0  0  0  0  0  0  0  0  0  0
    3.0133    2.6526   19.3911 H   0  0  0  0  0  0  0  0  0  0  0  0
    3.6478    2.0143   21.6818 H   0  0  0  0  0  0  0  0  0  0  0  0
   11.3889    0.2508   25.5729 H   0  0  0  0  0  0  0  0  0  0  0  0
   11.6930    2.5120   21.9187 H   0  0  0  0  0  0  0  0  0  0  0  0
    4.4036    1.9735   17.4543 H   0  0  0  0  0  0  0  0  0  0  0  0
    5.7089    0.6922   22.1131 H   0  0  0  0  0  0  0  0  0  0  0  0
    8.6905   -2.3533   26.5810 H   0  0  0  0  0  0  0  0  0  0  0  0
    9.9266   -4.3896   22.9917 H   0  0  0  0  0  0  0  0  0  0  0  0
    8.9233   -0.1992   25.4231 H   0  0  0  0  0  0  0  0  0  0  0  0
   10.0650   -2.2330   21.8256 H   0  0  0  0  0  0  0  0  0  0  0  0
    8.4865   -0.8061   18.1803 H   0  0  0  0  0  0  0  0  0  0  0  0
    7.8482   -7.0901   27.4469 H   0  0  0  0  0  0  0  0  0  0  0  0
    6.3760   -6.1438   27.6724 H   0  0  0  0  0  0  0  0  0  0  0  0
    7.6307   -4.0424   27.6403 H   0  0  0  0  0  0  0  0  0  0  0  0
    8.3915   -5.1310   28.7968 H   0  0  0  0  0  0  0  0  0  0  0  0
    6.6888   -6.9376   25.3010 H   0  0  0  0  0  0  0  0  0  0  0  0
    6.5515   -5.1859   25.4257 H   0  0  0  0  0  0  0  0  0  0  0  0
   10.0492   -3.9640   27.3414 H   0  0  0  0  0  0  0  0  0  0  0  0
   10.1431   -5.7254   27.1778 H   0  0  0  0  0  0  0  0  0  0  0  0
    9.1338   -6.7931   25.0868 H   0  0  0  0  0  0  0  0  0  0  0  0
    8.3656   -5.7264   23.8998 H   0  0  0  0  0  0  0  0  0  0  0  0
    9.3974    1.2912   24.5523 H   0  0  0  0  0  0  0  0  0  0  0  0
    9.5159    2.2168   23.0554 H   0  0  0  0  0  0  0  0  0  0  0  0
    8.8326   -1.4554   20.3912 H   0  0  0  0  0  0  0  0  0  0  0  0
    7.5604   -1.1971   21.6201 H   0  0  0  0  0  0  0  0  0  0  0  0
  1  2  1  0  0  0  0
  1  3  2  0  0  0  0
  2  6  2  0  0  0  0
  3  7  1  0  0  0  0
  4  5  1  0  0  0  0
  4  8  2  0  0  0  0
  5  9  2  0  0  0  0
  6 15  1  0  0  0  0
  7 15  2  0  0  0  0
  8 16  1  0  0  0  0
  9 17  1  0  0  0  0
 10 12  2  0  0  0  0
 10 18  1  0  0  0  0
 11 13  1  0  0  0  0
 11 18  2  0  0  0  0
 12 19  1  0  0  0  0
 13 19  2  0  0  0  0
 14 28  2  0  0  0  0
 14 29  1  0  0  0  0
 15 26  1  0  0  0  0
 16 17  2  0  0  0  0
 16 28  1  0  0  0  0
 17 29  1  0  0  0  0
 18 30  1  0  0  0  0
 19 31  1  0  0  0  0
 20 27  1  0  0  0  0
 20 31  1  0  0  0  0
 20 32  2  0  0  0  0
 21 22  1  0  0  0  0
 21 23  1  0  0  0  0
 22 24  1  0  0  0  0
 23 25  1  0  0  0  0
 24 30  1  0  0  0  0
 25 30  1  0  0  0  0
 26 31  1  0  0  0  0
 27 29  1  0  0  0  0
  1 33  1  0  0  0  0
  2 34  1  0  0  0  0
  3 35  1  0  0  0  0
  4 36  1  0  0  0  0
  5 37  1  0  0  0  0
  6 38  1  0  0  0  0
  7 39  1  0  0  0  0
  8 40  1  0  0  0  0
  9 41  1  0  0  0  0
 10 42  1  0  0  0  0
 11 43  1  0  0  0  0
 12 44  1  0  0  0  0
 13 45  1  0  0  0  0
 14 46  1  0  0  0  0
 21 47  1  0  0  0  0
 21 48  1  0  0  0  0
 22 49  1  0  0  0  0
 22 50  1  0  0  0  0
 23 51  1  0  0  0  0
 23 52  1  0  0  0  0
 24 53  1  0  0  0  0
 24 54  1  0  0  0  0
 25 55  1  0  0  0  0
 25 56  1  0  0  0  0
 26 57  1  0  0  0  0
 26 58  1  0  0  0  0
 27 59  1  0  0  0  0
 27 60  1  0  0  0  0
M  END
> <clash_score>
0

> <docking_score>
-9.367284774780273

> <overlap_score>
0.9931822419166565

$$$$
BENZO_372_1
  -OEChem-08222022203D

 57 61  0     0  0  0  0  0  0999 V2000
    3.9160    2.0630   19.5520 C   0  0  0  0  0  0  0  0  0  0  0  0
    4.2750    1.7050   20.8490 C   0  0  0  0  0  0  0  0  0  0  0  0
    4.6890    1.6810   18.4640 C   0  0  0  0  0  0  0  0  0  0  0  0
    5.4210    0.9600   21.0930 C   0  0  0  0  0  0  0  0  0  0  0  0
    8.9960   -2.3380   25.5320 C   0  0  0  0  0  0  0  0  0  0  0  0
    9.6730   -3.4710   23.5300 C   0  0  0  0  0  0  0  0  0  0  0  0
    9.0720   -1.1280   24.8640 C   0  0  0  0  0  0  0  0  0  0  0  0
    9.7200   -2.2600   22.8630 C   0  0  0  0  0  0  0  0  0  0  0  0
   12.2913    1.4279   22.6355 C   0  0  0  0  0  0  0  0  0  0  0  0
   13.6024    1.4662   23.0564 C   0  0  0  0  0  0  0  0  0  0  0  0
   12.0284    1.3764   24.9443 C   0  0  0  0  0  0  0  0  0  0  0  0
    7.6390   -0.2680   18.5410 C   0  0  0  0  0  0  0  0  0  0  0  0
   11.3794    1.3761   23.7290 C   0  0  0  0  0  0  0  0  0  0  0  0
    5.8300    0.9190   18.6970 C   0  0  0  0  0  0  0  0  0  0  0  0
    6.1790    0.5730   19.9990 C   0  0  0  0  0  0  0  0  0  0  0  0
    9.3070   -3.5340   24.8780 C   0  0  0  0  0  0  0  0  0  0  0  0
    9.3350   -1.0880   23.5010 C   0  0  0  0  0  0  0  0  0  0  0  0
    9.0420    0.3700   21.5280 C   0  0  0  0  0  0  0  0  0  0  0  0
    7.2235   -6.6199   26.3009 C   0  0  0  0  0  0  0  0  0  0  0  0
    7.4293   -5.3101   27.0652 C   0  0  0  0  0  0  0  0  0  0  0  0
    7.7217   -6.5099   24.8580 C   0  0  0  0  0  0  0  0  0  0  0  0
    8.8782   -4.8357   26.9548 C   0  0  0  0  0  0  0  0  0  0  0  0
    9.1652   -6.0007   24.7995 C   0  0  0  0  0  0  0  0  0  0  0  0
    9.8870    1.3260   23.5730 C   0  0  0  0  0  0  0  0  0  0  0  0
    8.1890   -0.7180   20.8700 C   0  0  0  0  0  0  0  0  0  0  0  0
    6.7580    0.3810   17.8350 N   0  0  0  0  0  0  0  0  0  0  0  0
    7.3170   -0.1610   19.8550 N   0  0  0  0  0  0  0  0  0  0  0  0
    9.2562   -4.7384   25.5422 N   0  0  0  0  0  0  0  0  0  0  0  0
    9.4560    0.1560   22.8130 N   0  0  0  0  0  0  0  0  0  0  0  0
    9.2690    1.4140   20.9380 O   0  0  0  0  0  0  0  0  0  0  0  0
   13.7301    1.4394   24.7638 S   0  0  0  0  0  0  0  0  0  0  0  0
    3.0133    2.6526   19.3911 H   0  0  0  0  0  0  0  0  0  0  0  0
    3.6478    2.0143   21.6818 H   0  0  0  0  0  0  0  0  0  0  0  0
    4.4036    1.9735   17.4543 H   0  0  0  0  0  0  0  0  0  0  0  0
    5.7089    0.6922   22.1131 H   0  0  0  0  0  0  0  0  0  0  0  0
    8.6905   -2.3533   26.5810 H   0  0  0  0  0  0  0  0  0  0  0  0
    9.9266   -4.3896   22.9917 H   0  0  0  0  0  0  0  0  0  0  0  0
    8.9233   -0.1992   25.4231 H   0  0  0  0  0  0  0  0  0  0  0  0
   10.0650   -2.2330   21.8256 H   0  0  0  0  0  0  0  0  0  0  0  0
   12.0045    1.4365   21.5915 H   0  0  0  0  0  0  0  0  0  0  0  0
   14.4914    1.5078   22.4431 H   0  0  0  0  0  0  0  0  0  0  0  0
   11.5886    1.3416   25.9314 H   0  0  0  0  0  0  0  0  0  0  0  0
    8.4865   -0.8061   18.1803 H   0  0  0  0  0  0  0  0  0  0  0  0
    7.7559   -7.4347   26.8149 H   0  0  0  0  0  0  0  0  0  0  0  0
    6.1572   -6.8883   26.3055 H   0  0  0  0  0  0  0  0  0  0  0  0
    6.7602   -4.5435   26.6651 H   0  0  0  0  0  0  0  0  0  0  0  0
    7.1684   -5.4551   28.1155 H   0  0  0  0  0  0  0  0  0  0  0  0
    7.6595   -7.4899   24.3736 H   0  0  0  0  0  0  0  0  0  0  0  0
    7.0706   -5.8317   24.2943 H   0  0  0  0  0  0  0  0  0  0  0  0
    8.9681   -3.8621   27.4435 H   0  0  0  0  0  0  0  0  0  0  0  0
    9.5387   -5.5390   27.4697 H   0  0  0  0  0  0  0  0  0  0  0  0
    9.8374   -6.7413   25.2344 H   0  0  0  0  0  0  0  0  0  0  0  0
    9.4414   -5.8515   23.7552 H   0  0  0  0  0  0  0  0  0  0  0  0
    9.3974    1.2912   24.5523 H   0  0  0  0  0  0  0  0  0  0  0  0
    9.5159    2.2168   23.0554 H   0  0  0  0  0  0  0  0  0  0  0  0
    8.8326   -1.4554   20.3912 H   0  0  0  0  0  0  0  0  0  0  0  0
    7.5604   -1.1971   21.6201 H   0  0  0  0  0  0  0  0  0  0  0  0
  1  2  1  0  0  0  0
  1  3  2  0  0  0  0
  2  4  2  0  0  0  0
  3 14  1  0  0  0  0
  4 15  1  0  0  0  0
  5  7  2  0  0  0  0
  5 16  1  0  0  0  0
  6  8  1  0  0  0  0
  6 16  2  0  0  0  0
  7 17  1  0  0  0  0
  8 17  2  0  0  0  0
  9 10  2  0  0  0  0
  9 13  1  0  0  0  0
 10 31  1  0  0  0  0
 11 13  2  0  0  0  0
 11 31  1  0  0  0  0
 12 26  2  0  0  0  0
 12 27  1  0  0  0  0
 13 24  1  0  0  0  0
 14 15  2  0  0  0  0
 14 26  1  0  0  0  0
 15 27  1  0  0  0  0
 16 28  1  0  0  0  0
 17 29  1  0  0  0  0
 18 25  1  0  0  0  0
 18 29  1  0  0  0  0
 18 30  2  0  0  0  0
 19 20  1  0  0  0  0
 19 21  1  0  0  0  0
 20 22  1  0  0  0  0
 21 23  1  0  0  0  0
 22 28  1  0  0  0  0
 23 28  1  0  0  0  0
 24 29  1  0  0  0  0
 25 27  1  0  0  0  0
  1 32  1  0  0  0  0
  2 33  1  0  0  0  0
  3 34  1  0  0  0  0
  4 35  1  0  0  0  0
  5 36  1  0  0  0  0
  6 37  1  0  0  0  0
  7 38  1  0  0  0  0
  8 39  1  0  0  0  0
  9 40  1  0  0  0  0
 10 41  1  0  0  0  0
 11 42  1  0  0  0  0
 12 43  1  0  0  0  0
 19 44  1  0  0  0  0
 19 45  1  0  0  0  0
 20 46  1  0  0  0  0
 20 47  1  0  0  0  0
 21 48  1  0  0  0  0
 21 49  1  0  0  0  0
 22 50  1  0  0  0  0
 22 51  1  0  0  0  0
 23 52  1  0  0  0  0
 23 53  1  0  0  0  0
 24 54  1  0  0  0  0
 24 55  1  0  0  0  0
 25 56  1  0  0  0  0
 25 57  1  0  0  0  0
M  END
> <clash_score>
0

> <docking_score>
-9.269758224487305

> <overlap_score>
0.9782362580299377

$$$$
BENZO_371_1
  -OEChem-08222022203D

 55 58  0     0  0  0  0  0  0999 V2000
    3.9160    2.0630   19.5520 C   0  0  0  0  0  0  0  0  0  0  0  0
    4.2750    1.7050   20.8490 C   0  0  0  0  0  0  0  0  0  0  0  0
    4.6890    1.6810   18.4640 C   0  0  0  0  0  0  0  0  0  0  0  0
    5.4210    0.9600   21.0930 C   0  0  0  0  0  0  0  0  0  0  0  0
    8.9960   -2.3380   25.5320 C   0  0  0  0  0  0  0  0  0  0  0  0
    9.6730   -3.4710   23.5300 C   0  0  0  0  0  0  0  0  0  0  0  0
    9.0720   -1.1280   24.8640 C   0  0  0  0  0  0  0  0  0  0  0  0
    9.7200   -2.2600   22.8630 C   0  0  0  0  0  0  0  0  0  0  0  0
   12.2914    2.2071   23.0512 C   0  0  0  0  0  0  0  0  0  0  0  0
   12.1614    0.6214   24.5689 C   0  0  0  0  0  0  0  0  0  0  0  0
    7.6390   -0.2680   18.5410 C   0  0  0  0  0  0  0  0  0  0  0  0
   11.3794    1.3761   23.7290 C   0  0  0  0  0  0  0  0  0  0  0  0
    5.8300    0.9190   18.6970 C   0  0  0  0  0  0  0  0  0  0  0  0
    6.1790    0.5730   19.9990 C   0  0  0  0  0  0  0  0  0  0  0  0
    9.3070   -3.5340   24.8780 C   0  0  0  0  0  0  0  0  0  0  0  0
    9.3350   -1.0880   23.5010 C   0  0  0  0  0  0  0  0  0  0  0  0
    9.5333   -6.0236   25.0413 C   0  0  0  0  0  0  0  0  0  0  0  0
    9.0420    0.3700   21.5280 C   0  0  0  0  0  0  0  0  0  0  0  0
   10.6330   -7.3747   26.8774 C   0  0  0  0  0  0  0  0  0  0  0  0
   14.6267    0.5248   25.0067 C   0  0  0  0  0  0  0  0  0  0  0  0
    9.8870    1.3260   23.5730 C   0  0  0  0  0  0  0  0  0  0  0  0
    9.3523   -7.0865   26.1148 C   0  0  0  0  0  0  0  0  0  0  0  0
    8.1890   -0.7180   20.8700 C   0  0  0  0  0  0  0  0  0  0  0  0
   13.5560    2.0002   23.4280 N   0  0  0  0  0  0  0  0  0  0  0  0
    6.7580    0.3810   17.8350 N   0  0  0  0  0  0  0  0  0  0  0  0
   13.4442    1.0306   24.3518 N   0  0  0  0  0  0  0  0  0  0  0  0
    7.3170   -0.1610   19.8550 N   0  0  0  0  0  0  0  0  0  0  0  0
    9.2546   -4.7422   25.5438 N   0  0  0  0  0  0  0  0  0  0  0  0
    9.4560    0.1560   22.8130 N   0  0  0  0  0  0  0  0  0  0  0  0
    9.8805   -6.3052   23.8991 O   0  0  0  0  0  0  0  0  0  0  0  0
    9.2690    1.4140   20.9380 O   0  0  0  0  0  0  0  0  0  0  0  0
    3.0133    2.6526   19.3911 H   0  0  0  0  0  0  0  0  0  0  0  0
    3.6478    2.0143   21.6818 H   0  0  0  0  0  0  0  0  0  0  0  0
    4.4036    1.9735   17.4543 H   0  0  0  0  0  0  0  0  0  0  0  0
    5.7089    0.6922   22.1131 H   0  0  0  0  0  0  0  0  0  0  0  0
    8.6895   -2.3529   26.5807 H   0  0  0  0  0  0  0  0  0  0  0  0
    9.9262   -4.3897   22.9916 H   0  0  0  0  0  0  0  0  0  0  0  0
    8.9224   -0.1998   25.4238 H   0  0  0  0  0  0  0  0  0  0  0  0
   10.0649   -2.2343   21.8258 H   0  0  0  0  0  0  0  0  0  0  0  0
   12.0895    2.9562   22.2987 H   0  0  0  0  0  0  0  0  0  0  0  0
   11.9202   -0.1518   25.2857 H   0  0  0  0  0  0  0  0  0  0  0  0
    8.4865   -0.8061   18.1803 H   0  0  0  0  0  0  0  0  0  0  0  0
   11.4241   -7.7171   26.2022 H   0  0  0  0  0  0  0  0  0  0  0  0
   10.4629   -8.1531   27.6275 H   0  0  0  0  0  0  0  0  0  0  0  0
   10.9950   -6.4780   27.3910 H   0  0  0  0  0  0  0  0  0  0  0  0
   15.0068   -0.3132   24.4165 H   0  0  0  0  0  0  0  0  0  0  0  0
   15.3758    1.3189   25.0698 H   0  0  0  0  0  0  0  0  0  0  0  0
   14.3676    0.1958   26.0170 H   0  0  0  0  0  0  0  0  0  0  0  0
    9.3974    1.2912   24.5523 H   0  0  0  0  0  0  0  0  0  0  0  0
    9.5159    2.2168   23.0553 H   0  0  0  0  0  0  0  0  0  0  0  0
    8.5795   -6.7463   26.8137 H   0  0  0  0  0  0  0  0  0  0  0  0
    8.9965   -8.0064   25.6366 H   0  0  0  0  0  0  0  0  0  0  0  0
    8.8262   -1.4533   20.3842 H   0  0  0  0  0  0  0  0  0  0  0  0
    7.5540   -1.1950   21.6130 H   0  0  0  0  0  0  0  0  0  0  0  0
    8.9776   -4.7057   26.5317 H   0  0  0  0  0  0  0  0  0  0  0  0
  1  2  1  0  0  0  0
  1  3  2  0  0  0  0
  2  4  2  0  0  0  0
  3 13  1  0  0  0  0
  4 14  1  0  0  0  0
  5  7  2  0  0  0  0
  5 15  1  0  0  0  0
  6  8  1  0  0  0  0
  6 15  2  0  0  0  0
  7 16  1  0  0  0  0
  8 16  2  0  0  0  0
  9 12  1  0  0  0  0
  9 24  2  0  0  0  0
 10 12  2  0  0  0  0
 10 26  1  0  0  0  0
 11 25  2  0  0  0  0
 11 27  1  0  0  0  0
 12 21  1  0  0  0  0
 13 14  2  0  0  0  0
 13 25  1  0  0  0  0
 14 27  1  0  0  0  0
 15 28  1  0  0  0  0
 16 29  1  0  0  0  0
 17 22  1  0  0  0  0
 17 28  1  0  0  0  0
 17 30  2  0  0  0  0
 18 23  1  0  0  0  0
 18 29  1  0  0  0  0
 18 31  2  0  0  0  0
 19 22  1  0  0  0  0
 20 26  1  0  0  0  0
 21 29  1  0  0  0  0
 23 27  1  0  0  0  0
 24 26  1  0  0  0  0
  1 32  1  0  0  0  0
  2 33  1  0  0  0  0
  3 34  1  0  0  0  0
  4 35  1  0  0  0  0
  5 36  1  0  0  0  0
  6 37  1  0  0  0  0
  7 38  1  0  0  0  0
  8 39  1  0  0  0  0
  9 40  1  0  0  0  0
 10 41  1  0  0  0  0
 11 42  1  0  0  0  0
 19 43  1  0  0  0  0
 19 44  1  0  0  0  0
 19 45  1  0  0  0  0
 20 46  1  0  0  0  0
 20 47  1  0  0  0  0
 20 48  1  0  0  0  0
 21 49  1  0  0  0  0
 21 50  1  0  0  0  0
 22 51  1  0  0  0  0
 22 52  1  0  0  0  0
 23 53  1  0  0  0  0
 23 54  1  0  0  0  0
 28 55  1  0  0  0  0
M  END
> <clash_score>
2.1185449686703155

> <docking_score>
-6.785202980041504

> <overlap_score>
0.9790109992027283

$$$$
BENZO_370_1
  -OEChem-08222022203D

 55 58  0     0  0  0  0  0  0999 V2000
    3.9160    2.0630   19.5520 C   0  0  0  0  0  0  0  0  0  0  0  0
    4.2750    1.7050   20.8490 C   0  0  0  0  0  0  0  0  0  0  0  0
   13.4007    0.5725   24.7805 C   0  0  0  0  0  0  0  0  0  0  0  0
   12.0141    0.5273   24.6359 C   0  0  0  0  0  0  0  0  0  0  0  0
    4.6890    1.6810   18.4640 C   0  0  0  0  0  0  0  0  0  0  0  0
    5.4210    0.9600   21.0930 C   0  0  0  0  0  0  0  0  0  0  0  0
    8.9960   -2.3380   25.5320 C   0  0  0  0  0  0  0  0  0  0  0  0
    9.6730   -3.4710   23.5300 C   0  0  0  0  0  0  0  0  0  0  0  0
    9.0720   -1.1280   24.8640 C   0  0  0  0  0  0  0  0  0  0  0  0
    9.7200   -2.2600   22.8630 C   0  0  0  0  0  0  0  0  0  0  0  0
   14.1526    1.4666   24.0184 C   0  0  0  0  0  0  0  0  0  0  0  0
   12.1314    2.2702   22.9668 C   0  0  0  0  0  0  0  0  0  0  0  0
    7.6390   -0.2680   18.5410 C   0  0  0  0  0  0  0  0  0  0  0  0
   11.3794    1.3761   23.7290 C   0  0  0  0  0  0  0  0  0  0  0  0
    5.8300    0.9190   18.6970 C   0  0  0  0  0  0  0  0  0  0  0  0
    6.1790    0.5730   19.9990 C   0  0  0  0  0  0  0  0  0  0  0  0
    9.3070   -3.5340   24.8780 C   0  0  0  0  0  0  0  0  0  0  0  0
    9.3350   -1.0880   23.5010 C   0  0  0  0  0  0  0  0  0  0  0  0
   13.5180    2.3154   23.1115 C   0  0  0  0  0  0  0  0  0  0  0  0
    9.5333   -6.0236   25.0413 C   0  0  0  0  0  0  0  0  0  0  0  0
    9.0420    0.3700   21.5280 C   0  0  0  0  0  0  0  0  0  0  0  0
   10.6330   -7.3747   26.8774 C   0  0  0  0  0  0  0  0  0  0  0  0
    9.8870    1.3260   23.5730 C   0  0  0  0  0  0  0  0  0  0  0  0
    9.3523   -7.0865   26.1148 C   0  0  0  0  0  0  0  0  0  0  0  0
    8.1890   -0.7180   20.8700 C   0  0  0  0  0  0  0  0  0  0  0  0
    6.7580    0.3810   17.8350 N   0  0  0  0  0  0  0  0  0  0  0  0
    7.3170   -0.1610   19.8550 N   0  0  0  0  0  0  0  0  0  0  0  0
    9.2546   -4.7422   25.5438 N   0  0  0  0  0  0  0  0  0  0  0  0
    9.4560    0.1560   22.8130 N   0  0  0  0  0  0  0  0  0  0  0  0
    9.8805   -6.3052   23.8991 O   0  0  0  0  0  0  0  0  0  0  0  0
    9.2690    1.4140   20.9380 O   0  0  0  0  0  0  0  0  0  0  0  0
   14.4463    3.4175   22.1707 Cl  0  0  0  0  0  0  0  0  0  0  0  0
    3.0133    2.6526   19.3911 H   0  0  0  0  0  0  0  0  0  0  0  0
    3.6478    2.0143   21.6818 H   0  0  0  0  0  0  0  0  0  0  0  0
   13.8945   -0.0888   25.4867 H   0  0  0  0  0  0  0  0  0  0  0  0
   11.4361   -0.1726   25.2338 H   0  0  0  0  0  0  0  0  0  0  0  0
    4.4036    1.9735   17.4543 H   0  0  0  0  0  0  0  0  0  0  0  0
    5.7089    0.6922   22.1131 H   0  0  0  0  0  0  0  0  0  0  0  0
    8.6895   -2.3529   26.5807 H   0  0  0  0  0  0  0  0  0  0  0  0
    9.9262   -4.3897   22.9916 H   0  0  0  0  0  0  0  0  0  0  0  0
    8.9224   -0.1998   25.4238 H   0  0  0  0  0  0  0  0  0  0  0  0
   10.0649   -2.2343   21.8258 H   0  0  0  0  0  0  0  0  0  0  0  0
   15.2326    1.4907   24.1414 H   0  0  0  0  0  0  0  0  0  0  0  0
   11.6318    2.9303   22.2615 H   0  0  0  0  0  0  0  0  0  0  0  0
    8.4865   -0.8061   18.1803 H   0  0  0  0  0  0  0  0  0  0  0  0
   11.4241   -7.7171   26.2022 H   0  0  0  0  0  0  0  0  0  0  0  0
   10.4629   -8.1531   27.6275 H   0  0  0  0  0  0  0  0  0  0  0  0
   10.9950   -6.4780   27.3910 H   0  0  0  0  0  0  0  0  0  0  0  0
    9.3974    1.2912   24.5523 H   0  0  0  0  0  0  0  0  0  0  0  0
    9.5159    2.2168   23.0553 H   0  0  0  0  0  0  0  0  0  0  0  0
    8.5795   -6.7463   26.8137 H   0  0  0  0  0  0  0  0  0  0  0  0
    8.9965   -8.0064   25.6366 H   0  0  0  0  0  0  0  0  0  0  0  0
    8.8262   -1.4533   20.3842 H   0  0  0  0  0  0  0  0  0  0  0  0
    7.5540   -1.1950   21.6130 H   0  0  0  0  0  0  0  0  0  0  0  0
    8.9776   -4.7057   26.5317 H   0  0  0  0  0  0  0  0  0  0  0  0
  1  2  1  0  0  0  0
  1  5  2  0  0  0  0
  2  6  2  0  0  0  0
  3  4  2  0  0  0  0
  3 11  1  0  0  0  0
  4 14  1  0  0  0  0
  5 15  1  0  0  0  0
  6 16  1  0  0  0  0
  7  9  2  0  0  0  0
  7 17  1  0  0  0  0
  8 10  1  0  0  0  0
  8 17  2  0  0  0  0
  9 18  1  0  0  0  0
 10 18  2  0  0  0  0
 11 19  2  0  0  0  0
 12 14  2  0  0  0  0
 12 19  1  0  0  0  0
 13 26  2  0  0  0  0
 13 27  1  0  0  0  0
 14 23  1  0  0  0  0
 15 16  2  0  0  0  0
 15 26  1  0  0  0  0
 16 27  1  0  0  0  0
 17 28  1  0  0  0  0
 18 29  1  0  0  0  0
 19 32  1  0  0  0  0
 20 24  1  0  0  0  0
 20 28  1  0  0  0  0
 20 30  2  0  0  0  0
 21 25  1  0  0  0  0
 21 29  1  0  0  0  0
 21 31  2  0  0  0  0
 22 24  1  0  0  0  0
 23 29  1  0  0  0  0
 25 27  1  0  0  0  0
  1 33  1  0  0  0  0
  2 34  1  0  0  0  0
  3 35  1  0  0  0  0
  4 36  1  0  0  0  0
  5 37  1  0  0  0  0
  6 38  1  0  0  0  0
  7 39  1  0  0  0  0
  8 40  1  0  0  0  0
  9 41  1  0  0  0  0
 10 42  1  0  0  0  0
 11 43  1  0  0  0  0
 12 44  1  0  0  0  0
 13 45  1  0  0  0  0
 22 46  1  0  0  0  0
 22 47  1  0  0  0  0
 22 48  1  0  0  0  0
 23 49  1  0  0  0  0
 23 50  1  0  0  0  0
 24 51  1  0  0  0  0
 24 52  1  0  0  0  0
 25 53  1  0  0  0  0
 25 54  1  0  0  0  0
 28 55  1  0  0  0  0
M  END
> <clash_score>
1.498603890647447

> <docking_score>
-6.214168548583984

> <overlap_score>
0.9913631677627563

$$$$
BENZO_377_1
  -OEChem-08222022203D

 48 51  0     0  0  0  0  0  0999 V2000
   14.1526    1.4694   24.0176 C   0  0  0  0  0  0  0  0  0  0  0  0
   13.3741    0.8121   24.9701 C   0  0  0  0  0  0  0  0  0  0  0  0
   13.5446    2.0802   22.9208 C   0  0  0  0  0  0  0  0  0  0  0  0
    3.9160    2.0630   19.5520 C   0  0  0  0  0  0  0  0  0  0  0  0
    4.2750    1.7050   20.8490 C   0  0  0  0  0  0  0  0  0  0  0  0
   11.9875    0.7654   24.8258 C   0  0  0  0  0  0  0  0  0  0  0  0
   12.1580    2.0335   22.7765 C   0  0  0  0  0  0  0  0  0  0  0  0
    8.9960   -2.3380   25.5320 C   0  0  0  0  0  0  0  0  0  0  0  0
    9.6730   -3.4710   23.5300 C   0  0  0  0  0  0  0  0  0  0  0  0
    4.6890    1.6810   18.4640 C   0  0  0  0  0  0  0  0  0  0  0  0
    5.4210    0.9600   21.0930 C   0  0  0  0  0  0  0  0  0  0  0  0
    9.0720   -1.1280   24.8640 C   0  0  0  0  0  0  0  0  0  0  0  0
    9.7200   -2.2600   22.8630 C   0  0  0  0  0  0  0  0  0  0  0  0
    7.6390   -0.2680   18.5410 C   0  0  0  0  0  0  0  0  0  0  0  0
    9.3070   -3.5340   24.8780 C   0  0  0  0  0  0  0  0  0  0  0  0
   11.3794    1.3761   23.7290 C   0  0  0  0  0  0  0  0  0  0  0  0
    5.8300    0.9190   18.6970 C   0  0  0  0  0  0  0  0  0  0  0  0
    6.1790    0.5730   19.9990 C   0  0  0  0  0  0  0  0  0  0  0  0
    9.3350   -1.0880   23.5010 C   0  0  0  0  0  0  0  0  0  0  0  0
    9.0420    0.3700   21.5280 C   0  0  0  0  0  0  0  0  0  0  0  0
    9.2505   -4.8264   25.5904 C   0  0  0  0  0  0  0  0  0  0  0  0
    9.8870    1.3260   23.5730 C   0  0  0  0  0  0  0  0  0  0  0  0
    8.1890   -0.7180   20.8700 C   0  0  0  0  0  0  0  0  0  0  0  0
    6.7580    0.3810   17.8350 N   0  0  0  0  0  0  0  0  0  0  0  0
    7.3170   -0.1610   19.8550 N   0  0  0  0  0  0  0  0  0  0  0  0
    9.4560    0.1560   22.8130 N   0  0  0  0  0  0  0  0  0  0  0  0
    9.2690    1.4140   20.9380 O   0  0  0  0  0  0  0  0  0  0  0  0
   15.2322    1.5068   24.1308 H   0  0  0  0  0  0  0  0  0  0  0  0
   13.8473    0.3374   25.8248 H   0  0  0  0  0  0  0  0  0  0  0  0
   14.1503    2.5930   22.1795 H   0  0  0  0  0  0  0  0  0  0  0  0
    3.0133    2.6526   19.3911 H   0  0  0  0  0  0  0  0  0  0  0  0
    3.6478    2.0143   21.6818 H   0  0  0  0  0  0  0  0  0  0  0  0
   11.3889    0.2508   25.5729 H   0  0  0  0  0  0  0  0  0  0  0  0
   11.6930    2.5120   21.9187 H   0  0  0  0  0  0  0  0  0  0  0  0
    8.6919   -2.3557   26.5813 H   0  0  0  0  0  0  0  0  0  0  0  0
    9.9267   -4.3907   22.9939 H   0  0  0  0  0  0  0  0  0  0  0  0
    4.4036    1.9735   17.4543 H   0  0  0  0  0  0  0  0  0  0  0  0
    5.7089    0.6922   22.1131 H   0  0  0  0  0  0  0  0  0  0  0  0
    8.9217   -0.1995   25.4231 H   0  0  0  0  0  0  0  0  0  0  0  0
   10.0653   -2.2339   21.8256 H   0  0  0  0  0  0  0  0  0  0  0  0
    8.4865   -0.8061   18.1803 H   0  0  0  0  0  0  0  0  0  0  0  0
    8.2503   -5.2678   25.5020 H   0  0  0  0  0  0  0  0  0  0  0  0
    9.9817   -5.5374   25.1845 H   0  0  0  0  0  0  0  0  0  0  0  0
    9.4841   -4.7043   26.6562 H   0  0  0  0  0  0  0  0  0  0  0  0
    9.3974    1.2912   24.5523 H   0  0  0  0  0  0  0  0  0  0  0  0
    9.5159    2.2168   23.0553 H   0  0  0  0  0  0  0  0  0  0  0  0
    8.8262   -1.4533   20.3842 H   0  0  0  0  0  0  0  0  0  0  0  0
    7.5540   -1.1950   21.6130 H   0  0  0  0  0  0  0  0  0  0  0  0
  1  2  1  0  0  0  0
  1  3  2  0  0  0  0
  2  6  2  0  0  0  0
  3  7  1  0  0  0  0
  4  5  1  0  0  0  0
  4 10  2  0  0  0  0
  5 11  2  0  0  0  0
  6 16  1  0  0  0  0
  7 16  2  0  0  0  0
  8 12  2  0  0  0  0
  8 15  1  0  0  0  0
  9 13  1  0  0  0  0
  9 15  2  0  0  0  0
 10 17  1  0  0  0  0
 11 18  1  0  0  0  0
 12 19  1  0  0  0  0
 13 19  2  0  0  0  0
 14 24  2  0  0  0  0
 14 25  1  0  0  0  0
 15 21  1  0  0  0  0
 16 22  1  0  0  0  0
 17 18  2  0  0  0  0
 17 24  1  0  0  0  0
 18 25  1  0  0  0  0
 19 26  1  0  0  0  0
 20 23  1  0  0  0  0
 20 26  1  0  0  0  0
 20 27  2  0  0  0  0
 22 26  1  0  0  0  0
 23 25  1  0  0  0  0
  1 28  1  0  0  0  0
  2 29  1  0  0  0  0
  3 30  1  0  0  0  0
  4 31  1  0  0  0  0
  5 32  1  0  0  0  0
  6 33  1  0  0  0  0
  7 34  1  0  0  0  0
  8 35  1  0  0  0  0
  9 36  1  0  0  0  0
 10 37  1  0  0  0  0
 11 38  1  0  0  0  0
 12 39  1  0  0  0  0
 13 40  1  0  0  0  0
 14 41  1  0  0  0  0
 21 42  1  0  0  0  0
 21 43  1  0  0  0  0
 21 44  1  0  0  0  0
 22 45  1  0  0  0  0
 22 46  1  0  0  0  0
 23 47  1  0  0  0  0
 23 48  1  0  0  0  0
M  END
> <clash_score>
0

> <docking_score>
-9.6123046875

> <overlap_score>
0.9394523501396179

$$$$
BENZO_376_1
  -OEChem-08222022203D

 45 48  0     0  0  0  0  0  0999 V2000
    3.9160    2.0630   19.5520 C   0  0  0  0  0  0  0  0  0  0  0  0
    4.2750    1.7050   20.8490 C   0  0  0  0  0  0  0  0  0  0  0  0
    8.9960   -2.3380   25.5320 C   0  0  0  0  0  0  0  0  0  0  0  0
    9.6730   -3.4710   23.5300 C   0  0  0  0  0  0  0  0  0  0  0  0
    4.6890    1.6810   18.4640 C   0  0  0  0  0  0  0  0  0  0  0  0
    5.4210    0.9600   21.0930 C   0  0  0  0  0  0  0  0  0  0  0  0
    9.0720   -1.1280   24.8640 C   0  0  0  0  0  0  0  0  0  0  0  0
    9.7200   -2.2600   22.8630 C   0  0  0  0  0  0  0  0  0  0  0  0
   12.2111    0.2208   23.7905 C   0  0  0  0  0  0  0  0  0  0  0  0
   13.5412    0.5479   23.9363 C   0  0  0  0  0  0  0  0  0  0  0  0
   12.1057    2.5424   23.8305 C   0  0  0  0  0  0  0  0  0  0  0  0
    7.6390   -0.2680   18.5410 C   0  0  0  0  0  0  0  0  0  0  0  0
    9.3070   -3.5340   24.8780 C   0  0  0  0  0  0  0  0  0  0  0  0
   11.3794    1.3761   23.7290 C   0  0  0  0  0  0  0  0  0  0  0  0
    5.8300    0.9190   18.6970 C   0  0  0  0  0  0  0  0  0  0  0  0
    6.1790    0.5730   19.9990 C   0  0  0  0  0  0  0  0  0  0  0  0
    9.3350   -1.0880   23.5010 C   0  0  0  0  0  0  0  0  0  0  0  0
    9.0420    0.3700   21.5280 C   0  0  0  0  0  0  0  0  0  0  0  0
    9.2505   -4.8264   25.5904 C   0  0  0  0  0  0  0  0  0  0  0  0
    9.8870    1.3260   23.5730 C   0  0  0  0  0  0  0  0  0  0  0  0
    8.1890   -0.7180   20.8700 C   0  0  0  0  0  0  0  0  0  0  0  0
    6.7580    0.3810   17.8350 N   0  0  0  0  0  0  0  0  0  0  0  0
    7.3170   -0.1610   19.8550 N   0  0  0  0  0  0  0  0  0  0  0  0
    9.4560    0.1560   22.8130 N   0  0  0  0  0  0  0  0  0  0  0  0
    9.2690    1.4140   20.9380 O   0  0  0  0  0  0  0  0  0  0  0  0
   13.7831    2.2420   23.9988 S   0  0  0  0  0  0  0  0  0  0  0  0
    3.0133    2.6526   19.3911 H   0  0  0  0  0  0  0  0  0  0  0  0
    3.6478    2.0143   21.6818 H   0  0  0  0  0  0  0  0  0  0  0  0
    8.6919   -2.3557   26.5813 H   0  0  0  0  0  0  0  0  0  0  0  0
    9.9267   -4.3907   22.9939 H   0  0  0  0  0  0  0  0  0  0  0  0
    4.4036    1.9735   17.4543 H   0  0  0  0  0  0  0  0  0  0  0  0
    5.7089    0.6922   22.1131 H   0  0  0  0  0  0  0  0  0  0  0  0
    8.9217   -0.1995   25.4231 H   0  0  0  0  0  0  0  0  0  0  0  0
   10.0653   -2.2339   21.8256 H   0  0  0  0  0  0  0  0  0  0  0  0
   11.8558   -0.8003   23.7315 H   0  0  0  0  0  0  0  0  0  0  0  0
   14.3824   -0.1267   24.0100 H   0  0  0  0  0  0  0  0  0  0  0  0
   11.7354    3.5581   23.8155 H   0  0  0  0  0  0  0  0  0  0  0  0
    8.4865   -0.8061   18.1803 H   0  0  0  0  0  0  0  0  0  0  0  0
    8.2503   -5.2678   25.5020 H   0  0  0  0  0  0  0  0  0  0  0  0
    9.9817   -5.5374   25.1845 H   0  0  0  0  0  0  0  0  0  0  0  0
    9.4841   -4.7043   26.6562 H   0  0  0  0  0  0  0  0  0  0  0  0
    9.3974    1.2912   24.5523 H   0  0  0  0  0  0  0  0  0  0  0  0
    9.5159    2.2168   23.0553 H   0  0  0  0  0  0  0  0  0  0  0  0
    8.8262   -1.4533   20.3842 H   0  0  0  0  0  0  0  0  0  0  0  0
    7.5540   -1.1950   21.6130 H   0  0  0  0  0  0  0  0  0  0  0  0
  1  2  1  0  0  0  0
  1  5  2  0  0  0  0
  2  6  2  0  0  0  0
  3  7  2  0  0  0  0
  3 13  1  0  0  0  0
  4  8  1  0  0  0  0
  4 13  2  0  0  0  0
  5 15  1  0  0  0  0
  6 16  1  0  0  0  0
  7 17  1  0  0  0  0
  8 17  2  0  0  0  0
  9 10  2  0  0  0  0
  9 14  1  0  0  0  0
 10 26  1  0  0  0  0
 11 14  2  0  0  0  0
 11 26  1  0  0  0  0
 12 22  2  0  0  0  0
 12 23  1  0  0  0  0
 13 19  1  0  0  0  0
 14 20  1  0  0  0  0
 15 16  2  0  0  0  0
 15 22  1  0  0  0  0
 16 23  1  0  0  0  0
 17 24  1  0  0  0  0
 18 21  1  0  0  0  0
 18 24  1  0  0  0  0
 18 25  2  0  0  0  0
 20 24  1  0  0  0  0
 21 23  1  0  0  0  0
  1 27  1  0  0  0  0
  2 28  1  0  0  0  0
  3 29  1  0  0  0  0
  4 30  1  0  0  0  0
  5 31  1  0  0  0  0
  6 32  1  0  0  0  0
  7 33  1  0  0  0  0
  8 34  1  0  0  0  0
  9 35  1  0  0  0  0
 10 36  1  0  0  0  0
 11 37  1  0  0  0  0
 12 38  1  0  0  0  0
 19 39  1  0  0  0  0
 19 40  1  0  0  0  0
 19 41  1  0  0  0  0
 20 42  1  0  0  0  0
 20 43  1  0  0  0  0
 21 44  1  0  0  0  0
 21 45  1  0  0  0  0
M  END
> <clash_score>
0

> <docking_score>
-8.885479927062988

> <overlap_score>
0.924271285533905

$$$$
BENZO_374_1
  -OEChem-08222022203D

 60 64  0     0  0  0  0  0  0999 V2000
    3.9160    2.0630   19.5520 C   0  0  0  0  0  0  0  0  0  0  0  0
    4.2750    1.7050   20.8490 C   0  0  0  0  0  0  0  0  0  0  0  0
   13.4007    0.5725   24.7805 C   0  0  0  0  0  0  0  0  0  0  0  0
   12.0141    0.5273   24.6359 C   0  0  0  0  0  0  0  0  0  0  0  0
    4.6890    1.6810   18.4640 C   0  0  0  0  0  0  0  0  0  0  0  0
    5.4210    0.9600   21.0930 C   0  0  0  0  0  0  0  0  0  0  0  0
    8.9960   -2.3380   25.5320 C   0  0  0  0  0  0  0  0  0  0  0  0
    9.6730   -3.4710   23.5300 C   0  0  0  0  0  0  0  0  0  0  0  0
    9.0720   -1.1280   24.8640 C   0  0  0  0  0  0  0  0  0  0  0  0
    9.7200   -2.2600   22.8630 C   0  0  0  0  0  0  0  0  0  0  0  0
   14.1526    1.4666   24.0184 C   0  0  0  0  0  0  0  0  0  0  0  0
   12.1314    2.2702   22.9668 C   0  0  0  0  0  0  0  0  0  0  0  0
    7.6390   -0.2680   18.5410 C   0  0  0  0  0  0  0  0  0  0  0  0
   11.3794    1.3761   23.7290 C   0  0  0  0  0  0  0  0  0  0  0  0
    5.8300    0.9190   18.6970 C   0  0  0  0  0  0  0  0  0  0  0  0
    6.1790    0.5730   19.9990 C   0  0  0  0  0  0  0  0  0  0  0  0
    9.3070   -3.5340   24.8780 C   0  0  0  0  0  0  0  0  0  0  0  0
    9.3350   -1.0880   23.5010 C   0  0  0  0  0  0  0  0  0  0  0  0
   13.5180    2.3154   23.1115 C   0  0  0  0  0  0  0  0  0  0  0  0
    9.0420    0.3700   21.5280 C   0  0  0  0  0  0  0  0  0  0  0  0
    7.3635   -6.1361   27.1888 C   0  0  0  0  0  0  0  0  0  0  0  0
    8.1961   -4.9735   27.7341 C   0  0  0  0  0  0  0  0  0  0  0  0
    7.1942   -6.0394   25.6709 C   0  0  0  0  0  0  0  0  0  0  0  0
    9.5196   -4.8490   26.9797 C   0  0  0  0  0  0  0  0  0  0  0  0
    8.5442   -5.8838   24.9639 C   0  0  0  0  0  0  0  0  0  0  0  0
    9.8870    1.3260   23.5730 C   0  0  0  0  0  0  0  0  0  0  0  0
    8.1890   -0.7180   20.8700 C   0  0  0  0  0  0  0  0  0  0  0  0
    6.7580    0.3810   17.8350 N   0  0  0  0  0  0  0  0  0  0  0  0
    7.3170   -0.1610   19.8550 N   0  0  0  0  0  0  0  0  0  0  0  0
    9.2562   -4.7384   25.5422 N   0  0  0  0  0  0  0  0  0  0  0  0
    9.4560    0.1560   22.8130 N   0  0  0  0  0  0  0  0  0  0  0  0
    9.2690    1.4140   20.9380 O   0  0  0  0  0  0  0  0  0  0  0  0
   14.4463    3.4175   22.1707 Cl  0  0  0  0  0  0  0  0  0  0  0  0
    3.0133    2.6526   19.3911 H   0  0  0  0  0  0  0  0  0  0  0  0
    3.6478    2.0143   21.6818 H   0  0  0  0  0  0  0  0  0  0  0  0
   13.8945   -0.0888   25.4867 H   0  0  0  0  0  0  0  0  0  0  0  0
   11.4361   -0.1726   25.2338 H   0  0  0  0  0  0  0  0  0  0  0  0
    4.4036    1.9735   17.4543 H   0  0  0  0  0  0  0  0  0  0  0  0
    5.7089    0.6922   22.1131 H   0  0  0  0  0  0  0  0  0  0  0  0
    8.6905   -2.3533   26.5810 H   0  0  0  0  0  0  0  0  0  0  0  0
    9.9266   -4.3896   22.9917 H   0  0  0  0  0  0  0  0  0  0  0  0
    8.9233   -0.1992   25.4231 H   0  0  0  0  0  0  0  0  0  0  0  0
   10.0650   -2.2330   21.8256 H   0  0  0  0  0  0  0  0  0  0  0  0
   15.2326    1.4907   24.1414 H   0  0  0  0  0  0  0  0  0  0  0  0
   11.6317    2.9303   22.2615 H   0  0  0  0  0  0  0  0  0  0  0  0
    8.4865   -0.8061   18.1803 H   0  0  0  0  0  0  0  0  0  0  0  0
    7.8482   -7.0901   27.4469 H   0  0  0  0  0  0  0  0  0  0  0  0
    6.3760   -6.1438   27.6724 H   0  0  0  0  0  0  0  0  0  0  0  0
    7.6307   -4.0424   27.6403 H   0  0  0  0  0  0  0  0  0  0  0  0
    8.3915   -5.1310   28.7968 H   0  0  0  0  0  0  0  0  0  0  0  0
    6.6888   -6.9376   25.3010 H   0  0  0  0  0  0  0  0  0  0  0  0
    6.5515   -5.1859   25.4257 H   0  0  0  0  0  0  0  0  0  0  0  0
   10.0492   -3.9640   27.3414 H   0  0  0  0  0  0  0  0  0  0  0  0
   10.1431   -5.7254   27.1778 H   0  0  0  0  0  0  0  0  0  0  0  0
    9.1338   -6.7931   25.0868 H   0  0  0  0  0  0  0  0  0  0  0  0
    8.3656   -5.7264   23.8998 H   0  0  0  0  0  0  0  0  0  0  0  0
    9.3974    1.2912   24.5523 H   0  0  0  0  0  0  0  0  0  0  0  0
    9.5159    2.2168   23.0554 H   0  0  0  0  0  0  0  0  0  0  0  0
    8.8326   -1.4554   20.3912 H   0  0  0  0  0  0  0  0  0  0  0  0
    7.5604   -1.1971   21.6201 H   0  0  0  0  0  0  0  0  0  0  0  0
  1  2  1  0  0  0  0
  1  5  2  0  0  0  0
  2  6  2  0  0  0  0
  3  4  2  0  0  0  0
  3 11  1  0  0  0  0
  4 14  1  0  0  0  0
  5 15  1  0  0  0  0
  6 16  1  0  0  0  0
  7  9  2  0  0  0  0
  7 17  1  0  0  0  0
  8 10  1  0  0  0  0
  8 17  2  0  0  0  0
  9 18  1  0  0  0  0
 10 18  2  0  0  0  0
 11 19  2  0  0  0  0
 12 14  2  0  0  0  0
 12 19  1  0  0  0  0
 13 28  2  0  0  0  0
 13 29  1  0  0  0  0
 14 26  1  0  0  0  0
 15 16  2  0  0  0  0
 15 28  1  0  0  0  0
 16 29  1  0  0  0  0
 17 30  1  0  0  0  0
 18 31  1  0  0  0  0
 19 33  1  0  0  0  0
 20 27  1  0  0  0  0
 20 31  1  0  0  0  0
 20 32  2  0  0  0  0
 21 22  1  0  0  0  0
 21 23  1  0  0  0  0
 22 24  1  0  0  0  0
 23 25  1  0  0  0  0
 24 30  1  0  0  0  0
 25 30  1  0  0  0  0
 26 31  1  0  0  0  0
 27 29  1  0  0  0  0
  1 34  1  0  0  0  0
  2 35  1  0  0  0  0
  3 36  1  0  0  0  0
  4 37  1  0  0  0  0
  5 38  1  0  0  0  0
  6 39  1  0  0  0  0
  7 40  1  0  0  0  0
  8 41  1  0  0  0  0
  9 42  1  0  0  0  0
 10 43  1  0  0  0  0
 11 44  1  0  0  0  0
 12 45  1  0  0  0  0
 13 46  1  0  0  0  0
 21 47  1  0  0  0  0
 21 48  1  0  0  0  0
 22 49  1  0  0  0  0
 22 50  1  0  0  0  0
 23 51  1  0  0  0  0
 23 52  1  0  0  0  0
 24 53  1  0  0  0  0
 24 54  1  0  0  0  0
 25 55  1  0  0  0  0
 25 56  1  0  0  0  0
 26 57  1  0  0  0  0
 26 58  1  0  0  0  0
 27 59  1  0  0  0  0
 27 60  1  0  0  0  0
M  END
> <clash_score>
0

> <docking_score>
-8.504258155822754

> <overlap_score>
1.0042747259140015

$$$$
BENZO_375_1
  -OEChem-08222022203D

 60 64  0     0  0  0  0  0  0999 V2000
    3.9160    2.0630   19.5520 C   0  0  0  0  0  0  0  0  0  0  0  0
    4.2750    1.7050   20.8490 C   0  0  0  0  0  0  0  0  0  0  0  0
    4.6890    1.6810   18.4640 C   0  0  0  0  0  0  0  0  0  0  0  0
    5.4210    0.9600   21.0930 C   0  0  0  0  0  0  0  0  0  0  0  0
    8.9960   -2.3380   25.5320 C   0  0  0  0  0  0  0  0  0  0  0  0
    9.6730   -3.4710   23.5300 C   0  0  0  0  0  0  0  0  0  0  0  0
    9.0720   -1.1280   24.8640 C   0  0  0  0  0  0  0  0  0  0  0  0
    9.7200   -2.2600   22.8630 C   0  0  0  0  0  0  0  0  0  0  0  0
   12.1233    1.3811   24.9242 C   0  0  0  0  0  0  0  0  0  0  0  0
   12.3261    1.4247   22.7351 C   0  0  0  0  0  0  0  0  0  0  0  0
    7.6390   -0.2680   18.5410 C   0  0  0  0  0  0  0  0  0  0  0  0
   11.3794    1.3761   23.7290 C   0  0  0  0  0  0  0  0  0  0  0  0
    5.8300    0.9190   18.6970 C   0  0  0  0  0  0  0  0  0  0  0  0
    6.1790    0.5730   19.9990 C   0  0  0  0  0  0  0  0  0  0  0  0
    9.3070   -3.5340   24.8780 C   0  0  0  0  0  0  0  0  0  0  0  0
    9.3350   -1.0880   23.5010 C   0  0  0  0  0  0  0  0  0  0  0  0
    9.0420    0.3700   21.5280 C   0  0  0  0  0  0  0  0  0  0  0  0
    7.3635   -6.1361   27.1888 C   0  0  0  0  0  0  0  0  0  0  0  0
    8.1961   -4.9735   27.7341 C   0  0  0  0  0  0  0  0  0  0  0  0
    7.1942   -6.0394   25.6709 C   0  0  0  0  0  0  0  0  0  0  0  0
    9.5196   -4.8490   26.9797 C   0  0  0  0  0  0  0  0  0  0  0  0
    8.5442   -5.8838   24.9639 C   0  0  0  0  0  0  0  0  0  0  0  0
   14.8305    1.5084   22.7418 C   0  0  0  0  0  0  0  0  0  0  0  0
    9.8870    1.3260   23.5730 C   0  0  0  0  0  0  0  0  0  0  0  0
    8.1890   -0.7180   20.8700 C   0  0  0  0  0  0  0  0  0  0  0  0
   13.4410    1.4289   24.7112 N   0  0  0  0  0  0  0  0  0  0  0  0
    6.7580    0.3810   17.8350 N   0  0  0  0  0  0  0  0  0  0  0  0
   13.5326    1.4543   23.3706 N   0  0  0  0  0  0  0  0  0  0  0  0
    7.3170   -0.1610   19.8550 N   0  0  0  0  0  0  0  0  0  0  0  0
    9.2562   -4.7384   25.5422 N   0  0  0  0  0  0  0  0  0  0  0  0
    9.4560    0.1560   22.8130 N   0  0  0  0  0  0  0  0  0  0  0  0
    9.2690    1.4140   20.9380 O   0  0  0  0  0  0  0  0  0  0  0  0
    3.0133    2.6526   19.3911 H   0  0  0  0  0  0  0  0  0  0  0  0
    3.6478    2.0143   21.6818 H   0  0  0  0  0  0  0  0  0  0  0  0
    4.4036    1.9735   17.4543 H   0  0  0  0  0  0  0  0  0  0  0  0
    5.7089    0.6922   22.1131 H   0  0  0  0  0  0  0  0  0  0  0  0
    8.6905   -2.3533   26.5810 H   0  0  0  0  0  0  0  0  0  0  0  0
    9.9266   -4.3896   22.9917 H   0  0  0  0  0  0  0  0  0  0  0  0
    8.9233   -0.1992   25.4231 H   0  0  0  0  0  0  0  0  0  0  0  0
   10.0650   -2.2330   21.8256 H   0  0  0  0  0  0  0  0  0  0  0  0
   11.7624    1.3510   25.9426 H   0  0  0  0  0  0  0  0  0  0  0  0
   12.2462    1.4390   21.6566 H   0  0  0  0  0  0  0  0  0  0  0  0
    8.4865   -0.8061   18.1803 H   0  0  0  0  0  0  0  0  0  0  0  0
    7.8482   -7.0901   27.4469 H   0  0  0  0  0  0  0  0  0  0  0  0
    6.3760   -6.1438   27.6724 H   0  0  0  0  0  0  0  0  0  0  0  0
    7.6307   -4.0424   27.6403 H   0  0  0  0  0  0  0  0  0  0  0  0
    8.3915   -5.1310   28.7968 H   0  0  0  0  0  0  0  0  0  0  0  0
    6.6888   -6.9376   25.3010 H   0  0  0  0  0  0  0  0  0  0  0  0
    6.5515   -5.1859   25.4257 H   0  0  0  0  0  0  0  0  0  0  0  0
   10.0492   -3.9640   27.3414 H   0  0  0  0  0  0  0  0  0  0  0  0
   10.1431   -5.7254   27.1778 H   0  0  0  0  0  0  0  0  0  0  0  0
    9.1338   -6.7931   25.0868 H   0  0  0  0  0  0  0  0  0  0  0  0
    8.3656   -5.7264   23.8998 H   0  0  0  0  0  0  0  0  0  0  0  0
   15.0990    2.5601   22.6124 H   0  0  0  0  0  0  0  0  0  0  0  0
   15.5636    1.0018   23.3756 H   0  0  0  0  0  0  0  0  0  0  0  0
   14.7841    1.0025   21.7733 H   0  0  0  0  0  0  0  0  0  0  0  0
    9.3974    1.2912   24.5523 H   0  0  0  0  0  0  0  0  0  0  0  0
    9.5159    2.2168   23.0554 H   0  0  0  0  0  0  0  0  0  0  0  0
    8.8326   -1.4554   20.3912 H   0  0  0  0  0  0  0  0  0  0  0  0
    7.5604   -1.1971   21.6201 H   0  0  0  0  0  0  0  0  0  0  0  0
  1  2  1  0  0  0  0
  1  3  2  0  0  0  0
  2  4  2  0  0  0  0
  3 13  1  0  0  0  0
  4 14  1  0  0  0  0
  5  7  2  0  0  0  0
  5 15  1  0  0  0  0
  6  8  1  0  0  0  0
  6 15  2  0  0  0  0
  7 16  1  0  0  0  0
  8 16  2  0  0  0  0
  9 12  1  0  0  0  0
  9 26  2  0  0  0  0
 10 12  2  0  0  0  0
 10 28  1  0  0  0  0
 11 27  2  0  0  0  0
 11 29  1  0  0  0  0
 12 24  1  0  0  0  0
 13 14  2  0  0  0  0
 13 27  1  0  0  0  0
 14 29  1  0  0  0  0
 15 30  1  0  0  0  0
 16 31  1  0  0  0  0
 17 25  1  0  0  0  0
 17 31  1  0  0  0  0
 17 32  2  0  0  0  0
 18 19  1  0  0  0  0
 18 20  1  0  0  0  0
 19 21  1  0  0  0  0
 20 22  1  0  0  0  0
 21 30  1  0  0  0  0
 22 30  1  0  0  0  0
 23 28  1  0  0  0  0
 24 31  1  0  0  0  0
 25 29  1  0  0  0  0
 26 28  1  0  0  0  0
  1 33  1  0  0  0  0
  2 34  1  0  0  0  0
  3 35  1  0  0  0  0
  4 36  1  0  0  0  0
  5 37  1  0  0  0  0
  6 38  1  0  0  0  0
  7 39  1  0  0  0  0
  8 40  1  0  0  0  0
  9 41  1  0  0  0  0
 10 42  1  0  0  0  0
 11 43  1  0  0  0  0
 18 44  1  0  0  0  0
 18 45  1  0  0  0  0
 19 46  1  0  0  0  0
 19 47  1  0  0  0  0
 20 48  1  0  0  0  0
 20 49  1  0  0  0  0
 21 50  1  0  0  0  0
 21 51  1  0  0  0  0
 22 52  1  0  0  0  0
 22 53  1  0  0  0  0
 23 54  1  0  0  0  0
 23 55  1  0  0  0  0
 23 56  1  0  0  0  0
 24 57  1  0  0  0  0
 24 58  1  0  0  0  0
 25 59  1  0  0  0  0
 25 60  1  0  0  0  0
M  END
> <clash_score>
0

> <docking_score>
-9.083415031433105

> <overlap_score>
0.9881091713905334

$$$$
BENZO_378_1
  -OEChem-08222022203D

 48 51  0     0  0  0  0  0  0999 V2000
    3.9160    2.0630   19.5520 C   0  0  0  0  0  0  0  0  0  0  0  0
    4.2750    1.7050   20.8490 C   0  0  0  0  0  0  0  0  0  0  0  0
   13.4007    0.5725   24.7805 C   0  0  0  0  0  0  0  0  0  0  0  0
   12.0141    0.5273   24.6359 C   0  0  0  0  0  0  0  0  0  0  0  0
    8.9960   -2.3380   25.5320 C   0  0  0  0  0  0  0  0  0  0  0  0
    9.6730   -3.4710   23.5300 C   0  0  0  0  0  0  0  0  0  0  0  0
    4.6890    1.6810   18.4640 C   0  0  0  0  0  0  0  0  0  0  0  0
    5.4210    0.9600   21.0930 C   0  0  0  0  0  0  0  0  0  0  0  0
    9.0720   -1.1280   24.8640 C   0  0  0  0  0  0  0  0  0  0  0  0
    9.7200   -2.2600   22.8630 C   0  0  0  0  0  0  0  0  0  0  0  0
   14.1526    1.4666   24.0184 C   0  0  0  0  0  0  0  0  0  0  0  0
   12.1314    2.2702   22.9668 C   0  0  0  0  0  0  0  0  0  0  0  0
    7.6390   -0.2680   18.5410 C   0  0  0  0  0  0  0  0  0  0  0  0
    9.3070   -3.5340   24.8780 C   0  0  0  0  0  0  0  0  0  0  0  0
   11.3794    1.3761   23.7290 C   0  0  0  0  0  0  0  0  0  0  0  0
    5.8300    0.9190   18.6970 C   0  0  0  0  0  0  0  0  0  0  0  0
    6.1790    0.5730   19.9990 C   0  0  0  0  0  0  0  0  0  0  0  0
    9.3350   -1.0880   23.5010 C   0  0  0  0  0  0  0  0  0  0  0  0
   13.5180    2.3154   23.1115 C   0  0  0  0  0  0  0  0  0  0  0  0
    9.0420    0.3700   21.5280 C   0  0  0  0  0  0  0  0  0  0  0  0
    9.2505   -4.8264   25.5904 C   0  0  0  0  0  0  0  0  0  0  0  0
    9.8870    1.3260   23.5730 C   0  0  0  0  0  0  0  0  0  0  0  0
    8.1890   -0.7180   20.8700 C   0  0  0  0  0  0  0  0  0  0  0  0
    6.7580    0.3810   17.8350 N   0  0  0  0  0  0  0  0  0  0  0  0
    7.3170   -0.1610   19.8550 N   0  0  0  0  0  0  0  0  0  0  0  0
    9.4560    0.1560   22.8130 N   0  0  0  0  0  0  0  0  0  0  0  0
    9.2690    1.4140   20.9380 O   0  0  0  0  0  0  0  0  0  0  0  0
   14.4463    3.4175   22.1707 Cl  0  0  0  0  0  0  0  0  0  0  0  0
    3.0133    2.6526   19.3911 H   0  0  0  0  0  0  0  0  0  0  0  0
    3.6478    2.0143   21.6818 H   0  0  0  0  0  0  0  0  0  0  0  0
   13.8945   -0.0888   25.4867 H   0  0  0  0  0  0  0  0  0  0  0  0
   11.4361   -0.1726   25.2338 H   0  0  0  0  0  0  0  0  0  0  0  0
    8.6919   -2.3557   26.5813 H   0  0  0  0  0  0  0  0  0  0  0  0
    9.9267   -4.3907   22.9939 H   0  0  0  0  0  0  0  0  0  0  0  0
    4.4036    1.9735   17.4543 H   0  0  0  0  0  0  0  0  0  0  0  0
    5.7089    0.6922   22.1131 H   0  0  0  0  0  0  0  0  0  0  0  0
    8.9217   -0.1995   25.4231 H   0  0  0  0  0  0  0  0  0  0  0  0
   10.0653   -2.2339   21.8256 H   0  0  0  0  0  0  0  0  0  0  0  0
   15.2326    1.4907   24.1414 H   0  0  0  0  0  0  0  0  0  0  0  0
   11.6318    2.9303   22.2615 H   0  0  0  0  0  0  0  0  0  0  0  0
    8.4865   -0.8061   18.1803 H   0  0  0  0  0  0  0  0  0  0  0  0
    8.2503   -5.2678   25.5020 H   0  0  0  0  0  0  0  0  0  0  0  0
    9.9817   -5.5374   25.1845 H   0  0  0  0  0  0  0  0  0  0  0  0
    9.4841   -4.7043   26.6562 H   0  0  0  0  0  0  0  0  0  0  0  0
    9.3974    1.2912   24.5523 H   0  0  0  0  0  0  0  0  0  0  0  0
    9.5159    2.2168   23.0553 H   0  0  0  0  0  0  0  0  0  0  0  0
    8.8262   -1.4533   20.3842 H   0  0  0  0  0  0  0  0  0  0  0  0
    7.5540   -1.1950   21.6130 H   0  0  0  0  0  0  0  0  0  0  0  0
  1  2  1  0  0  0  0
  1  7  2  0  0  0  0
  2  8  2  0  0  0  0
  3  4  2  0  0  0  0
  3 11  1  0  0  0  0
  4 15  1  0  0  0  0
  5  9  2  0  0  0  0
  5 14  1  0  0  0  0
  6 10  1  0  0  0  0
  6 14  2  0  0  0  0
  7 16  1  0  0  0  0
  8 17  1  0  0  0  0
  9 18  1  0  0  0  0
 10 18  2  0  0  0  0
 11 19  2  0  0  0  0
 12 15  2  0  0  0  0
 12 19  1  0  0  0  0
 13 24  2  0  0  0  0
 13 25  1  0  0  0  0
 14 21  1  0  0  0  0
 15 22  1  0  0  0  0
 16 17  2  0  0  0  0
 16 24  1  0  0  0  0
 17 25  1  0  0  0  0
 18 26  1  0  0  0  0
 19 28  1  0  0  0  0
 20 23  1  0  0  0  0
 20 26  1  0  0  0  0
 20 27  2  0  0  0  0
 22 26  1  0  0  0  0
 23 25  1  0  0  0  0
  1 29  1  0  0  0  0
  2 30  1  0  0  0  0
  3 31  1  0  0  0  0
  4 32  1  0  0  0  0
  5 33  1  0  0  0  0
  6 34  1  0  0  0  0
  7 35  1  0  0  0  0
  8 36  1  0  0  0  0
  9 37  1  0  0  0  0
 10 38  1  0  0  0  0
 11 39  1  0  0  0  0
 12 40  1  0  0  0  0
 13 41  1  0  0  0  0
 21 42  1  0  0  0  0
 21 43  1  0  0  0  0
 21 44  1  0  0  0  0
 22 45  1  0  0  0  0
 22 46  1  0  0  0  0
 23 47  1  0  0  0  0
 23 48  1  0  0  0  0
M  END
> <clash_score>
0

> <docking_score>
-8.74927806854248

> <overlap_score>
0.9507185220718384

$$$$
BENZO_379_1
  -OEChem-08222022203D

 48 51  0     0  0  0  0  0  0999 V2000
    3.9160    2.0630   19.5520 C   0  0  0  0  0  0  0  0  0  0  0  0
    4.2750    1.7050   20.8490 C   0  0  0  0  0  0  0  0  0  0  0  0
    8.9960   -2.3380   25.5320 C   0  0  0  0  0  0  0  0  0  0  0  0
    9.6730   -3.4710   23.5300 C   0  0  0  0  0  0  0  0  0  0  0  0
    4.6890    1.6810   18.4640 C   0  0  0  0  0  0  0  0  0  0  0  0
    5.4210    0.9600   21.0930 C   0  0  0  0  0  0  0  0  0  0  0  0
    9.0720   -1.1280   24.8640 C   0  0  0  0  0  0  0  0  0  0  0  0
    9.7200   -2.2600   22.8630 C   0  0  0  0  0  0  0  0  0  0  0  0
   12.2914    2.2071   23.0512 C   0  0  0  0  0  0  0  0  0  0  0  0
   12.1614    0.6214   24.5689 C   0  0  0  0  0  0  0  0  0  0  0  0
    7.6390   -0.2680   18.5410 C   0  0  0  0  0  0  0  0  0  0  0  0
    9.3070   -3.5340   24.8780 C   0  0  0  0  0  0  0  0  0  0  0  0
   11.3794    1.3761   23.7290 C   0  0  0  0  0  0  0  0  0  0  0  0
    5.8300    0.9190   18.6970 C   0  0  0  0  0  0  0  0  0  0  0  0
    6.1790    0.5730   19.9990 C   0  0  0  0  0  0  0  0  0  0  0  0
    9.3350   -1.0880   23.5010 C   0  0  0  0  0  0  0  0  0  0  0  0
    9.0420    0.3700   21.5280 C   0  0  0  0  0  0  0  0  0  0  0  0
    9.2505   -4.8264   25.5904 C   0  0  0  0  0  0  0  0  0  0  0  0
   14.6267    0.5248   25.0067 C   0  0  0  0  0  0  0  0  0  0  0  0
    9.8870    1.3260   23.5730 C   0  0  0  0  0  0  0  0  0  0  0  0
    8.1890   -0.7180   20.8700 C   0  0  0  0  0  0  0  0  0  0  0  0
   13.5560    2.0002   23.4280 N   0  0  0  0  0  0  0  0  0  0  0  0
    6.7580    0.3810   17.8350 N   0  0  0  0  0  0  0  0  0  0  0  0
   13.4442    1.0306   24.3518 N   0  0  0  0  0  0  0  0  0  0  0  0
    7.3170   -0.1610   19.8550 N   0  0  0  0  0  0  0  0  0  0  0  0
    9.4560    0.1560   22.8130 N   0  0  0  0  0  0  0  0  0  0  0  0
    9.2690    1.4140   20.9380 O   0  0  0  0  0  0  0  0  0  0  0  0
    3.0133    2.6526   19.3911 H   0  0  0  0  0  0  0  0  0  0  0  0
    3.6478    2.0143   21.6818 H   0  0  0  0  0  0  0  0  0  0  0  0
    8.6919   -2.3557   26.5813 H   0  0  0  0  0  0  0  0  0  0  0  0
    9.9267   -4.3907   22.9939 H   0  0  0  0  0  0  0  0  0  0  0  0
    4.4036    1.9735   17.4543 H   0  0  0  0  0  0  0  0  0  0  0  0
    5.7089    0.6922   22.1131 H   0  0  0  0  0  0  0  0  0  0  0  0
    8.9217   -0.1995   25.4231 H   0  0  0  0  0  0  0  0  0  0  0  0
   10.0653   -2.2339   21.8256 H   0  0  0  0  0  0  0  0  0  0  0  0
   12.0895    2.9562   22.2987 H   0  0  0  0  0  0  0  0  0  0  0  0
   11.9202   -0.1518   25.2857 H   0  0  0  0  0  0  0  0  0  0  0  0
    8.4865   -0.8061   18.1803 H   0  0  0  0  0  0  0  0  0  0  0  0
    8.2503   -5.2678   25.5020 H   0  0  0  0  0  0  0  0  0  0  0  0
    9.9817   -5.5374   25.1845 H   0  0  0  0  0  0  0  0  0  0  0  0
    9.4841   -4.7043   26.6562 H   0  0  0  0  0  0  0  0  0  0  0  0
   15.0068   -0.3132   24.4165 H   0  0  0  0  0  0  0  0  0  0  0  0
   15.3758    1.3189   25.0698 H   0  0  0  0  0  0  0  0  0  0  0  0
   14.3676    0.1958   26.0170 H   0  0  0  0  0  0  0  0  0  0  0  0
    9.3974    1.2912   24.5523 H   0  0  0  0  0  0  0  0  0  0  0  0
    9.5159    2.2168   23.0553 H   0  0  0  0  0  0  0  0  0  0  0  0
    8.8262   -1.4533   20.3842 H   0  0  0  0  0  0  0  0  0  0  0  0
    7.5540   -1.1950   21.6130 H   0  0  0  0  0  0  0  0  0  0  0  0
  1  2  1  0  0  0  0
  1  5  2  0  0  0  0
  2  6  2  0  0  0  0
  3  7  2  0  0  0  0
  3 12  1  0  0  0  0
  4  8  1  0  0  0  0
  4 12  2  0  0  0  0
  5 14  1  0  0  0  0
  6 15  1  0  0  0  0
  7 16  1  0  0  0  0
  8 16  2  0  0  0  0
  9 13  1  0  0  0  0
  9 22  2  0  0  0  0
 10 13  2  0  0  0  0
 10 24  1  0  0  0  0
 11 23  2  0  0  0  0
 11 25  1  0  0  0  0
 12 18  1  0  0  0  0
 13 20  1  0  0  0  0
 14 15  2  0  0  0  0
 14 23  1  0  0  0  0
 15 25  1  0  0  0  0
 16 26  1  0  0  0  0
 17 21  1  0  0  0  0
 17 26  1  0  0  0  0
 17 27  2  0  0  0  0
 19 24  1  0  0  0  0
 20 26  1  0  0  0  0
 21 25  1  0  0  0  0
 22 24  1  0  0  0  0
  1 28  1  0  0  0  0
  2 29  1  0  0  0  0
  3 30  1  0  0  0  0
  4 31  1  0  0  0  0
  5 32  1  0  0  0  0
  6 33  1  0  0  0  0
  7 34  1  0  0  0  0
  8 35  1  0  0  0  0
  9 36  1  0  0  0  0
 10 37  1  0  0  0  0
 11 38  1  0  0  0  0
 18 39  1  0  0  0  0
 18 40  1  0  0  0  0
 18 41  1  0  0  0  0
 19 42  1  0  0  0  0
 19 43  1  0  0  0  0
 19 44  1  0  0  0  0
 20 45  1  0  0  0  0
 20 46  1  0  0  0  0
 21 47  1  0  0  0  0
 21 48  1  0  0  0  0
M  END
> <clash_score>
0.6199410780228687

> <docking_score>
-9.320311546325684

> <overlap_score>
0.9382389187812805

$$$$
BENZO_381_1
  -OEChem-08222022203D

 49 52  0     0  0  0  0  0  0999 V2000
   14.1526    1.4694   24.0176 C   0  0  0  0  0  0  0  0  0  0  0  0
   13.3741    0.8121   24.9701 C   0  0  0  0  0  0  0  0  0  0  0  0
   13.5446    2.0802   22.9208 C   0  0  0  0  0  0  0  0  0  0  0  0
    3.9160    2.0630   19.5520 C   0  0  0  0  0  0  0  0  0  0  0  0
    4.2750    1.7050   20.8490 C   0  0  0  0  0  0  0  0  0  0  0  0
   11.9875    0.7654   24.8258 C   0  0  0  0  0  0  0  0  0  0  0  0
   12.1580    2.0335   22.7765 C   0  0  0  0  0  0  0  0  0  0  0  0
    4.6890    1.6810   18.4640 C   0  0  0  0  0  0  0  0  0  0  0  0
    5.4210    0.9600   21.0930 C   0  0  0  0  0  0  0  0  0  0  0  0
    9.0720   -1.1280   24.8640 C   0  0  0  0  0  0  0  0  0  0  0  0
    9.7200   -2.2600   22.8630 C   0  0  0  0  0  0  0  0  0  0  0  0
    8.9960   -2.3380   25.5320 C   0  0  0  0  0  0  0  0  0  0  0  0
    9.6730   -3.4710   23.5300 C   0  0  0  0  0  0  0  0  0  0  0  0
    7.6390   -0.2680   18.5410 C   0  0  0  0  0  0  0  0  0  0  0  0
   11.3794    1.3761   23.7290 C   0  0  0  0  0  0  0  0  0  0  0  0
    5.8300    0.9190   18.6970 C   0  0  0  0  0  0  0  0  0  0  0  0
    6.1790    0.5730   19.9990 C   0  0  0  0  0  0  0  0  0  0  0  0
    9.3350   -1.0880   23.5010 C   0  0  0  0  0  0  0  0  0  0  0  0
    9.3070   -3.5340   24.8780 C   0  0  0  0  0  0  0  0  0  0  0  0
    9.0420    0.3700   21.5280 C   0  0  0  0  0  0  0  0  0  0  0  0
    9.5894   -5.8809   24.7798 C   0  0  0  0  0  0  0  0  0  0  0  0
    9.8870    1.3260   23.5730 C   0  0  0  0  0  0  0  0  0  0  0  0
    8.1890   -0.7180   20.8700 C   0  0  0  0  0  0  0  0  0  0  0  0
    6.7580    0.3810   17.8350 N   0  0  0  0  0  0  0  0  0  0  0  0
    7.3170   -0.1610   19.8550 N   0  0  0  0  0  0  0  0  0  0  0  0
    9.4560    0.1560   22.8130 N   0  0  0  0  0  0  0  0  0  0  0  0
    9.2690    1.4140   20.9380 O   0  0  0  0  0  0  0  0  0  0  0  0
    9.2555   -4.7124   25.5274 O   0  0  0  0  0  0  0  0  0  0  0  0
   15.2322    1.5068   24.1308 H   0  0  0  0  0  0  0  0  0  0  0  0
   13.8473    0.3374   25.8248 H   0  0  0  0  0  0  0  0  0  0  0  0
   14.1503    2.5930   22.1795 H   0  0  0  0  0  0  0  0  0  0  0  0
    3.0133    2.6526   19.3911 H   0  0  0  0  0  0  0  0  0  0  0  0
    3.6478    2.0143   21.6818 H   0  0  0  0  0  0  0  0  0  0  0  0
   11.3889    0.2508   25.5729 H   0  0  0  0  0  0  0  0  0  0  0  0
   11.6930    2.5120   21.9187 H   0  0  0  0  0  0  0  0  0  0  0  0
    4.4036    1.9735   17.4543 H   0  0  0  0  0  0  0  0  0  0  0  0
    5.7089    0.6922   22.1131 H   0  0  0  0  0  0  0  0  0  0  0  0
    8.9221   -0.1995   25.4231 H   0  0  0  0  0  0  0  0  0  0  0  0
   10.0642   -2.2347   21.8253 H   0  0  0  0  0  0  0  0  0  0  0  0
    8.6902   -2.3588   26.5805 H   0  0  0  0  0  0  0  0  0  0  0  0
    9.9254   -4.3921   22.9961 H   0  0  0  0  0  0  0  0  0  0  0  0
    8.4865   -0.8061   18.1803 H   0  0  0  0  0  0  0  0  0  0  0  0
    9.5074   -6.7611   25.4222 H   0  0  0  0  0  0  0  0  0  0  0  0
   10.6088   -5.7902   24.3963 H   0  0  0  0  0  0  0  0  0  0  0  0
    8.8944   -5.9778   23.9424 H   0  0  0  0  0  0  0  0  0  0  0  0
    9.3974    1.2912   24.5523 H   0  0  0  0  0  0  0  0  0  0  0  0
    9.5159    2.2168   23.0553 H   0  0  0  0  0  0  0  0  0  0  0  0
    8.8262   -1.4533   20.3842 H   0  0  0  0  0  0  0  0  0  0  0  0
    7.5540   -1.1950   21.6130 H   0  0  0  0  0  0  0  0  0  0  0  0
  1  2  1  0  0  0  0
  1  3  2  0  0  0  0
  2  6  2  0  0  0  0
  3  7  1  0  0  0  0
  4  5  1  0  0  0  0
  4  8  2  0  0  0  0
  5  9  2  0  0  0  0
  6 15  1  0  0  0  0
  7 15  2  0  0  0  0
  8 16  1  0  0  0  0
  9 17  1  0  0  0  0
 10 12  2  0  0  0  0
 10 18  1  0  0  0  0
 11 13  1  0  0  0  0
 11 18  2  0  0  0  0
 12 19  1  0  0  0  0
 13 19  2  0  0  0  0
 14 24  2  0  0  0  0
 14 25  1  0  0  0  0
 15 22  1  0  0  0  0
 16 17  2  0  0  0  0
 16 24  1  0  0  0  0
 17 25  1  0  0  0  0
 18 26  1  0  0  0  0
 19 28  1  0  0  0  0
 20 23  1  0  0  0  0
 20 26  1  0  0  0  0
 20 27  2  0  0  0  0
 21 28  1  0  0  0  0
 22 26  1  0  0  0  0
 23 25  1  0  0  0  0
  1 29  1  0  0  0  0
  2 30  1  0  0  0  0
  3 31  1  0  0  0  0
  4 32  1  0  0  0  0
  5 33  1  0  0  0  0
  6 34  1  0  0  0  0
  7 35  1  0  0  0  0
  8 36  1  0  0  0  0
  9 37  1  0  0  0  0
 10 38  1  0  0  0  0
 11 39  1  0  0  0  0
 12 40  1  0  0  0  0
 13 41  1  0  0  0  0
 14 42  1  0  0  0  0
 21 43  1  0  0  0  0
 21 44  1  0  0  0  0
 21 45  1  0  0  0  0
 22 46  1  0  0  0  0
 22 47  1  0  0  0  0
 23 48  1  0  0  0  0
 23 49  1  0  0  0  0
M  END
> <clash_score>
0

> <docking_score>
-9.3184175491333

> <overlap_score>
0.9642544984817505

$$$$
BENZO_380_1
  -OEChem-08222022203D

 46 49  0     0  0  0  0  0  0999 V2000
    3.9160    2.0630   19.5520 C   0  0  0  0  0  0  0  0  0  0  0  0
    4.2750    1.7050   20.8490 C   0  0  0  0  0  0  0  0  0  0  0  0
    4.6890    1.6810   18.4640 C   0  0  0  0  0  0  0  0  0  0  0  0
    5.4210    0.9600   21.0930 C   0  0  0  0  0  0  0  0  0  0  0  0
    9.0720   -1.1280   24.8640 C   0  0  0  0  0  0  0  0  0  0  0  0
    9.7200   -2.2600   22.8630 C   0  0  0  0  0  0  0  0  0  0  0  0
    8.9960   -2.3380   25.5320 C   0  0  0  0  0  0  0  0  0  0  0  0
    9.6730   -3.4710   23.5300 C   0  0  0  0  0  0  0  0  0  0  0  0
   12.2111    0.2208   23.7905 C   0  0  0  0  0  0  0  0  0  0  0  0
   13.5412    0.5479   23.9363 C   0  0  0  0  0  0  0  0  0  0  0  0
   12.1057    2.5424   23.8305 C   0  0  0  0  0  0  0  0  0  0  0  0
    7.6390   -0.2680   18.5410 C   0  0  0  0  0  0  0  0  0  0  0  0
   11.3794    1.3761   23.7290 C   0  0  0  0  0  0  0  0  0  0  0  0
    5.8300    0.9190   18.6970 C   0  0  0  0  0  0  0  0  0  0  0  0
    6.1790    0.5730   19.9990 C   0  0  0  0  0  0  0  0  0  0  0  0
    9.3350   -1.0880   23.5010 C   0  0  0  0  0  0  0  0  0  0  0  0
    9.3070   -3.5340   24.8780 C   0  0  0  0  0  0  0  0  0  0  0  0
    9.0420    0.3700   21.5280 C   0  0  0  0  0  0  0  0  0  0  0  0
    9.5894   -5.8809   24.7798 C   0  0  0  0  0  0  0  0  0  0  0  0
    9.8870    1.3260   23.5730 C   0  0  0  0  0  0  0  0  0  0  0  0
    8.1890   -0.7180   20.8700 C   0  0  0  0  0  0  0  0  0  0  0  0
    6.7580    0.3810   17.8350 N   0  0  0  0  0  0  0  0  0  0  0  0
    7.3170   -0.1610   19.8550 N   0  0  0  0  0  0  0  0  0  0  0  0
    9.4560    0.1560   22.8130 N   0  0  0  0  0  0  0  0  0  0  0  0
    9.2690    1.4140   20.9380 O   0  0  0  0  0  0  0  0  0  0  0  0
    9.2555   -4.7124   25.5274 O   0  0  0  0  0  0  0  0  0  0  0  0
   13.7831    2.2420   23.9988 S   0  0  0  0  0  0  0  0  0  0  0  0
    3.0133    2.6526   19.3911 H   0  0  0  0  0  0  0  0  0  0  0  0
    3.6478    2.0143   21.6818 H   0  0  0  0  0  0  0  0  0  0  0  0
    4.4036    1.9735   17.4543 H   0  0  0  0  0  0  0  0  0  0  0  0
    5.7089    0.6922   22.1131 H   0  0  0  0  0  0  0  0  0  0  0  0
    8.9221   -0.1995   25.4231 H   0  0  0  0  0  0  0  0  0  0  0  0
   10.0642   -2.2347   21.8253 H   0  0  0  0  0  0  0  0  0  0  0  0
    8.6902   -2.3588   26.5805 H   0  0  0  0  0  0  0  0  0  0  0  0
    9.9254   -4.3921   22.9961 H   0  0  0  0  0  0  0  0  0  0  0  0
   11.8558   -0.8003   23.7315 H   0  0  0  0  0  0  0  0  0  0  0  0
   14.3824   -0.1267   24.0100 H   0  0  0  0  0  0  0  0  0  0  0  0
   11.7354    3.5581   23.8155 H   0  0  0  0  0  0  0  0  0  0  0  0
    8.4865   -0.8061   18.1803 H   0  0  0  0  0  0  0  0  0  0  0  0
    9.5074   -6.7611   25.4222 H   0  0  0  0  0  0  0  0  0  0  0  0
   10.6088   -5.7902   24.3963 H   0  0  0  0  0  0  0  0  0  0  0  0
    8.8944   -5.9778   23.9424 H   0  0  0  0  0  0  0  0  0  0  0  0
    9.3974    1.2912   24.5523 H   0  0  0  0  0  0  0  0  0  0  0  0
    9.5159    2.2168   23.0553 H   0  0  0  0  0  0  0  0  0  0  0  0
    8.8262   -1.4533   20.3842 H   0  0  0  0  0  0  0  0  0  0  0  0
    7.5540   -1.1950   21.6130 H   0  0  0  0  0  0  0  0  0  0  0  0
  1  2  1  0  0  0  0
  1  3  2  0  0  0  0
  2  4  2  0  0  0  0
  3 14  1  0  0  0  0
  4 15  1  0  0  0  0
  5  7  2  0  0  0  0
  5 16  1  0  0  0  0
  6  8  1  0  0  0  0
  6 16  2  0  0  0  0
  7 17  1  0  0  0  0
  8 17  2  0  0  0  0
  9 10  2  0  0  0  0
  9 13  1  0  0  0  0
 10 27  1  0  0  0  0
 11 13  2  0  0  0  0
 11 27  1  0  0  0  0
 12 22  2  0  0  0  0
 12 23  1  0  0  0  0
 13 20  1  0  0  0  0
 14 15  2  0  0  0  0
 14 22  1  0  0  0  0
 15 23  1  0  0  0  0
 16 24  1  0  0  0  0
 17 26  1  0  0  0  0
 18 21  1  0  0  0  0
 18 24  1  0  0  0  0
 18 25  2  0  0  0  0
 19 26  1  0  0  0  0
 20 24  1  0  0  0  0
 21 23  1  0  0  0  0
  1 28  1  0  0  0  0
  2 29  1  0  0  0  0
  3 30  1  0  0  0  0
  4 31  1  0  0  0  0
  5 32  1  0  0  0  0
  6 33  1  0  0  0  0
  7 34  1  0  0  0  0
  8 35  1  0  0  0  0
  9 36  1  0  0  0  0
 10 37  1  0  0  0  0
 11 38  1  0  0  0  0
 12 39  1  0  0  0  0
 19 40  1  0  0  0  0
 19 41  1  0  0  0  0
 19 42  1  0  0  0  0
 20 43  1  0  0  0  0
 20 44  1  0  0  0  0
 21 45  1  0  0  0  0
 21 46  1  0  0  0  0
M  END
> <clash_score>
0

> <docking_score>
-8.591593742370605

> <overlap_score>
0.9491583704948425

$$$$
BENZO_383_1
  -OEChem-08222022203D

 49 52  0     0  0  0  0  0  0999 V2000
    3.9160    2.0630   19.5520 C   0  0  0  0  0  0  0  0  0  0  0  0
    4.2750    1.7050   20.8490 C   0  0  0  0  0  0  0  0  0  0  0  0
    4.6890    1.6810   18.4640 C   0  0  0  0  0  0  0  0  0  0  0  0
    5.4210    0.9600   21.0930 C   0  0  0  0  0  0  0  0  0  0  0  0
    9.0720   -1.1280   24.8640 C   0  0  0  0  0  0  0  0  0  0  0  0
    9.7200   -2.2600   22.8630 C   0  0  0  0  0  0  0  0  0  0  0  0
    8.9960   -2.3380   25.5320 C   0  0  0  0  0  0  0  0  0  0  0  0
    9.6730   -3.4710   23.5300 C   0  0  0  0  0  0  0  0  0  0  0  0
   12.2914    2.2071   23.0512 C   0  0  0  0  0  0  0  0  0  0  0  0
   12.1614    0.6214   24.5689 C   0  0  0  0  0  0  0  0  0  0  0  0
    7.6390   -0.2680   18.5410 C   0  0  0  0  0  0  0  0  0  0  0  0
   11.3794    1.3761   23.7290 C   0  0  0  0  0  0  0  0  0  0  0  0
    5.8300    0.9190   18.6970 C   0  0  0  0  0  0  0  0  0  0  0  0
    6.1790    0.5730   19.9990 C   0  0  0  0  0  0  0  0  0  0  0  0
    9.3350   -1.0880   23.5010 C   0  0  0  0  0  0  0  0  0  0  0  0
    9.3070   -3.5340   24.8780 C   0  0  0  0  0  0  0  0  0  0  0  0
    9.0420    0.3700   21.5280 C   0  0  0  0  0  0  0  0  0  0  0  0
   14.6267    0.5248   25.0067 C   0  0  0  0  0  0  0  0  0  0  0  0
    8.8720   -4.6805   26.9013 C   0  0  0  0  0  0  0  0  0  0  0  0
    9.8870    1.3260   23.5730 C   0  0  0  0  0  0  0  0  0  0  0  0
    8.1890   -0.7180   20.8700 C   0  0  0  0  0  0  0  0  0  0  0  0
   13.5560    2.0002   23.4280 N   0  0  0  0  0  0  0  0  0  0  0  0
    6.7580    0.3810   17.8350 N   0  0  0  0  0  0  0  0  0  0  0  0
   13.4442    1.0306   24.3518 N   0  0  0  0  0  0  0  0  0  0  0  0
    7.3170   -0.1610   19.8550 N   0  0  0  0  0  0  0  0  0  0  0  0
    9.4560    0.1560   22.8130 N   0  0  0  0  0  0  0  0  0  0  0  0
    9.2690    1.4140   20.9380 O   0  0  0  0  0  0  0  0  0  0  0  0
    9.2555   -4.7124   25.5274 O   0  0  0  0  0  0  0  0  0  0  0  0
    3.0133    2.6526   19.3911 H   0  0  0  0  0  0  0  0  0  0  0  0
    3.6478    2.0143   21.6818 H   0  0  0  0  0  0  0  0  0  0  0  0
    4.4036    1.9735   17.4543 H   0  0  0  0  0  0  0  0  0  0  0  0
    5.7089    0.6922   22.1131 H   0  0  0  0  0  0  0  0  0  0  0  0
    8.9221   -0.1995   25.4231 H   0  0  0  0  0  0  0  0  0  0  0  0
   10.0642   -2.2347   21.8253 H   0  0  0  0  0  0  0  0  0  0  0  0
    8.6902   -2.3588   26.5805 H   0  0  0  0  0  0  0  0  0  0  0  0
    9.9254   -4.3921   22.9961 H   0  0  0  0  0  0  0  0  0  0  0  0
   12.0895    2.9562   22.2987 H   0  0  0  0  0  0  0  0  0  0  0  0
   11.9202   -0.1518   25.2857 H   0  0  0  0  0  0  0  0  0  0  0  0
    8.4865   -0.8061   18.1803 H   0  0  0  0  0  0  0  0  0  0  0  0
   15.0068   -0.3132   24.4165 H   0  0  0  0  0  0  0  0  0  0  0  0
   15.3758    1.3189   25.0698 H   0  0  0  0  0  0  0  0  0  0  0  0
   14.3676    0.1958   26.0170 H   0  0  0  0  0  0  0  0  0  0  0  0
    8.8711   -5.6964   27.3038 H   0  0  0  0  0  0  0  0  0  0  0  0
    7.8758   -4.2402   26.9923 H   0  0  0  0  0  0  0  0  0  0  0  0
    9.5894   -4.0716   27.4566 H   0  0  0  0  0  0  0  0  0  0  0  0
    9.3974    1.2912   24.5523 H   0  0  0  0  0  0  0  0  0  0  0  0
    9.5159    2.2168   23.0553 H   0  0  0  0  0  0  0  0  0  0  0  0
    8.8262   -1.4533   20.3842 H   0  0  0  0  0  0  0  0  0  0  0  0
    7.5540   -1.1950   21.6130 H   0  0  0  0  0  0  0  0  0  0  0  0
  1  2  1  0  0  0  0
  1  3  2  0  0  0  0
  2  4  2  0  0  0  0
  3 13  1  0  0  0  0
  4 14  1  0  0  0  0
  5  7  2  0  0  0  0
  5 15  1  0  0  0  0
  6  8  1  0  0  0  0
  6 15  2  0  0  0  0
  7 16  1  0  0  0  0
  8 16  2  0  0  0  0
  9 12  1  0  0  0  0
  9 22  2  0  0  0  0
 10 12  2  0  0  0  0
 10 24  1  0  0  0  0
 11 23  2  0  0  0  0
 11 25  1  0  0  0  0
 12 20  1  0  0  0  0
 13 14  2  0  0  0  0
 13 23  1  0  0  0  0
 14 25  1  0  0  0  0
 15 26  1  0  0  0  0
 16 28  1  0  0  0  0
 17 21  1  0  0  0  0
 17 26  1  0  0  0  0
 17 27  2  0  0  0  0
 18 24  1  0  0  0  0
 19 28  1  0  0  0  0
 20 26  1  0  0  0  0
 21 25  1  0  0  0  0
 22 24  1  0  0  0  0
  1 29  1  0  0  0  0
  2 30  1  0  0  0  0
  3 31  1  0  0  0  0
  4 32  1  0  0  0  0
  5 33  1  0  0  0  0
  6 34  1  0  0  0  0
  7 35  1  0  0  0  0
  8 36  1  0  0  0  0
  9 37  1  0  0  0  0
 10 38  1  0  0  0  0
 11 39  1  0  0  0  0
 18 40  1  0  0  0  0
 18 41  1  0  0  0  0
 18 42  1  0  0  0  0
 19 43  1  0  0  0  0
 19 44  1  0  0  0  0
 19 45  1  0  0  0  0
 20 46  1  0  0  0  0
 20 47  1  0  0  0  0
 21 48  1  0  0  0  0
 21 49  1  0  0  0  0
M  END
> <clash_score>
0.6199410780228687

> <docking_score>
-9.056612014770508

> <overlap_score>
0.9605907797813416

$$$$
BENZO_382_1
  -OEChem-08222022203D

 49 52  0     0  0  0  0  0  0999 V2000
    3.9160    2.0630   19.5520 C   0  0  0  0  0  0  0  0  0  0  0  0
    4.2750    1.7050   20.8490 C   0  0  0  0  0  0  0  0  0  0  0  0
   13.4007    0.5725   24.7805 C   0  0  0  0  0  0  0  0  0  0  0  0
   12.0141    0.5273   24.6359 C   0  0  0  0  0  0  0  0  0  0  0  0
    4.6890    1.6810   18.4640 C   0  0  0  0  0  0  0  0  0  0  0  0
    5.4210    0.9600   21.0930 C   0  0  0  0  0  0  0  0  0  0  0  0
    9.0720   -1.1280   24.8640 C   0  0  0  0  0  0  0  0  0  0  0  0
    9.7200   -2.2600   22.8630 C   0  0  0  0  0  0  0  0  0  0  0  0
    8.9960   -2.3380   25.5320 C   0  0  0  0  0  0  0  0  0  0  0  0
    9.6730   -3.4710   23.5300 C   0  0  0  0  0  0  0  0  0  0  0  0
   14.1526    1.4666   24.0184 C   0  0  0  0  0  0  0  0  0  0  0  0
   12.1314    2.2702   22.9668 C   0  0  0  0  0  0  0  0  0  0  0  0
    7.6390   -0.2680   18.5410 C   0  0  0  0  0  0  0  0  0  0  0  0
   11.3794    1.3761   23.7290 C   0  0  0  0  0  0  0  0  0  0  0  0
    5.8300    0.9190   18.6970 C   0  0  0  0  0  0  0  0  0  0  0  0
    6.1790    0.5730   19.9990 C   0  0  0  0  0  0  0  0  0  0  0  0
    9.3350   -1.0880   23.5010 C   0  0  0  0  0  0  0  0  0  0  0  0
    9.3070   -3.5340   24.8780 C   0  0  0  0  0  0  0  0  0  0  0  0
   13.5180    2.3154   23.1115 C   0  0  0  0  0  0  0  0  0  0  0  0
    9.0420    0.3700   21.5280 C   0  0  0  0  0  0  0  0  0  0  0  0
    8.8720   -4.6805   26.9013 C   0  0  0  0  0  0  0  0  0  0  0  0
    9.8870    1.3260   23.5730 C   0  0  0  0  0  0  0  0  0  0  0  0
    8.1890   -0.7180   20.8700 C   0  0  0  0  0  0  0  0  0  0  0  0
    6.7580    0.3810   17.8350 N   0  0  0  0  0  0  0  0  0  0  0  0
    7.3170   -0.1610   19.8550 N   0  0  0  0  0  0  0  0  0  0  0  0
    9.4560    0.1560   22.8130 N   0  0  0  0  0  0  0  0  0  0  0  0
    9.2690    1.4140   20.9380 O   0  0  0  0  0  0  0  0  0  0  0  0
    9.2555   -4.7124   25.5274 O   0  0  0  0  0  0  0  0  0  0  0  0
   14.4463    3.4175   22.1707 Cl  0  0  0  0  0  0  0  0  0  0  0  0
    3.0133    2.6526   19.3911 H   0  0  0  0  0  0  0  0  0  0  0  0
    3.6478    2.0143   21.6818 H   0  0  0  0  0  0  0  0  0  0  0  0
   13.8945   -0.0888   25.4867 H   0  0  0  0  0  0  0  0  0  0  0  0
   11.4361   -0.1726   25.2338 H   0  0  0  0  0  0  0  0  0  0  0  0
    4.4036    1.9735   17.4543 H   0  0  0  0  0  0  0  0  0  0  0  0
    5.7089    0.6922   22.1131 H   0  0  0  0  0  0  0  0  0  0  0  0
    8.9221   -0.1995   25.4231 H   0  0  0  0  0  0  0  0  0  0  0  0
   10.0642   -2.2347   21.8253 H   0  0  0  0  0  0  0  0  0  0  0  0
    8.6902   -2.3588   26.5805 H   0  0  0  0  0  0  0  0  0  0  0  0
    9.9254   -4.3921   22.9961 H   0  0  0  0  0  0  0  0  0  0  0  0
   15.2326    1.4907   24.1414 H   0  0  0  0  0  0  0  0  0  0  0  0
   11.6318    2.9303   22.2615 H   0  0  0  0  0  0  0  0  0  0  0  0
    8.4865   -0.8061   18.1803 H   0  0  0  0  0  0  0  0  0  0  0  0
    8.8711   -5.6964   27.3038 H   0  0  0  0  0  0  0  0  0  0  0  0
    7.8758   -4.2402   26.9923 H   0  0  0  0  0  0  0  0  0  0  0  0
    9.5894   -4.0716   27.4566 H   0  0  0  0  0  0  0  0  0  0  0  0
    9.3974    1.2912   24.5523 H   0  0  0  0  0  0  0  0  0  0  0  0
    9.5159    2.2168   23.0553 H   0  0  0  0  0  0  0  0  0  0  0  0
    8.8262   -1.4533   20.3842 H   0  0  0  0  0  0  0  0  0  0  0  0
    7.5540   -1.1950   21.6130 H   0  0  0  0  0  0  0  0  0  0  0  0
  1  2  1  0  0  0  0
  1  5  2  0  0  0  0
  2  6  2  0  0  0  0
  3  4  2  0  0  0  0
  3 11  1  0  0  0  0
  4 14  1  0  0  0  0
  5 15  1  0  0  0  0
  6 16  1  0  0  0  0
  7  9  2  0  0  0  0
  7 17  1  0  0  0  0
  8 10  1  0  0  0  0
  8 17  2  0  0  0  0
  9 18  1  0  0  0  0
 10 18  2  0  0  0  0
 11 19  2  0  0  0  0
 12 14  2  0  0  0  0
 12 19  1  0  0  0  0
 13 24  2  0  0  0  0
 13 25  1  0  0  0  0
 14 22  1  0  0  0  0
 15 16  2  0  0  0  0
 15 24  1  0  0  0  0
 16 25  1  0  0  0  0
 17 26  1  0  0  0  0
 18 28  1  0  0  0  0
 19 29  1  0  0  0  0
 20 23  1  0  0  0  0
 20 26  1  0  0  0  0
 20 27  2  0  0  0  0
 21 28  1  0  0  0  0
 22 26  1  0  0  0  0
 23 25  1  0  0  0  0
  1 30  1  0  0  0  0
  2 31  1  0  0  0  0
  3 32  1  0  0  0  0
  4 33  1  0  0  0  0
  5 34  1  0  0  0  0
  6 35  1  0  0  0  0
  7 36  1  0  0  0  0
  8 37  1  0  0  0  0
  9 38  1  0  0  0  0
 10 39  1  0  0  0  0
 11 40  1  0  0  0  0
 12 41  1  0  0  0  0
 13 42  1  0  0  0  0
 21 43  1  0  0  0  0
 21 44  1  0  0  0  0
 21 45  1  0  0  0  0
 22 46  1  0  0  0  0
 22 47  1  0  0  0  0
 23 48  1  0  0  0  0
 23 49  1  0  0  0  0
M  END
> <clash_score>
0

> <docking_score>
-8.485576629638672

> <overlap_score>
0.9730234742164612

$$$$
BENZO_385_1
  -OEChem-08222022203D

 59 63  0     0  0  0  0  0  0999 V2000
   14.1526    1.4694   24.0176 C   0  0  0  0  0  0  0  0  0  0  0  0
   13.3741    0.8121   24.9701 C   0  0  0  0  0  0  0  0  0  0  0  0
   13.5446    2.0802   22.9208 C   0  0  0  0  0  0  0  0  0  0  0  0
    3.9160    2.0630   19.5520 C   0  0  0  0  0  0  0  0  0  0  0  0
    4.2750    1.7050   20.8490 C   0  0  0  0  0  0  0  0  0  0  0  0
   11.9875    0.7654   24.8258 C   0  0  0  0  0  0  0  0  0  0  0  0
   12.1580    2.0335   22.7765 C   0  0  0  0  0  0  0  0  0  0  0  0
    4.6890    1.6810   18.4640 C   0  0  0  0  0  0  0  0  0  0  0  0
    5.4210    0.9600   21.0930 C   0  0  0  0  0  0  0  0  0  0  0  0
    8.9960   -2.3380   25.5320 C   0  0  0  0  0  0  0  0  0  0  0  0
    9.6730   -3.4710   23.5300 C   0  0  0  0  0  0  0  0  0  0  0  0
    9.0720   -1.1280   24.8640 C   0  0  0  0  0  0  0  0  0  0  0  0
    9.7200   -2.2600   22.8630 C   0  0  0  0  0  0  0  0  0  0  0  0
    7.6390   -0.2680   18.5410 C   0  0  0  0  0  0  0  0  0  0  0  0
   11.3794    1.3761   23.7290 C   0  0  0  0  0  0  0  0  0  0  0  0
    5.8300    0.9190   18.6970 C   0  0  0  0  0  0  0  0  0  0  0  0
    6.1790    0.5730   19.9990 C   0  0  0  0  0  0  0  0  0  0  0  0
    9.3070   -3.5340   24.8780 C   0  0  0  0  0  0  0  0  0  0  0  0
    9.3350   -1.0880   23.5010 C   0  0  0  0  0  0  0  0  0  0  0  0
    8.3597   -5.0073   26.6307 C   0  0  0  0  0  0  0  0  0  0  0  0
    9.0420    0.3700   21.5280 C   0  0  0  0  0  0  0  0  0  0  0  0
    8.4720   -6.3981   27.2296 C   0  0  0  0  0  0  0  0  0  0  0  0
    9.9252   -6.7605   27.4803 C   0  0  0  0  0  0  0  0  0  0  0  0
   10.7833   -6.6094   26.2282 C   0  0  0  0  0  0  0  0  0  0  0  0
   10.0539   -5.9099   25.0823 C   0  0  0  0  0  0  0  0  0  0  0  0
    9.8870    1.3260   23.5730 C   0  0  0  0  0  0  0  0  0  0  0  0
    8.1890   -0.7180   20.8700 C   0  0  0  0  0  0  0  0  0  0  0  0
    6.7580    0.3810   17.8350 N   0  0  0  0  0  0  0  0  0  0  0  0
    7.3170   -0.1610   19.8550 N   0  0  0  0  0  0  0  0  0  0  0  0
    9.2529   -4.7797   25.5644 N   0  0  0  0  0  0  0  0  0  0  0  0
    9.4560    0.1560   22.8130 N   0  0  0  0  0  0  0  0  0  0  0  0
    7.4954   -4.2356   27.0449 O   0  0  0  0  0  0  0  0  0  0  0  0
    9.2690    1.4140   20.9380 O   0  0  0  0  0  0  0  0  0  0  0  0
   15.2322    1.5068   24.1308 H   0  0  0  0  0  0  0  0  0  0  0  0
   13.8473    0.3374   25.8248 H   0  0  0  0  0  0  0  0  0  0  0  0
   14.1503    2.5930   22.1795 H   0  0  0  0  0  0  0  0  0  0  0  0
    3.0133    2.6526   19.3911 H   0  0  0  0  0  0  0  0  0  0  0  0
    3.6478    2.0143   21.6818 H   0  0  0  0  0  0  0  0  0  0  0  0
   11.3889    0.2508   25.5729 H   0  0  0  0  0  0  0  0  0  0  0  0
   11.6930    2.5120   21.9187 H   0  0  0  0  0  0  0  0  0  0  0  0
    4.4036    1.9735   17.4543 H   0  0  0  0  0  0  0  0  0  0  0  0
    5.7089    0.6922   22.1131 H   0  0  0  0  0  0  0  0  0  0  0  0
    8.6895   -2.3529   26.5807 H   0  0  0  0  0  0  0  0  0  0  0  0
    9.9262   -4.3897   22.9916 H   0  0  0  0  0  0  0  0  0  0  0  0
    8.9224   -0.1998   25.4238 H   0  0  0  0  0  0  0  0  0  0  0  0
   10.0649   -2.2343   21.8258 H   0  0  0  0  0  0  0  0  0  0  0  0
    8.4865   -0.8061   18.1803 H   0  0  0  0  0  0  0  0  0  0  0  0
    7.9325   -6.4148   28.1641 H   0  0  0  0  0  0  0  0  0  0  0  0
    8.0254   -7.0920   26.5333 H   0  0  0  0  0  0  0  0  0  0  0  0
   10.3387   -6.1267   28.2923 H   0  0  0  0  0  0  0  0  0  0  0  0
    9.9904   -7.8023   27.8537 H   0  0  0  0  0  0  0  0  0  0  0  0
   11.7037   -6.0404   26.4771 H   0  0  0  0  0  0  0  0  0  0  0  0
   11.1411   -7.6068   25.8918 H   0  0  0  0  0  0  0  0  0  0  0  0
   10.7782   -5.5162   24.3756 H   0  0  0  0  0  0  0  0  0  0  0  0
    9.4042   -6.6189   24.5807 H   0  0  0  0  0  0  0  0  0  0  0  0
    9.3974    1.2912   24.5523 H   0  0  0  0  0  0  0  0  0  0  0  0
    9.5159    2.2168   23.0554 H   0  0  0  0  0  0  0  0  0  0  0  0
    8.8326   -1.4554   20.3912 H   0  0  0  0  0  0  0  0  0  0  0  0
    7.5604   -1.1971   21.6201 H   0  0  0  0  0  0  0  0  0  0  0  0
  1  2  1  0  0  0  0
  1  3  2  0  0  0  0
  2  6  2  0  0  0  0
  3  7  1  0  0  0  0
  4  5  1  0  0  0  0
  4  8  2  0  0  0  0
  5  9  2  0  0  0  0
  6 15  1  0  0  0  0
  7 15  2  0  0  0  0
  8 16  1  0  0  0  0
  9 17  1  0  0  0  0
 10 12  2  0  0  0  0
 10 18  1  0  0  0  0
 11 13  1  0  0  0  0
 11 18  2  0  0  0  0
 12 19  1  0  0  0  0
 13 19  2  0  0  0  0
 14 28  2  0  0  0  0
 14 29  1  0  0  0  0
 15 26  1  0  0  0  0
 16 17  2  0  0  0  0
 16 28  1  0  0  0  0
 17 29  1  0  0  0  0
 18 30  1  0  0  0  0
 19 31  1  0  0  0  0
 20 22  1  0  0  0  0
 20 30  1  0  0  0  0
 20 32  2  0  0  0  0
 21 27  1  0  0  0  0
 21 31  1  0  0  0  0
 21 33  2  0  0  0  0
 22 23  1  0  0  0  0
 23 24  1  0  0  0  0
 24 25  1  0  0  0  0
 25 30  1  0  0  0  0
 26 31  1  0  0  0  0
 27 29  1  0  0  0  0
  1 34  1  0  0  0  0
  2 35  1  0  0  0  0
  3 36  1  0  0  0  0
  4 37  1  0  0  0  0
  5 38  1  0  0  0  0
  6 39  1  0  0  0  0
  7 40  1  0  0  0  0
  8 41  1  0  0  0  0
  9 42  1  0  0  0  0
 10 43  1  0  0  0  0
 11 44  1  0  0  0  0
 12 45  1  0  0  0  0
 13 46  1  0  0  0  0
 14 47  1  0  0  0  0
 22 48  1  0  0  0  0
 22 49  1  0  0  0  0
 23 50  1  0  0  0  0
 23 51  1  0  0  0  0
 24 52  1  0  0  0  0
 24 53  1  0  0  0  0
 25 54  1  0  0  0  0
 25 55  1  0  0  0  0
 26 56  1  0  0  0  0
 26 57  1  0  0  0  0
 27 58  1  0  0  0  0
 27 59  1  0  0  0  0
M  END
> <clash_score>
0.7790751876189459

> <docking_score>
-8.708239555358887

> <overlap_score>
1.0041024684906006

$$$$
BENZO_384_1
  -OEChem-08222022203D

 56 60  0     0  0  0  0  0  0999 V2000
    3.9160    2.0630   19.5520 C   0  0  0  0  0  0  0  0  0  0  0  0
    4.2750    1.7050   20.8490 C   0  0  0  0  0  0  0  0  0  0  0  0
    4.6890    1.6810   18.4640 C   0  0  0  0  0  0  0  0  0  0  0  0
    5.4210    0.9600   21.0930 C   0  0  0  0  0  0  0  0  0  0  0  0
    8.9960   -2.3380   25.5320 C   0  0  0  0  0  0  0  0  0  0  0  0
    9.6730   -3.4710   23.5300 C   0  0  0  0  0  0  0  0  0  0  0  0
    9.0720   -1.1280   24.8640 C   0  0  0  0  0  0  0  0  0  0  0  0
    9.7200   -2.2600   22.8630 C   0  0  0  0  0  0  0  0  0  0  0  0
   12.2913    1.4279   22.6355 C   0  0  0  0  0  0  0  0  0  0  0  0
   13.6024    1.4662   23.0564 C   0  0  0  0  0  0  0  0  0  0  0  0
   12.0284    1.3764   24.9443 C   0  0  0  0  0  0  0  0  0  0  0  0
    7.6390   -0.2680   18.5410 C   0  0  0  0  0  0  0  0  0  0  0  0
   11.3794    1.3761   23.7290 C   0  0  0  0  0  0  0  0  0  0  0  0
    5.8300    0.9190   18.6970 C   0  0  0  0  0  0  0  0  0  0  0  0
    6.1790    0.5730   19.9990 C   0  0  0  0  0  0  0  0  0  0  0  0
    9.3070   -3.5340   24.8780 C   0  0  0  0  0  0  0  0  0  0  0  0
    9.3350   -1.0880   23.5010 C   0  0  0  0  0  0  0  0  0  0  0  0
    8.3596   -5.0074   26.6308 C   0  0  0  0  0  0  0  0  0  0  0  0
    9.0420    0.3700   21.5280 C   0  0  0  0  0  0  0  0  0  0  0  0
    8.4579   -6.4047   27.2169 C   0  0  0  0  0  0  0  0  0  0  0  0
    8.4717   -7.4504   26.1159 C   0  0  0  0  0  0  0  0  0  0  0  0
    9.5645   -7.1893   25.0842 C   0  0  0  0  0  0  0  0  0  0  0  0
   10.2327   -5.8252   25.2501 C   0  0  0  0  0  0  0  0  0  0  0  0
    9.8870    1.3260   23.5730 C   0  0  0  0  0  0  0  0  0  0  0  0
    8.1890   -0.7180   20.8700 C   0  0  0  0  0  0  0  0  0  0  0  0
    6.7580    0.3810   17.8350 N   0  0  0  0  0  0  0  0  0  0  0  0
    7.3170   -0.1610   19.8550 N   0  0  0  0  0  0  0  0  0  0  0  0
    9.2529   -4.7798   25.5645 N   0  0  0  0  0  0  0  0  0  0  0  0
    9.4560    0.1560   22.8130 N   0  0  0  0  0  0  0  0  0  0  0  0
    7.5990   -4.1865   27.1424 O   0  0  0  0  0  0  0  0  0  0  0  0
    9.2690    1.4140   20.9380 O   0  0  0  0  0  0  0  0  0  0  0  0
   13.7301    1.4394   24.7638 S   0  0  0  0  0  0  0  0  0  0  0  0
    3.0133    2.6526   19.3911 H   0  0  0  0  0  0  0  0  0  0  0  0
    3.6478    2.0143   21.6818 H   0  0  0  0  0  0  0  0  0  0  0  0
    4.4036    1.9735   17.4543 H   0  0  0  0  0  0  0  0  0  0  0  0
    5.7089    0.6922   22.1131 H   0  0  0  0  0  0  0  0  0  0  0  0
    8.6895   -2.3529   26.5807 H   0  0  0  0  0  0  0  0  0  0  0  0
    9.9262   -4.3897   22.9916 H   0  0  0  0  0  0  0  0  0  0  0  0
    8.9224   -0.1998   25.4238 H   0  0  0  0  0  0  0  0  0  0  0  0
   10.0649   -2.2343   21.8258 H   0  0  0  0  0  0  0  0  0  0  0  0
   12.0045    1.4365   21.5915 H   0  0  0  0  0  0  0  0  0  0  0  0
   14.4914    1.5078   22.4431 H   0  0  0  0  0  0  0  0  0  0  0  0
   11.5886    1.3416   25.9314 H   0  0  0  0  0  0  0  0  0  0  0  0
    8.4865   -0.8061   18.1803 H   0  0  0  0  0  0  0  0  0  0  0  0
    9.3706   -6.4745   27.7885 H   0  0  0  0  0  0  0  0  0  0  0  0
    7.6055   -6.5497   27.8636 H   0  0  0  0  0  0  0  0  0  0  0  0
    8.6095   -8.4604   26.5550 H   0  0  0  0  0  0  0  0  0  0  0  0
    7.4835   -7.4763   25.6142 H   0  0  0  0  0  0  0  0  0  0  0  0
   10.3359   -7.9850   25.1531 H   0  0  0  0  0  0  0  0  0  0  0  0
    9.1458   -7.2796   24.0582 H   0  0  0  0  0  0  0  0  0  0  0  0
   10.9408   -5.8640   26.0725 H   0  0  0  0  0  0  0  0  0  0  0  0
   10.7521   -5.5631   24.3347 H   0  0  0  0  0  0  0  0  0  0  0  0
    9.3974    1.2912   24.5523 H   0  0  0  0  0  0  0  0  0  0  0  0
    9.5159    2.2168   23.0554 H   0  0  0  0  0  0  0  0  0  0  0  0
    8.8326   -1.4554   20.3912 H   0  0  0  0  0  0  0  0  0  0  0  0
    7.5604   -1.1971   21.6201 H   0  0  0  0  0  0  0  0  0  0  0  0
  1  2  1  0  0  0  0
  1  3  2  0  0  0  0
  2  4  2  0  0  0  0
  3 14  1  0  0  0  0
  4 15  1  0  0  0  0
  5  7  2  0  0  0  0
  5 16  1  0  0  0  0
  6  8  1  0  0  0  0
  6 16  2  0  0  0  0
  7 17  1  0  0  0  0
  8 17  2  0  0  0  0
  9 10  2  0  0  0  0
  9 13  1  0  0  0  0
 10 32  1  0  0  0  0
 11 13  2  0  0  0  0
 11 32  1  0  0  0  0
 12 26  2  0  0  0  0
 12 27  1  0  0  0  0
 13 24  1  0  0  0  0
 14 15  2  0  0  0  0
 14 26  1  0  0  0  0
 15 27  1  0  0  0  0
 16 28  1  0  0  0  0
 17 29  1  0  0  0  0
 18 20  1  0  0  0  0
 18 28  1  0  0  0  0
 18 30  2  0  0  0  0
 19 25  1  0  0  0  0
 19 29  1  0  0  0  0
 19 31  2  0  0  0  0
 20 21  1  0  0  0  0
 21 22  1  0  0  0  0
 22 23  1  0  0  0  0
 23 28  1  0  0  0  0
 24 29  1  0  0  0  0
 25 27  1  0  0  0  0
  1 33  1  0  0  0  0
  2 34  1  0  0  0  0
  3 35  1  0  0  0  0
  4 36  1  0  0  0  0
  5 37  1  0  0  0  0
  6 38  1  0  0  0  0
  7 39  1  0  0  0  0
  8 40  1  0  0  0  0
  9 41  1  0  0  0  0
 10 42  1  0  0  0  0
 11 43  1  0  0  0  0
 12 44  1  0  0  0  0
 20 45  1  0  0  0  0
 20 46  1  0  0  0  0
 21 47  1  0  0  0  0
 21 48  1  0  0  0  0
 22 49  1  0  0  0  0
 22 50  1  0  0  0  0
 23 51  1  0  0  0  0
 23 52  1  0  0  0  0
 24 53  1  0  0  0  0
 24 54  1  0  0  0  0
 25 55  1  0  0  0  0
 25 56  1  0  0  0  0
M  END
> <clash_score>
0.6354466317061015

> <docking_score>
-8.623540878295898

> <overlap_score>
0.9878003001213074

$$$$
BENZO_387_1
  -OEChem-08222022203D

 59 63  0     0  0  0  0  0  0999 V2000
    3.9160    2.0630   19.5520 C   0  0  0  0  0  0  0  0  0  0  0  0
    4.2750    1.7050   20.8490 C   0  0  0  0  0  0  0  0  0  0  0  0
    4.6890    1.6810   18.4640 C   0  0  0  0  0  0  0  0  0  0  0  0
    5.4210    0.9600   21.0930 C   0  0  0  0  0  0  0  0  0  0  0  0
    8.9960   -2.3380   25.5320 C   0  0  0  0  0  0  0  0  0  0  0  0
    9.6730   -3.4710   23.5300 C   0  0  0  0  0  0  0  0  0  0  0  0
    9.0720   -1.1280   24.8640 C   0  0  0  0  0  0  0  0  0  0  0  0
    9.7200   -2.2600   22.8630 C   0  0  0  0  0  0  0  0  0  0  0  0
   12.1233    1.3811   24.9242 C   0  0  0  0  0  0  0  0  0  0  0  0
   12.3262    1.4247   22.7351 C   0  0  0  0  0  0  0  0  0  0  0  0
    7.6390   -0.2680   18.5410 C   0  0  0  0  0  0  0  0  0  0  0  0
   11.3794    1.3761   23.7290 C   0  0  0  0  0  0  0  0  0  0  0  0
    5.8300    0.9190   18.6970 C   0  0  0  0  0  0  0  0  0  0  0  0
    6.1790    0.5730   19.9990 C   0  0  0  0  0  0  0  0  0  0  0  0
    9.3070   -3.5340   24.8780 C   0  0  0  0  0  0  0  0  0  0  0  0
    9.3350   -1.0880   23.5010 C   0  0  0  0  0  0  0  0  0  0  0  0
    8.3597   -5.0073   26.6307 C   0  0  0  0  0  0  0  0  0  0  0  0
    9.0420    0.3700   21.5280 C   0  0  0  0  0  0  0  0  0  0  0  0
    8.4720   -6.3981   27.2296 C   0  0  0  0  0  0  0  0  0  0  0  0
    9.9252   -6.7605   27.4803 C   0  0  0  0  0  0  0  0  0  0  0  0
   10.7833   -6.6094   26.2282 C   0  0  0  0  0  0  0  0  0  0  0  0
   10.0539   -5.9099   25.0823 C   0  0  0  0  0  0  0  0  0  0  0  0
   14.8305    1.5084   22.7418 C   0  0  0  0  0  0  0  0  0  0  0  0
    9.8870    1.3260   23.5730 C   0  0  0  0  0  0  0  0  0  0  0  0
    8.1890   -0.7180   20.8700 C   0  0  0  0  0  0  0  0  0  0  0  0
   13.4410    1.4289   24.7112 N   0  0  0  0  0  0  0  0  0  0  0  0
    6.7580    0.3810   17.8350 N   0  0  0  0  0  0  0  0  0  0  0  0
   13.5326    1.4543   23.3707 N   0  0  0  0  0  0  0  0  0  0  0  0
    7.3170   -0.1610   19.8550 N   0  0  0  0  0  0  0  0  0  0  0  0
    9.2529   -4.7797   25.5644 N   0  0  0  0  0  0  0  0  0  0  0  0
    9.4560    0.1560   22.8130 N   0  0  0  0  0  0  0  0  0  0  0  0
    7.4954   -4.2356   27.0449 O   0  0  0  0  0  0  0  0  0  0  0  0
    9.2690    1.4140   20.9380 O   0  0  0  0  0  0  0  0  0  0  0  0
    3.0133    2.6526   19.3911 H   0  0  0  0  0  0  0  0  0  0  0  0
    3.6478    2.0143   21.6818 H   0  0  0  0  0  0  0  0  0  0  0  0
    4.4036    1.9735   17.4543 H   0  0  0  0  0  0  0  0  0  0  0  0
    5.7089    0.6922   22.1131 H   0  0  0  0  0  0  0  0  0  0  0  0
    8.6895   -2.3529   26.5807 H   0  0  0  0  0  0  0  0  0  0  0  0
    9.9262   -4.3897   22.9916 H   0  0  0  0  0  0  0  0  0  0  0  0
    8.9224   -0.1998   25.4238 H   0  0  0  0  0  0  0  0  0  0  0  0
   10.0649   -2.2343   21.8258 H   0  0  0  0  0  0  0  0  0  0  0  0
   11.7624    1.3510   25.9426 H   0  0  0  0  0  0  0  0  0  0  0  0
   12.2462    1.4390   21.6566 H   0  0  0  0  0  0  0  0  0  0  0  0
    8.4865   -0.8061   18.1803 H   0  0  0  0  0  0  0  0  0  0  0  0
    7.9325   -6.4148   28.1641 H   0  0  0  0  0  0  0  0  0  0  0  0
    8.0254   -7.0920   26.5333 H   0  0  0  0  0  0  0  0  0  0  0  0
   10.3387   -6.1267   28.2923 H   0  0  0  0  0  0  0  0  0  0  0  0
    9.9904   -7.8023   27.8537 H   0  0  0  0  0  0  0  0  0  0  0  0
   11.7037   -6.0404   26.4771 H   0  0  0  0  0  0  0  0  0  0  0  0
   11.1411   -7.6068   25.8918 H   0  0  0  0  0  0  0  0  0  0  0  0
   10.7782   -5.5162   24.3756 H   0  0  0  0  0  0  0  0  0  0  0  0
    9.4042   -6.6189   24.5807 H   0  0  0  0  0  0  0  0  0  0  0  0
   15.0990    2.5601   22.6124 H   0  0  0  0  0  0  0  0  0  0  0  0
   15.5636    1.0018   23.3756 H   0  0  0  0  0  0  0  0  0  0  0  0
   14.7841    1.0025   21.7733 H   0  0  0  0  0  0  0  0  0  0  0  0
    9.3974    1.2912   24.5523 H   0  0  0  0  0  0  0  0  0  0  0  0
    9.5159    2.2168   23.0554 H   0  0  0  0  0  0  0  0  0  0  0  0
    8.8326   -1.4554   20.3912 H   0  0  0  0  0  0  0  0  0  0  0  0
    7.5604   -1.1971   21.6201 H   0  0  0  0  0  0  0  0  0  0  0  0
  1  2  1  0  0  0  0
  1  3  2  0  0  0  0
  2  4  2  0  0  0  0
  3 13  1  0  0  0  0
  4 14  1  0  0  0  0
  5  7  2  0  0  0  0
  5 15  1  0  0  0  0
  6  8  1  0  0  0  0
  6 15  2  0  0  0  0
  7 16  1  0  0  0  0
  8 16  2  0  0  0  0
  9 12  1  0  0  0  0
  9 26  2  0  0  0  0
 10 12  2  0  0  0  0
 10 28  1  0  0  0  0
 11 27  2  0  0  0  0
 11 29  1  0  0  0  0
 12 24  1  0  0  0  0
 13 14  2  0  0  0  0
 13 27  1  0  0  0  0
 14 29  1  0  0  0  0
 15 30  1  0  0  0  0
 16 31  1  0  0  0  0
 17 19  1  0  0  0  0
 17 30  1  0  0  0  0
 17 32  2  0  0  0  0
 18 25  1  0  0  0  0
 18 31  1  0  0  0  0
 18 33  2  0  0  0  0
 19 20  1  0  0  0  0
 20 21  1  0  0  0  0
 21 22  1  0  0  0  0
 22 30  1  0  0  0  0
 23 28  1  0  0  0  0
 24 31  1  0  0  0  0
 25 29  1  0  0  0  0
 26 28  1  0  0  0  0
  1 34  1  0  0  0  0
  2 35  1  0  0  0  0
  3 36  1  0  0  0  0
  4 37  1  0  0  0  0
  5 38  1  0  0  0  0
  6 39  1  0  0  0  0
  7 40  1  0  0  0  0
  8 41  1  0  0  0  0
  9 42  1  0  0  0  0
 10 43  1  0  0  0  0
 11 44  1  0  0  0  0
 19 45  1  0  0  0  0
 19 46  1  0  0  0  0
 20 47  1  0  0  0  0
 20 48  1  0  0  0  0
 21 49  1  0  0  0  0
 21 50  1  0  0  0  0
 22 51  1  0  0  0  0
 22 52  1  0  0  0  0
 23 53  1  0  0  0  0
 23 54  1  0  0  0  0
 23 55  1  0  0  0  0
 24 56  1  0  0  0  0
 24 57  1  0  0  0  0
 25 58  1  0  0  0  0
 25 59  1  0  0  0  0
M  END
> <clash_score>
0.7790751876189459

> <docking_score>
-8.424371719360352

> <overlap_score>
0.999036431312561

$$$$
BENZO_386_1
  -OEChem-08222022203D

 59 63  0     0  0  0  0  0  0999 V2000
    3.9160    2.0630   19.5520 C   0  0  0  0  0  0  0  0  0  0  0  0
    4.2750    1.7050   20.8490 C   0  0  0  0  0  0  0  0  0  0  0  0
   13.4007    0.5725   24.7805 C   0  0  0  0  0  0  0  0  0  0  0  0
   12.0141    0.5273   24.6359 C   0  0  0  0  0  0  0  0  0  0  0  0
    4.6890    1.6810   18.4640 C   0  0  0  0  0  0  0  0  0  0  0  0
    5.4210    0.9600   21.0930 C   0  0  0  0  0  0  0  0  0  0  0  0
    8.9960   -2.3380   25.5320 C   0  0  0  0  0  0  0  0  0  0  0  0
    9.6730   -3.4710   23.5300 C   0  0  0  0  0  0  0  0  0  0  0  0
    9.0720   -1.1280   24.8640 C   0  0  0  0  0  0  0  0  0  0  0  0
    9.7200   -2.2600   22.8630 C   0  0  0  0  0  0  0  0  0  0  0  0
   14.1526    1.4666   24.0184 C   0  0  0  0  0  0  0  0  0  0  0  0
   12.1314    2.2702   22.9668 C   0  0  0  0  0  0  0  0  0  0  0  0
    7.6390   -0.2680   18.5410 C   0  0  0  0  0  0  0  0  0  0  0  0
   11.3794    1.3761   23.7290 C   0  0  0  0  0  0  0  0  0  0  0  0
    5.8300    0.9190   18.6970 C   0  0  0  0  0  0  0  0  0  0  0  0
    6.1790    0.5730   19.9990 C   0  0  0  0  0  0  0  0  0  0  0  0
    9.3070   -3.5340   24.8780 C   0  0  0  0  0  0  0  0  0  0  0  0
    9.3350   -1.0880   23.5010 C   0  0  0  0  0  0  0  0  0  0  0  0
   13.5180    2.3154   23.1115 C   0  0  0  0  0  0  0  0  0  0  0  0
    8.3597   -5.0073   26.6307 C   0  0  0  0  0  0  0  0  0  0  0  0
    9.0420    0.3700   21.5280 C   0  0  0  0  0  0  0  0  0  0  0  0
    8.4720   -6.3981   27.2296 C   0  0  0  0  0  0  0  0  0  0  0  0
    9.9252   -6.7605   27.4803 C   0  0  0  0  0  0  0  0  0  0  0  0
   10.7833   -6.6094   26.2282 C   0  0  0  0  0  0  0  0  0  0  0  0
   10.0539   -5.9099   25.0823 C   0  0  0  0  0  0  0  0  0  0  0  0
    9.8870    1.3260   23.5730 C   0  0  0  0  0  0  0  0  0  0  0  0
    8.1890   -0.7180   20.8700 C   0  0  0  0  0  0  0  0  0  0  0  0
    6.7580    0.3810   17.8350 N   0  0  0  0  0  0  0  0  0  0  0  0
    7.3170   -0.1610   19.8550 N   0  0  0  0  0  0  0  0  0  0  0  0
    9.2529   -4.7797   25.5644 N   0  0  0  0  0  0  0  0  0  0  0  0
    9.4560    0.1560   22.8130 N   0  0  0  0  0  0  0  0  0  0  0  0
    7.4954   -4.2356   27.0449 O   0  0  0  0  0  0  0  0  0  0  0  0
    9.2690    1.4140   20.9380 O   0  0  0  0  0  0  0  0  0  0  0  0
   14.4463    3.4175   22.1707 Cl  0  0  0  0  0  0  0  0  0  0  0  0
    3.0133    2.6526   19.3911 H   0  0  0  0  0  0  0  0  0  0  0  0
    3.6478    2.0143   21.6818 H   0  0  0  0  0  0  0  0  0  0  0  0
   13.8945   -0.0888   25.4867 H   0  0  0  0  0  0  0  0  0  0  0  0
   11.4361   -0.1726   25.2338 H   0  0  0  0  0  0  0  0  0  0  0  0
    4.4036    1.9735   17.4543 H   0  0  0  0  0  0  0  0  0  0  0  0
    5.7089    0.6922   22.1131 H   0  0  0  0  0  0  0  0  0  0  0  0
    8.6895   -2.3529   26.5807 H   0  0  0  0  0  0  0  0  0  0  0  0
    9.9262   -4.3897   22.9916 H   0  0  0  0  0  0  0  0  0  0  0  0
    8.9224   -0.1998   25.4238 H   0  0  0  0  0  0  0  0  0  0  0  0
   10.0649   -2.2343   21.8258 H   0  0  0  0  0  0  0  0  0  0  0  0
   15.2326    1.4907   24.1414 H   0  0  0  0  0  0  0  0  0  0  0  0
   11.6318    2.9303   22.2615 H   0  0  0  0  0  0  0  0  0  0  0  0
    8.4865   -0.8061   18.1803 H   0  0  0  0  0  0  0  0  0  0  0  0
    7.9325   -6.4148   28.1641 H   0  0  0  0  0  0  0  0  0  0  0  0
    8.0254   -7.0920   26.5333 H   0  0  0  0  0  0  0  0  0  0  0  0
   10.3387   -6.1267   28.2923 H   0  0  0  0  0  0  0  0  0  0  0  0
    9.9904   -7.8023   27.8537 H   0  0  0  0  0  0  0  0  0  0  0  0
   11.7037   -6.0404   26.4771 H   0  0  0  0  0  0  0  0  0  0  0  0
   11.1411   -7.6068   25.8918 H   0  0  0  0  0  0  0  0  0  0  0  0
   10.7782   -5.5162   24.3756 H   0  0  0  0  0  0  0  0  0  0  0  0
    9.4042   -6.6189   24.5807 H   0  0  0  0  0  0  0  0  0  0  0  0
    9.3974    1.2912   24.5523 H   0  0  0  0  0  0  0  0  0  0  0  0
    9.5159    2.2168   23.0554 H   0  0  0  0  0  0  0  0  0  0  0  0
    8.8326   -1.4554   20.3912 H   0  0  0  0  0  0  0  0  0  0  0  0
    7.5604   -1.1971   21.6201 H   0  0  0  0  0  0  0  0  0  0  0  0
  1  2  1  0  0  0  0
  1  5  2  0  0  0  0
  2  6  2  0  0  0  0
  3  4  2  0  0  0  0
  3 11  1  0  0  0  0
  4 14  1  0  0  0  0
  5 15  1  0  0  0  0
  6 16  1  0  0  0  0
  7  9  2  0  0  0  0
  7 17  1  0  0  0  0
  8 10  1  0  0  0  0
  8 17  2  0  0  0  0
  9 18  1  0  0  0  0
 10 18  2  0  0  0  0
 11 19  2  0  0  0  0
 12 14  2  0  0  0  0
 12 19  1  0  0  0  0
 13 28  2  0  0  0  0
 13 29  1  0  0  0  0
 14 26  1  0  0  0  0
 15 16  2  0  0  0  0
 15 28  1  0  0  0  0
 16 29  1  0  0  0  0
 17 30  1  0  0  0  0
 18 31  1  0  0  0  0
 19 34  1  0  0  0  0
 20 22  1  0  0  0  0
 20 30  1  0  0  0  0
 20 32  2  0  0  0  0
 21 27  1  0  0  0  0
 21 31  1  0  0  0  0
 21 33  2  0  0  0  0
 22 23  1  0  0  0  0
 23 24  1  0  0  0  0
 24 25  1  0  0  0  0
 25 30  1  0  0  0  0
 26 31  1  0  0  0  0
 27 29  1  0  0  0  0
  1 35  1  0  0  0  0
  2 36  1  0  0  0  0
  3 37  1  0  0  0  0
  4 38  1  0  0  0  0
  5 39  1  0  0  0  0
  6 40  1  0  0  0  0
  7 41  1  0  0  0  0
  8 42  1  0  0  0  0
  9 43  1  0  0  0  0
 10 44  1  0  0  0  0
 11 45  1  0  0  0  0
 12 46  1  0  0  0  0
 13 47  1  0  0  0  0
 22 48  1  0  0  0  0
 22 49  1  0  0  0  0
 23 50  1  0  0  0  0
 23 51  1  0  0  0  0
 24 52  1  0  0  0  0
 24 53  1  0  0  0  0
 25 54  1  0  0  0  0
 25 55  1  0  0  0  0
 26 56  1  0  0  0  0
 26 57  1  0  0  0  0
 27 58  1  0  0  0  0
 27 59  1  0  0  0  0
M  END
> <clash_score>
0.7790751876189459

> <docking_score>
-7.845208168029785

> <overlap_score>
1.015157699584961

$$$$
BENZO_389_1
  -OEChem-08222022203D

 58 62  0     0  0  0  0  0  0999 V2000
   14.1526    1.4694   24.0176 C   0  0  0  0  0  0  0  0  0  0  0  0
   13.3741    0.8121   24.9701 C   0  0  0  0  0  0  0  0  0  0  0  0
   13.5446    2.0802   22.9208 C   0  0  0  0  0  0  0  0  0  0  0  0
    3.9160    2.0630   19.5520 C   0  0  0  0  0  0  0  0  0  0  0  0
    4.2750    1.7050   20.8490 C   0  0  0  0  0  0  0  0  0  0  0  0
   11.9875    0.7654   24.8258 C   0  0  0  0  0  0  0  0  0  0  0  0
   12.1580    2.0335   22.7765 C   0  0  0  0  0  0  0  0  0  0  0  0
    4.6890    1.6810   18.4640 C   0  0  0  0  0  0  0  0  0  0  0  0
    5.4210    0.9600   21.0930 C   0  0  0  0  0  0  0  0  0  0  0  0
    8.9960   -2.3380   25.5320 C   0  0  0  0  0  0  0  0  0  0  0  0
    9.6730   -3.4710   23.5300 C   0  0  0  0  0  0  0  0  0  0  0  0
    9.0720   -1.1280   24.8640 C   0  0  0  0  0  0  0  0  0  0  0  0
    9.7200   -2.2600   22.8630 C   0  0  0  0  0  0  0  0  0  0  0  0
    7.6390   -0.2680   18.5410 C   0  0  0  0  0  0  0  0  0  0  0  0
   11.3794    1.3761   23.7290 C   0  0  0  0  0  0  0  0  0  0  0  0
    5.8300    0.9190   18.6970 C   0  0  0  0  0  0  0  0  0  0  0  0
    6.1790    0.5730   19.9990 C   0  0  0  0  0  0  0  0  0  0  0  0
    9.3070   -3.5340   24.8780 C   0  0  0  0  0  0  0  0  0  0  0  0
    9.3350   -1.0880   23.5010 C   0  0  0  0  0  0  0  0  0  0  0  0
    9.0420    0.3700   21.5280 C   0  0  0  0  0  0  0  0  0  0  0  0
   10.0771   -5.0255   26.7193 C   0  0  0  0  0  0  0  0  0  0  0  0
    8.0927   -5.6195   25.4071 C   0  0  0  0  0  0  0  0  0  0  0  0
    9.1933   -4.9427   27.9592 C   0  0  0  0  0  0  0  0  0  0  0  0
    7.2756   -5.5290   26.6967 C   0  0  0  0  0  0  0  0  0  0  0  0
    9.8870    1.3260   23.5730 C   0  0  0  0  0  0  0  0  0  0  0  0
    8.1890   -0.7180   20.8700 C   0  0  0  0  0  0  0  0  0  0  0  0
    6.7580    0.3810   17.8350 N   0  0  0  0  0  0  0  0  0  0  0  0
    7.3170   -0.1610   19.8550 N   0  0  0  0  0  0  0  0  0  0  0  0
    9.2563   -4.7368   25.5413 N   0  0  0  0  0  0  0  0  0  0  0  0
    9.4560    0.1560   22.8130 N   0  0  0  0  0  0  0  0  0  0  0  0
    9.2690    1.4140   20.9380 O   0  0  0  0  0  0  0  0  0  0  0  0
    8.0883   -5.8459   27.8325 O   0  0  0  0  0  0  0  0  0  0  0  0
   15.2322    1.5068   24.1308 H   0  0  0  0  0  0  0  0  0  0  0  0
   13.8473    0.3374   25.8248 H   0  0  0  0  0  0  0  0  0  0  0  0
   14.1503    2.5930   22.1795 H   0  0  0  0  0  0  0  0  0  0  0  0
    3.0133    2.6526   19.3911 H   0  0  0  0  0  0  0  0  0  0  0  0
    3.6478    2.0143   21.6818 H   0  0  0  0  0  0  0  0  0  0  0  0
   11.3889    0.2508   25.5729 H   0  0  0  0  0  0  0  0  0  0  0  0
   11.6930    2.5120   21.9187 H   0  0  0  0  0  0  0  0  0  0  0  0
    4.4036    1.9735   17.4543 H   0  0  0  0  0  0  0  0  0  0  0  0
    5.7089    0.6922   22.1131 H   0  0  0  0  0  0  0  0  0  0  0  0
    8.6905   -2.3533   26.5810 H   0  0  0  0  0  0  0  0  0  0  0  0
    9.9266   -4.3896   22.9917 H   0  0  0  0  0  0  0  0  0  0  0  0
    8.9233   -0.1992   25.4232 H   0  0  0  0  0  0  0  0  0  0  0  0
   10.0650   -2.2330   21.8256 H   0  0  0  0  0  0  0  0  0  0  0  0
    8.4865   -0.8061   18.1803 H   0  0  0  0  0  0  0  0  0  0  0  0
   10.8985   -4.3115   26.8085 H   0  0  0  0  0  0  0  0  0  0  0  0
   10.4915   -6.0334   26.6323 H   0  0  0  0  0  0  0  0  0  0  0  0
    8.4327   -6.6456   25.2620 H   0  0  0  0  0  0  0  0  0  0  0  0
    7.4725   -5.3241   24.5619 H   0  0  0  0  0  0  0  0  0  0  0  0
    9.7636   -5.2398   28.8419 H   0  0  0  0  0  0  0  0  0  0  0  0
    8.8236   -3.9268   28.1248 H   0  0  0  0  0  0  0  0  0  0  0  0
    6.8339   -4.5337   26.8232 H   0  0  0  0  0  0  0  0  0  0  0  0
    6.4550   -6.2521   26.6643 H   0  0  0  0  0  0  0  0  0  0  0  0
    9.3974    1.2912   24.5523 H   0  0  0  0  0  0  0  0  0  0  0  0
    9.5159    2.2168   23.0554 H   0  0  0  0  0  0  0  0  0  0  0  0
    8.8326   -1.4554   20.3912 H   0  0  0  0  0  0  0  0  0  0  0  0
    7.5604   -1.1971   21.6201 H   0  0  0  0  0  0  0  0  0  0  0  0
  1  2  1  0  0  0  0
  1  3  2  0  0  0  0
  2  6  2  0  0  0  0
  3  7  1  0  0  0  0
  4  5  1  0  0  0  0
  4  8  2  0  0  0  0
  5  9  2  0  0  0  0
  6 15  1  0  0  0  0
  7 15  2  0  0  0  0
  8 16  1  0  0  0  0
  9 17  1  0  0  0  0
 10 12  2  0  0  0  0
 10 18  1  0  0  0  0
 11 13  1  0  0  0  0
 11 18  2  0  0  0  0
 12 19  1  0  0  0  0
 13 19  2  0  0  0  0
 14 27  2  0  0  0  0
 14 28  1  0  0  0  0
 15 25  1  0  0  0  0
 16 17  2  0  0  0  0
 16 27  1  0  0  0  0
 17 28  1  0  0  0  0
 18 29  1  0  0  0  0
 19 30  1  0  0  0  0
 20 26  1  0  0  0  0
 20 30  1  0  0  0  0
 20 31  2  0  0  0  0
 21 23  1  0  0  0  0
 21 29  1  0  0  0  0
 22 24  1  0  0  0  0
 22 29  1  0  0  0  0
 23 32  1  0  0  0  0
 24 32  1  0  0  0  0
 25 30  1  0  0  0  0
 26 28  1  0  0  0  0
  1 33  1  0  0  0  0
  2 34  1  0  0  0  0
  3 35  1  0  0  0  0
  4 36  1  0  0  0  0
  5 37  1  0  0  0  0
  6 38  1  0  0  0  0
  7 39  1  0  0  0  0
  8 40  1  0  0  0  0
  9 41  1  0  0  0  0
 10 42  1  0  0  0  0
 11 43  1  0  0  0  0
 12 44  1  0  0  0  0
 13 45  1  0  0  0  0
 14 46  1  0  0  0  0
 21 47  1  0  0  0  0
 21 48  1  0  0  0  0
 22 49  1  0  0  0  0
 22 50  1  0  0  0  0
 23 51  1  0  0  0  0
 23 52  1  0  0  0  0
 24 53  1  0  0  0  0
 24 54  1  0  0  0  0
 25 55  1  0  0  0  0
 25 56  1  0  0  0  0
 26 57  1  0  0  0  0
 26 58  1  0  0  0  0
M  END
> <clash_score>
0

> <docking_score>
-9.689355850219727

> <overlap_score>
0.990332305431366

$$$$
BENZO_388_1
  -OEChem-08222022203D

 55 59  0     0  0  0  0  0  0999 V2000
    3.9160    2.0630   19.5520 C   0  0  0  0  0  0  0  0  0  0  0  0
    4.2750    1.7050   20.8490 C   0  0  0  0  0  0  0  0  0  0  0  0
    4.6890    1.6810   18.4640 C   0  0  0  0  0  0  0  0  0  0  0  0
    5.4210    0.9600   21.0930 C   0  0  0  0  0  0  0  0  0  0  0  0
    8.9960   -2.3380   25.5320 C   0  0  0  0  0  0  0  0  0  0  0  0
    9.6730   -3.4710   23.5300 C   0  0  0  0  0  0  0  0  0  0  0  0
    9.0720   -1.1280   24.8640 C   0  0  0  0  0  0  0  0  0  0  0  0
    9.7200   -2.2600   22.8630 C   0  0  0  0  0  0  0  0  0  0  0  0
   12.2111    0.2208   23.7905 C   0  0  0  0  0  0  0  0  0  0  0  0
   13.5412    0.5479   23.9363 C   0  0  0  0  0  0  0  0  0  0  0  0
   12.1057    2.5424   23.8305 C   0  0  0  0  0  0  0  0  0  0  0  0
    7.6390   -0.2680   18.5410 C   0  0  0  0  0  0  0  0  0  0  0  0
   11.3794    1.3761   23.7290 C   0  0  0  0  0  0  0  0  0  0  0  0
    5.8300    0.9190   18.6970 C   0  0  0  0  0  0  0  0  0  0  0  0
    6.1790    0.5730   19.9990 C   0  0  0  0  0  0  0  0  0  0  0  0
    9.3070   -3.5340   24.8780 C   0  0  0  0  0  0  0  0  0  0  0  0
    9.3350   -1.0880   23.5010 C   0  0  0  0  0  0  0  0  0  0  0  0
    9.0420    0.3700   21.5280 C   0  0  0  0  0  0  0  0  0  0  0  0
    9.5175   -4.8597   26.9771 C   0  0  0  0  0  0  0  0  0  0  0  0
    8.5165   -5.8725   24.9808 C   0  0  0  0  0  0  0  0  0  0  0  0
    8.1868   -5.0439   27.6987 C   0  0  0  0  0  0  0  0  0  0  0  0
    7.2200   -6.0347   25.7755 C   0  0  0  0  0  0  0  0  0  0  0  0
    9.8870    1.3260   23.5730 C   0  0  0  0  0  0  0  0  0  0  0  0
    8.1890   -0.7180   20.8700 C   0  0  0  0  0  0  0  0  0  0  0  0
    6.7580    0.3810   17.8350 N   0  0  0  0  0  0  0  0  0  0  0  0
    7.3170   -0.1610   19.8550 N   0  0  0  0  0  0  0  0  0  0  0  0
    9.2563   -4.7368   25.5413 N   0  0  0  0  0  0  0  0  0  0  0  0
    9.4560    0.1560   22.8130 N   0  0  0  0  0  0  0  0  0  0  0  0
    9.2690    1.4140   20.9380 O   0  0  0  0  0  0  0  0  0  0  0  0
    7.4994   -6.1853   27.1719 O   0  0  0  0  0  0  0  0  0  0  0  0
   13.7831    2.2420   23.9988 S   0  0  0  0  0  0  0  0  0  0  0  0
    3.0133    2.6526   19.3911 H   0  0  0  0  0  0  0  0  0  0  0  0
    3.6478    2.0143   21.6818 H   0  0  0  0  0  0  0  0  0  0  0  0
    4.4036    1.9735   17.4543 H   0  0  0  0  0  0  0  0  0  0  0  0
    5.7089    0.6922   22.1131 H   0  0  0  0  0  0  0  0  0  0  0  0
    8.6905   -2.3533   26.5810 H   0  0  0  0  0  0  0  0  0  0  0  0
    9.9266   -4.3896   22.9917 H   0  0  0  0  0  0  0  0  0  0  0  0
    8.9233   -0.1992   25.4232 H   0  0  0  0  0  0  0  0  0  0  0  0
   10.0650   -2.2330   21.8256 H   0  0  0  0  0  0  0  0  0  0  0  0
   11.8559   -0.8003   23.7315 H   0  0  0  0  0  0  0  0  0  0  0  0
   14.3824   -0.1267   24.0100 H   0  0  0  0  0  0  0  0  0  0  0  0
   11.7354    3.5581   23.8155 H   0  0  0  0  0  0  0  0  0  0  0  0
    8.4865   -0.8061   18.1803 H   0  0  0  0  0  0  0  0  0  0  0  0
   10.0205   -3.9698   27.3609 H   0  0  0  0  0  0  0  0  0  0  0  0
   10.1535   -5.7310   27.1549 H   0  0  0  0  0  0  0  0  0  0  0  0
    9.1181   -6.7773   25.0755 H   0  0  0  0  0  0  0  0  0  0  0  0
    8.2812   -5.7064   23.9305 H   0  0  0  0  0  0  0  0  0  0  0  0
    8.3629   -5.2252   28.7611 H   0  0  0  0  0  0  0  0  0  0  0  0
    7.5530   -4.1570   27.6103 H   0  0  0  0  0  0  0  0  0  0  0  0
    6.5459   -5.1839   25.6221 H   0  0  0  0  0  0  0  0  0  0  0  0
    6.6948   -6.9354   25.4436 H   0  0  0  0  0  0  0  0  0  0  0  0
    9.3974    1.2912   24.5523 H   0  0  0  0  0  0  0  0  0  0  0  0
    9.5159    2.2168   23.0554 H   0  0  0  0  0  0  0  0  0  0  0  0
    8.8326   -1.4554   20.3912 H   0  0  0  0  0  0  0  0  0  0  0  0
    7.5604   -1.1971   21.6201 H   0  0  0  0  0  0  0  0  0  0  0  0
  1  2  1  0  0  0  0
  1  3  2  0  0  0  0
  2  4  2  0  0  0  0
  3 14  1  0  0  0  0
  4 15  1  0  0  0  0
  5  7  2  0  0  0  0
  5 16  1  0  0  0  0
  6  8  1  0  0  0  0
  6 16  2  0  0  0  0
  7 17  1  0  0  0  0
  8 17  2  0  0  0  0
  9 10  2  0  0  0  0
  9 13  1  0  0  0  0
 10 31  1  0  0  0  0
 11 13  2  0  0  0  0
 11 31  1  0  0  0  0
 12 25  2  0  0  0  0
 12 26  1  0  0  0  0
 13 23  1  0  0  0  0
 14 15  2  0  0  0  0
 14 25  1  0  0  0  0
 15 26  1  0  0  0  0
 16 27  1  0  0  0  0
 17 28  1  0  0  0  0
 18 24  1  0  0  0  0
 18 28  1  0  0  0  0
 18 29  2  0  0  0  0
 19 21  1  0  0  0  0
 19 27  1  0  0  0  0
 20 22  1  0  0  0  0
 20 27  1  0  0  0  0
 21 30  1  0  0  0  0
 22 30  1  0  0  0  0
 23 28  1  0  0  0  0
 24 26  1  0  0  0  0
  1 32  1  0  0  0  0
  2 33  1  0  0  0  0
  3 34  1  0  0  0  0
  4 35  1  0  0  0  0
  5 36  1  0  0  0  0
  6 37  1  0  0  0  0
  7 38  1  0  0  0  0
  8 39  1  0  0  0  0
  9 40  1  0  0  0  0
 10 41  1  0  0  0  0
 11 42  1  0  0  0  0
 12 43  1  0  0  0  0
 19 44  1  0  0  0  0
 19 45  1  0  0  0  0
 20 46  1  0  0  0  0
 20 47  1  0  0  0  0
 21 48  1  0  0  0  0
 21 49  1  0  0  0  0
 22 50  1  0  0  0  0
 22 51  1  0  0  0  0
 23 52  1  0  0  0  0
 23 53  1  0  0  0  0
 24 54  1  0  0  0  0
 24 55  1  0  0  0  0
M  END
> <clash_score>
0

> <docking_score>
-8.924639701843262

> <overlap_score>
0.9791509509086609

$$$$
BENZO_391_1
  -OEChem-08222022203D

 58 62  0     0  0  0  0  0  0999 V2000
    3.9160    2.0630   19.5520 C   0  0  0  0  0  0  0  0  0  0  0  0
    4.2750    1.7050   20.8490 C   0  0  0  0  0  0  0  0  0  0  0  0
    4.6890    1.6810   18.4640 C   0  0  0  0  0  0  0  0  0  0  0  0
    5.4210    0.9600   21.0930 C   0  0  0  0  0  0  0  0  0  0  0  0
    8.9960   -2.3380   25.5320 C   0  0  0  0  0  0  0  0  0  0  0  0
    9.6730   -3.4710   23.5300 C   0  0  0  0  0  0  0  0  0  0  0  0
    9.0720   -1.1280   24.8640 C   0  0  0  0  0  0  0  0  0  0  0  0
    9.7200   -2.2600   22.8630 C   0  0  0  0  0  0  0  0  0  0  0  0
   12.2914    2.2071   23.0512 C   0  0  0  0  0  0  0  0  0  0  0  0
   12.1614    0.6214   24.5689 C   0  0  0  0  0  0  0  0  0  0  0  0
    7.6390   -0.2680   18.5410 C   0  0  0  0  0  0  0  0  0  0  0  0
   11.3794    1.3761   23.7290 C   0  0  0  0  0  0  0  0  0  0  0  0
    5.8300    0.9190   18.6970 C   0  0  0  0  0  0  0  0  0  0  0  0
    6.1790    0.5730   19.9990 C   0  0  0  0  0  0  0  0  0  0  0  0
    9.3070   -3.5340   24.8780 C   0  0  0  0  0  0  0  0  0  0  0  0
    9.3350   -1.0880   23.5010 C   0  0  0  0  0  0  0  0  0  0  0  0
    9.0420    0.3700   21.5280 C   0  0  0  0  0  0  0  0  0  0  0  0
   10.0771   -5.0255   26.7193 C   0  0  0  0  0  0  0  0  0  0  0  0
    8.0927   -5.6195   25.4071 C   0  0  0  0  0  0  0  0  0  0  0  0
    9.1933   -4.9427   27.9592 C   0  0  0  0  0  0  0  0  0  0  0  0
    7.2756   -5.5290   26.6967 C   0  0  0  0  0  0  0  0  0  0  0  0
   14.6267    0.5248   25.0067 C   0  0  0  0  0  0  0  0  0  0  0  0
    9.8870    1.3260   23.5730 C   0  0  0  0  0  0  0  0  0  0  0  0
    8.1890   -0.7180   20.8700 C   0  0  0  0  0  0  0  0  0  0  0  0
   13.5560    2.0002   23.4280 N   0  0  0  0  0  0  0  0  0  0  0  0
    6.7580    0.3810   17.8350 N   0  0  0  0  0  0  0  0  0  0  0  0
   13.4442    1.0306   24.3518 N   0  0  0  0  0  0  0  0  0  0  0  0
    7.3170   -0.1610   19.8550 N   0  0  0  0  0  0  0  0  0  0  0  0
    9.2563   -4.7368   25.5413 N   0  0  0  0  0  0  0  0  0  0  0  0
    9.4560    0.1560   22.8130 N   0  0  0  0  0  0  0  0  0  0  0  0
    9.2690    1.4140   20.9380 O   0  0  0  0  0  0  0  0  0  0  0  0
    8.0883   -5.8459   27.8325 O   0  0  0  0  0  0  0  0  0  0  0  0
    3.0133    2.6526   19.3911 H   0  0  0  0  0  0  0  0  0  0  0  0
    3.6478    2.0143   21.6818 H   0  0  0  0  0  0  0  0  0  0  0  0
    4.4036    1.9735   17.4543 H   0  0  0  0  0  0  0  0  0  0  0  0
    5.7089    0.6922   22.1131 H   0  0  0  0  0  0  0  0  0  0  0  0
    8.6905   -2.3533   26.5810 H   0  0  0  0  0  0  0  0  0  0  0  0
    9.9266   -4.3896   22.9917 H   0  0  0  0  0  0  0  0  0  0  0  0
    8.9233   -0.1992   25.4232 H   0  0  0  0  0  0  0  0  0  0  0  0
   10.0650   -2.2330   21.8256 H   0  0  0  0  0  0  0  0  0  0  0  0
   12.0895    2.9562   22.2987 H   0  0  0  0  0  0  0  0  0  0  0  0
   11.9201   -0.1518   25.2857 H   0  0  0  0  0  0  0  0  0  0  0  0
    8.4865   -0.8061   18.1803 H   0  0  0  0  0  0  0  0  0  0  0  0
   10.8985   -4.3115   26.8085 H   0  0  0  0  0  0  0  0  0  0  0  0
   10.4915   -6.0334   26.6323 H   0  0  0  0  0  0  0  0  0  0  0  0
    8.4327   -6.6456   25.2620 H   0  0  0  0  0  0  0  0  0  0  0  0
    7.4725   -5.3241   24.5619 H   0  0  0  0  0  0  0  0  0  0  0  0
    9.7636   -5.2398   28.8419 H   0  0  0  0  0  0  0  0  0  0  0  0
    8.8236   -3.9268   28.1248 H   0  0  0  0  0  0  0  0  0  0  0  0
    6.8339   -4.5337   26.8232 H   0  0  0  0  0  0  0  0  0  0  0  0
    6.4550   -6.2521   26.6643 H   0  0  0  0  0  0  0  0  0  0  0  0
   15.0068   -0.3132   24.4165 H   0  0  0  0  0  0  0  0  0  0  0  0
   15.3758    1.3189   25.0698 H   0  0  0  0  0  0  0  0  0  0  0  0
   14.3676    0.1958   26.0170 H   0  0  0  0  0  0  0  0  0  0  0  0
    9.3974    1.2912   24.5523 H   0  0  0  0  0  0  0  0  0  0  0  0
    9.5159    2.2168   23.0554 H   0  0  0  0  0  0  0  0  0  0  0  0
    8.8326   -1.4554   20.3912 H   0  0  0  0  0  0  0  0  0  0  0  0
    7.5604   -1.1971   21.6201 H   0  0  0  0  0  0  0  0  0  0  0  0
  1  2  1  0  0  0  0
  1  3  2  0  0  0  0
  2  4  2  0  0  0  0
  3 13  1  0  0  0  0
  4 14  1  0  0  0  0
  5  7  2  0  0  0  0
  5 15  1  0  0  0  0
  6  8  1  0  0  0  0
  6 15  2  0  0  0  0
  7 16  1  0  0  0  0
  8 16  2  0  0  0  0
  9 12  1  0  0  0  0
  9 25  2  0  0  0  0
 10 12  2  0  0  0  0
 10 27  1  0  0  0  0
 11 26  2  0  0  0  0
 11 28  1  0  0  0  0
 12 23  1  0  0  0  0
 13 14  2  0  0  0  0
 13 26  1  0  0  0  0
 14 28  1  0  0  0  0
 15 29  1  0  0  0  0
 16 30  1  0  0  0  0
 17 24  1  0  0  0  0
 17 30  1  0  0  0  0
 17 31  2  0  0  0  0
 18 20  1  0  0  0  0
 18 29  1  0  0  0  0
 19 21  1  0  0  0  0
 19 29  1  0  0  0  0
 20 32  1  0  0  0  0
 21 32  1  0  0  0  0
 22 27  1  0  0  0  0
 23 30  1  0  0  0  0
 24 28  1  0  0  0  0
 25 27  1  0  0  0  0
  1 33  1  0  0  0  0
  2 34  1  0  0  0  0
  3 35  1  0  0  0  0
  4 36  1  0  0  0  0
  5 37  1  0  0  0  0
  6 38  1  0  0  0  0
  7 39  1  0  0  0  0
  8 40  1  0  0  0  0
  9 41  1  0  0  0  0
 10 42  1  0  0  0  0
 11 43  1  0  0  0  0
 18 44  1  0  0  0  0
 18 45  1  0  0  0  0
 19 46  1  0  0  0  0
 19 47  1  0  0  0  0
 20 48  1  0  0  0  0
 20 49  1  0  0  0  0
 21 50  1  0  0  0  0
 21 51  1  0  0  0  0
 22 52  1  0  0  0  0
 22 53  1  0  0  0  0
 22 54  1  0  0  0  0
 23 55  1  0  0  0  0
 23 56  1  0  0  0  0
 24 57  1  0  0  0  0
 24 58  1  0  0  0  0
M  END
> <clash_score>
0.6199426913845782

> <docking_score>
-9.397370338439941

> <overlap_score>
0.9891136884689331

$$$$
BENZO_390_1
  -OEChem-08222022203D

 58 62  0     0  0  0  0  0  0999 V2000
    3.9160    2.0630   19.5520 C   0  0  0  0  0  0  0  0  0  0  0  0
    4.2750    1.7050   20.8490 C   0  0  0  0  0  0  0  0  0  0  0  0
   13.4007    0.5725   24.7805 C   0  0  0  0  0  0  0  0  0  0  0  0
   12.0141    0.5273   24.6359 C   0  0  0  0  0  0  0  0  0  0  0  0
    4.6890    1.6810   18.4640 C   0  0  0  0  0  0  0  0  0  0  0  0
    5.4210    0.9600   21.0930 C   0  0  0  0  0  0  0  0  0  0  0  0
    8.9960   -2.3380   25.5320 C   0  0  0  0  0  0  0  0  0  0  0  0
    9.6730   -3.4710   23.5300 C   0  0  0  0  0  0  0  0  0  0  0  0
    9.0720   -1.1280   24.8640 C   0  0  0  0  0  0  0  0  0  0  0  0
    9.7200   -2.2600   22.8630 C   0  0  0  0  0  0  0  0  0  0  0  0
   14.1526    1.4666   24.0184 C   0  0  0  0  0  0  0  0  0  0  0  0
   12.1314    2.2702   22.9668 C   0  0  0  0  0  0  0  0  0  0  0  0
    7.6390   -0.2680   18.5410 C   0  0  0  0  0  0  0  0  0  0  0  0
   11.3794    1.3761   23.7290 C   0  0  0  0  0  0  0  0  0  0  0  0
    5.8300    0.9190   18.6970 C   0  0  0  0  0  0  0  0  0  0  0  0
    6.1790    0.5730   19.9990 C   0  0  0  0  0  0  0  0  0  0  0  0
    9.3070   -3.5340   24.8780 C   0  0  0  0  0  0  0  0  0  0  0  0
    9.3350   -1.0880   23.5010 C   0  0  0  0  0  0  0  0  0  0  0  0
   13.5180    2.3154   23.1115 C   0  0  0  0  0  0  0  0  0  0  0  0
    9.0420    0.3700   21.5280 C   0  0  0  0  0  0  0  0  0  0  0  0
   10.0771   -5.0255   26.7193 C   0  0  0  0  0  0  0  0  0  0  0  0
    8.0927   -5.6195   25.4071 C   0  0  0  0  0  0  0  0  0  0  0  0
    9.1933   -4.9427   27.9592 C   0  0  0  0  0  0  0  0  0  0  0  0
    7.2756   -5.5290   26.6967 C   0  0  0  0  0  0  0  0  0  0  0  0
    9.8870    1.3260   23.5730 C   0  0  0  0  0  0  0  0  0  0  0  0
    8.1890   -0.7180   20.8700 C   0  0  0  0  0  0  0  0  0  0  0  0
    6.7580    0.3810   17.8350 N   0  0  0  0  0  0  0  0  0  0  0  0
    7.3170   -0.1610   19.8550 N   0  0  0  0  0  0  0  0  0  0  0  0
    9.2563   -4.7368   25.5413 N   0  0  0  0  0  0  0  0  0  0  0  0
    9.4560    0.1560   22.8130 N   0  0  0  0  0  0  0  0  0  0  0  0
    9.2690    1.4140   20.9380 O   0  0  0  0  0  0  0  0  0  0  0  0
    8.0883   -5.8459   27.8325 O   0  0  0  0  0  0  0  0  0  0  0  0
   14.4463    3.4175   22.1707 Cl  0  0  0  0  0  0  0  0  0  0  0  0
    3.0133    2.6526   19.3911 H   0  0  0  0  0  0  0  0  0  0  0  0
    3.6478    2.0143   21.6818 H   0  0  0  0  0  0  0  0  0  0  0  0
   13.8945   -0.0888   25.4867 H   0  0  0  0  0  0  0  0  0  0  0  0
   11.4361   -0.1726   25.2338 H   0  0  0  0  0  0  0  0  0  0  0  0
    4.4036    1.9735   17.4543 H   0  0  0  0  0  0  0  0  0  0  0  0
    5.7089    0.6922   22.1131 H   0  0  0  0  0  0  0  0  0  0  0  0
    8.6905   -2.3533   26.5810 H   0  0  0  0  0  0  0  0  0  0  0  0
    9.9266   -4.3896   22.9917 H   0  0  0  0  0  0  0  0  0  0  0  0
    8.9233   -0.1992   25.4232 H   0  0  0  0  0  0  0  0  0  0  0  0
   10.0650   -2.2330   21.8256 H   0  0  0  0  0  0  0  0  0  0  0  0
   15.2326    1.4907   24.1414 H   0  0  0  0  0  0  0  0  0  0  0  0
   11.6317    2.9303   22.2615 H   0  0  0  0  0  0  0  0  0  0  0  0
    8.4865   -0.8061   18.1803 H   0  0  0  0  0  0  0  0  0  0  0  0
   10.8985   -4.3115   26.8085 H   0  0  0  0  0  0  0  0  0  0  0  0
   10.4915   -6.0334   26.6323 H   0  0  0  0  0  0  0  0  0  0  0  0
    8.4327   -6.6456   25.2620 H   0  0  0  0  0  0  0  0  0  0  0  0
    7.4725   -5.3241   24.5619 H   0  0  0  0  0  0  0  0  0  0  0  0
    9.7636   -5.2398   28.8419 H   0  0  0  0  0  0  0  0  0  0  0  0
    8.8236   -3.9268   28.1248 H   0  0  0  0  0  0  0  0  0  0  0  0
    6.8339   -4.5337   26.8232 H   0  0  0  0  0  0  0  0  0  0  0  0
    6.4550   -6.2521   26.6643 H   0  0  0  0  0  0  0  0  0  0  0  0
    9.3974    1.2912   24.5523 H   0  0  0  0  0  0  0  0  0  0  0  0
    9.5159    2.2168   23.0554 H   0  0  0  0  0  0  0  0  0  0  0  0
    8.8326   -1.4554   20.3912 H   0  0  0  0  0  0  0  0  0  0  0  0
    7.5604   -1.1971   21.6201 H   0  0  0  0  0  0  0  0  0  0  0  0
  1  2  1  0  0  0  0
  1  5  2  0  0  0  0
  2  6  2  0  0  0  0
  3  4  2  0  0  0  0
  3 11  1  0  0  0  0
  4 14  1  0  0  0  0
  5 15  1  0  0  0  0
  6 16  1  0  0  0  0
  7  9  2  0  0  0  0
  7 17  1  0  0  0  0
  8 10  1  0  0  0  0
  8 17  2  0  0  0  0
  9 18  1  0  0  0  0
 10 18  2  0  0  0  0
 11 19  2  0  0  0  0
 12 14  2  0  0  0  0
 12 19  1  0  0  0  0
 13 27  2  0  0  0  0
 13 28  1  0  0  0  0
 14 25  1  0  0  0  0
 15 16  2  0  0  0  0
 15 27  1  0  0  0  0
 16 28  1  0  0  0  0
 17 29  1  0  0  0  0
 18 30  1  0  0  0  0
 19 33  1  0  0  0  0
 20 26  1  0  0  0  0
 20 30  1  0  0  0  0
 20 31  2  0  0  0  0
 21 23  1  0  0  0  0
 21 29  1  0  0  0  0
 22 24  1  0  0  0  0
 22 29  1  0  0  0  0
 23 32  1  0  0  0  0
 24 32  1  0  0  0  0
 25 30  1  0  0  0  0
 26 28  1  0  0  0  0
  1 34  1  0  0  0  0
  2 35  1  0  0  0  0
  3 36  1  0  0  0  0
  4 37  1  0  0  0  0
  5 38  1  0  0  0  0
  6 39  1  0  0  0  0
  7 40  1  0  0  0  0
  8 41  1  0  0  0  0
  9 42  1  0  0  0  0
 10 43  1  0  0  0  0
 11 44  1  0  0  0  0
 12 45  1  0  0  0  0
 13 46  1  0  0  0  0
 21 47  1  0  0  0  0
 21 48  1  0  0  0  0
 22 49  1  0  0  0  0
 22 50  1  0  0  0  0
 23 51  1  0  0  0  0
 23 52  1  0  0  0  0
 24 53  1  0  0  0  0
 24 54  1  0  0  0  0
 25 55  1  0  0  0  0
 25 56  1  0  0  0  0
 26 57  1  0  0  0  0
 26 58  1  0  0  0  0
M  END
> <clash_score>
0

> <docking_score>
-8.826349258422852

> <overlap_score>
1.001426100730896

$$$$
BENZO_393_1
  -OEChem-08222022203D

 53 56  0     0  0  0  0  0  0999 V2000
   14.1526    1.4694   24.0176 C   0  0  0  0  0  0  0  0  0  0  0  0
    4.2750    1.7050   20.8490 C   0  0  0  0  0  0  0  0  0  0  0  0
   13.3741    0.8121   24.9701 C   0  0  0  0  0  0  0  0  0  0  0  0
   13.5446    2.0802   22.9208 C   0  0  0  0  0  0  0  0  0  0  0  0
    3.9160    2.0630   19.5520 C   0  0  0  0  0  0  0  0  0  0  0  0
    5.4210    0.9600   21.0930 C   0  0  0  0  0  0  0  0  0  0  0  0
   11.9875    0.7654   24.8258 C   0  0  0  0  0  0  0  0  0  0  0  0
   12.1580    2.0335   22.7765 C   0  0  0  0  0  0  0  0  0  0  0  0
    4.6890    1.6810   18.4640 C   0  0  0  0  0  0  0  0  0  0  0  0
    9.0720   -1.1280   24.8640 C   0  0  0  0  0  0  0  0  0  0  0  0
    9.7200   -2.2600   22.8630 C   0  0  0  0  0  0  0  0  0  0  0  0
    8.9960   -2.3380   25.5320 C   0  0  0  0  0  0  0  0  0  0  0  0
    9.6730   -3.4710   23.5300 C   0  0  0  0  0  0  0  0  0  0  0  0
    6.1790    0.5730   19.9990 C   0  0  0  0  0  0  0  0  0  0  0  0
   11.3794    1.3761   23.7290 C   0  0  0  0  0  0  0  0  0  0  0  0
    5.8300    0.9190   18.6970 C   0  0  0  0  0  0  0  0  0  0  0  0
    9.3350   -1.0880   23.5010 C   0  0  0  0  0  0  0  0  0  0  0  0
    9.3070   -3.5340   24.8780 C   0  0  0  0  0  0  0  0  0  0  0  0
    7.3170   -0.1610   19.8550 C   0  0  0  0  0  0  0  0  0  0  0  0
    9.0420    0.3700   21.5280 C   0  0  0  0  0  0  0  0  0  0  0  0
    8.0128   -5.2151   26.1416 C   0  0  0  0  0  0  0  0  0  0  0  0
   10.4372   -5.5860   25.6589 C   0  0  0  0  0  0  0  0  0  0  0  0
    9.8870    1.3260   23.5730 C   0  0  0  0  0  0  0  0  0  0  0  0
    8.1890   -0.7180   20.8700 C   0  0  0  0  0  0  0  0  0  0  0  0
    6.7580    0.3810   17.8350 N   0  0  0  0  0  0  0  0  0  0  0  0
    7.6390   -0.2680   18.5410 N   0  0  0  0  0  0  0  0  0  0  0  0
    9.4560    0.1560   22.8130 N   0  0  0  0  0  0  0  0  0  0  0  0
    9.2543   -4.7552   25.5519 N   0  0  0  0  0  0  0  0  0  0  0  0
    9.2690    1.4140   20.9380 O   0  0  0  0  0  0  0  0  0  0  0  0
   15.2322    1.5068   24.1308 H   0  0  0  0  0  0  0  0  0  0  0  0
    3.6562    2.0083   21.6780 H   0  0  0  0  0  0  0  0  0  0  0  0
   13.8473    0.3374   25.8248 H   0  0  0  0  0  0  0  0  0  0  0  0
   14.1503    2.5930   22.1795 H   0  0  0  0  0  0  0  0  0  0  0  0
    3.0225    2.6465   19.3867 H   0  0  0  0  0  0  0  0  0  0  0  0
    5.7084    0.6884   22.1515 H   0  0  0  0  0  0  0  0  0  0  0  0
   11.3889    0.2508   25.5729 H   0  0  0  0  0  0  0  0  0  0  0  0
   11.6930    2.5120   21.9187 H   0  0  0  0  0  0  0  0  0  0  0  0
    4.3943    1.9831   17.4240 H   0  0  0  0  0  0  0  0  0  0  0  0
    8.9217   -0.1995   25.4232 H   0  0  0  0  0  0  0  0  0  0  0  0
   10.0643   -2.2341   21.8254 H   0  0  0  0  0  0  0  0  0  0  0  0
    8.6893   -2.3540   26.5808 H   0  0  0  0  0  0  0  0  0  0  0  0
    9.9257   -4.3898   22.9921 H   0  0  0  0  0  0  0  0  0  0  0  0
    8.1744   -6.1904   26.6238 H   0  0  0  0  0  0  0  0  0  0  0  0
    7.6718   -4.4870   26.8924 H   0  0  0  0  0  0  0  0  0  0  0  0
    7.2494   -5.3166   25.3561 H   0  0  0  0  0  0  0  0  0  0  0  0
   10.1946   -6.4996   26.2216 H   0  0  0  0  0  0  0  0  0  0  0  0
   10.7865   -5.8578   24.6518 H   0  0  0  0  0  0  0  0  0  0  0  0
   11.2285   -5.0312   26.1842 H   0  0  0  0  0  0  0  0  0  0  0  0
    9.3974    1.2912   24.5523 H   0  0  0  0  0  0  0  0  0  0  0  0
    9.5159    2.2168   23.0553 H   0  0  0  0  0  0  0  0  0  0  0  0
    7.6090   -1.2088   21.6628 H   0  0  0  0  0  0  0  0  0  0  0  0
    8.8730   -1.4654   20.4463 H   0  0  0  0  0  0  0  0  0  0  0  0
    8.3933   -0.7388   18.1198 H   0  0  0  0  0  0  0  0  0  0  0  0
  1  3  1  0  0  0  0
  1  4  2  0  0  0  0
  2  5  1  0  0  0  0
  2  6  2  0  0  0  0
  3  7  2  0  0  0  0
  4  8  1  0  0  0  0
  5  9  2  0  0  0  0
  6 14  1  0  0  0  0
  7 15  1  0  0  0  0
  8 15  2  0  0  0  0
  9 16  1  0  0  0  0
 10 12  2  0  0  0  0
 10 17  1  0  0  0  0
 11 13  1  0  0  0  0
 11 17  2  0  0  0  0
 12 18  1  0  0  0  0
 13 18  2  0  0  0  0
 14 16  1  0  0  0  0
 14 19  2  0  0  0  0
 15 23  1  0  0  0  0
 16 25  2  0  0  0  0
 17 27  1  0  0  0  0
 18 28  1  0  0  0  0
 19 24  1  0  0  0  0
 19 26  1  0  0  0  0
 20 24  1  0  0  0  0
 20 27  1  0  0  0  0
 20 29  2  0  0  0  0
 21 28  1  0  0  0  0
 22 28  1  0  0  0  0
 23 27  1  0  0  0  0
 25 26  1  0  0  0  0
  1 30  1  0  0  0  0
  2 31  1  0  0  0  0
  3 32  1  0  0  0  0
  4 33  1  0  0  0  0
  5 34  1  0  0  0  0
  6 35  1  0  0  0  0
  7 36  1  0  0  0  0
  8 37  1  0  0  0  0
  9 38  1  0  0  0  0
 10 39  1  0  0  0  0
 11 40  1  0  0  0  0
 12 41  1  0  0  0  0
 13 42  1  0  0  0  0
 21 43  1  0  0  0  0
 21 44  1  0  0  0  0
 21 45  1  0  0  0  0
 22 46  1  0  0  0  0
 22 47  1  0  0  0  0
 22 48  1  0  0  0  0
 23 49  1  0  0  0  0
 23 50  1  0  0  0  0
 24 51  1  0  0  0  0
 24 52  1  0  0  0  0
 26 53  1  0  0  0  0
M  END
> <clash_score>
0

> <docking_score>
-9.68692684173584

> <overlap_score>
0.9780115485191345

$$$$
BENZO_392_1
  -OEChem-08222022203D

 50 53  0     0  0  0  0  0  0999 V2000
    4.2750    1.7050   20.8490 C   0  0  0  0  0  0  0  0  0  0  0  0
    3.9160    2.0630   19.5520 C   0  0  0  0  0  0  0  0  0  0  0  0
    5.4210    0.9600   21.0930 C   0  0  0  0  0  0  0  0  0  0  0  0
    4.6890    1.6810   18.4640 C   0  0  0  0  0  0  0  0  0  0  0  0
    9.0720   -1.1280   24.8640 C   0  0  0  0  0  0  0  0  0  0  0  0
    9.7200   -2.2600   22.8630 C   0  0  0  0  0  0  0  0  0  0  0  0
    8.9960   -2.3380   25.5320 C   0  0  0  0  0  0  0  0  0  0  0  0
    9.6730   -3.4710   23.5300 C   0  0  0  0  0  0  0  0  0  0  0  0
   12.2913    1.4279   22.6355 C   0  0  0  0  0  0  0  0  0  0  0  0
   13.6024    1.4662   23.0564 C   0  0  0  0  0  0  0  0  0  0  0  0
   12.0284    1.3764   24.9443 C   0  0  0  0  0  0  0  0  0  0  0  0
    6.1790    0.5730   19.9990 C   0  0  0  0  0  0  0  0  0  0  0  0
   11.3794    1.3761   23.7290 C   0  0  0  0  0  0  0  0  0  0  0  0
    5.8300    0.9190   18.6970 C   0  0  0  0  0  0  0  0  0  0  0  0
    9.3350   -1.0880   23.5010 C   0  0  0  0  0  0  0  0  0  0  0  0
    9.3070   -3.5340   24.8780 C   0  0  0  0  0  0  0  0  0  0  0  0
    7.3170   -0.1610   19.8550 C   0  0  0  0  0  0  0  0  0  0  0  0
    9.0420    0.3700   21.5280 C   0  0  0  0  0  0  0  0  0  0  0  0
    8.8742   -4.8064   26.9496 C   0  0  0  0  0  0  0  0  0  0  0  0
    9.5655   -5.9897   24.8591 C   0  0  0  0  0  0  0  0  0  0  0  0
    9.8870    1.3260   23.5730 C   0  0  0  0  0  0  0  0  0  0  0  0
    8.1890   -0.7180   20.8700 C   0  0  0  0  0  0  0  0  0  0  0  0
    6.7580    0.3810   17.8350 N   0  0  0  0  0  0  0  0  0  0  0  0
    7.6390   -0.2680   18.5410 N   0  0  0  0  0  0  0  0  0  0  0  0
    9.4560    0.1560   22.8130 N   0  0  0  0  0  0  0  0  0  0  0  0
    9.2543   -4.7552   25.5519 N   0  0  0  0  0  0  0  0  0  0  0  0
    9.2690    1.4140   20.9380 O   0  0  0  0  0  0  0  0  0  0  0  0
   13.7301    1.4394   24.7638 S   0  0  0  0  0  0  0  0  0  0  0  0
    3.6562    2.0083   21.6780 H   0  0  0  0  0  0  0  0  0  0  0  0
    3.0225    2.6465   19.3867 H   0  0  0  0  0  0  0  0  0  0  0  0
    5.7084    0.6884   22.1515 H   0  0  0  0  0  0  0  0  0  0  0  0
    4.3943    1.9831   17.4240 H   0  0  0  0  0  0  0  0  0  0  0  0
    8.9217   -0.1995   25.4232 H   0  0  0  0  0  0  0  0  0  0  0  0
   10.0643   -2.2341   21.8254 H   0  0  0  0  0  0  0  0  0  0  0  0
    8.6893   -2.3540   26.5808 H   0  0  0  0  0  0  0  0  0  0  0  0
    9.9257   -4.3898   22.9921 H   0  0  0  0  0  0  0  0  0  0  0  0
   12.0045    1.4365   21.5915 H   0  0  0  0  0  0  0  0  0  0  0  0
   14.4914    1.5078   22.4431 H   0  0  0  0  0  0  0  0  0  0  0  0
   11.5886    1.3416   25.9314 H   0  0  0  0  0  0  0  0  0  0  0  0
    8.8922   -5.8499   27.2971 H   0  0  0  0  0  0  0  0  0  0  0  0
    9.5819   -4.2099   27.5440 H   0  0  0  0  0  0  0  0  0  0  0  0
    7.8599   -4.3978   27.0688 H   0  0  0  0  0  0  0  0  0  0  0  0
    9.4682   -6.8360   25.5551 H   0  0  0  0  0  0  0  0  0  0  0  0
    8.8685   -6.1243   24.0189 H   0  0  0  0  0  0  0  0  0  0  0  0
   10.5961   -5.9459   24.4772 H   0  0  0  0  0  0  0  0  0  0  0  0
    9.3974    1.2912   24.5523 H   0  0  0  0  0  0  0  0  0  0  0  0
    9.5159    2.2168   23.0553 H   0  0  0  0  0  0  0  0  0  0  0  0
    7.6090   -1.2088   21.6628 H   0  0  0  0  0  0  0  0  0  0  0  0
    8.8730   -1.4654   20.4463 H   0  0  0  0  0  0  0  0  0  0  0  0
    8.3933   -0.7388   18.1198 H   0  0  0  0  0  0  0  0  0  0  0  0
  1  2  1  0  0  0  0
  1  3  2  0  0  0  0
  2  4  2  0  0  0  0
  3 12  1  0  0  0  0
  4 14  1  0  0  0  0
  5  7  2  0  0  0  0
  5 15  1  0  0  0  0
  6  8  1  0  0  0  0
  6 15  2  0  0  0  0
  7 16  1  0  0  0  0
  8 16  2  0  0  0  0
  9 10  2  0  0  0  0
  9 13  1  0  0  0  0
 10 28  1  0  0  0  0
 11 13  2  0  0  0  0
 11 28  1  0  0  0  0
 12 14  1  0  0  0  0
 12 17  2  0  0  0  0
 13 21  1  0  0  0  0
 14 23  2  0  0  0  0
 15 25  1  0  0  0  0
 16 26  1  0  0  0  0
 17 22  1  0  0  0  0
 17 24  1  0  0  0  0
 18 22  1  0  0  0  0
 18 25  1  0  0  0  0
 18 27  2  0  0  0  0
 19 26  1  0  0  0  0
 20 26  1  0  0  0  0
 21 25  1  0  0  0  0
 23 24  1  0  0  0  0
  1 29  1  0  0  0  0
  2 30  1  0  0  0  0
  3 31  1  0  0  0  0
  4 32  1  0  0  0  0
  5 33  1  0  0  0  0
  6 34  1  0  0  0  0
  7 35  1  0  0  0  0
  8 36  1  0  0  0  0
  9 37  1  0  0  0  0
 10 38  1  0  0  0  0
 11 39  1  0  0  0  0
 19 40  1  0  0  0  0
 19 41  1  0  0  0  0
 19 42  1  0  0  0  0
 20 43  1  0  0  0  0
 20 44  1  0  0  0  0
 20 45  1  0  0  0  0
 21 46  1  0  0  0  0
 21 47  1  0  0  0  0
 22 48  1  0  0  0  0
 22 49  1  0  0  0  0
 24 50  1  0  0  0  0
M  END
> <clash_score>
0

> <docking_score>
-9.443909645080566

> <overlap_score>
0.9639393091201782

$$$$
BENZO_395_1
  -OEChem-08222022203D

 53 56  0     0  0  0  0  0  0999 V2000
    4.2750    1.7050   20.8490 C   0  0  0  0  0  0  0  0  0  0  0  0
    3.9160    2.0630   19.5520 C   0  0  0  0  0  0  0  0  0  0  0  0
    5.4210    0.9600   21.0930 C   0  0  0  0  0  0  0  0  0  0  0  0
    4.6890    1.6810   18.4640 C   0  0  0  0  0  0  0  0  0  0  0  0
    9.0720   -1.1280   24.8640 C   0  0  0  0  0  0  0  0  0  0  0  0
    9.7200   -2.2600   22.8630 C   0  0  0  0  0  0  0  0  0  0  0  0
    8.9960   -2.3380   25.5320 C   0  0  0  0  0  0  0  0  0  0  0  0
    9.6730   -3.4710   23.5300 C   0  0  0  0  0  0  0  0  0  0  0  0
   12.2914    2.2071   23.0512 C   0  0  0  0  0  0  0  0  0  0  0  0
   12.1614    0.6214   24.5689 C   0  0  0  0  0  0  0  0  0  0  0  0
    6.1790    0.5730   19.9990 C   0  0  0  0  0  0  0  0  0  0  0  0
   11.3794    1.3761   23.7290 C   0  0  0  0  0  0  0  0  0  0  0  0
    5.8300    0.9190   18.6970 C   0  0  0  0  0  0  0  0  0  0  0  0
    9.3350   -1.0880   23.5010 C   0  0  0  0  0  0  0  0  0  0  0  0
    9.3070   -3.5340   24.8780 C   0  0  0  0  0  0  0  0  0  0  0  0
    7.3170   -0.1610   19.8550 C   0  0  0  0  0  0  0  0  0  0  0  0
    9.0420    0.3700   21.5280 C   0  0  0  0  0  0  0  0  0  0  0  0
   14.6267    0.5248   25.0067 C   0  0  0  0  0  0  0  0  0  0  0  0
    8.0128   -5.2151   26.1416 C   0  0  0  0  0  0  0  0  0  0  0  0
   10.4372   -5.5860   25.6589 C   0  0  0  0  0  0  0  0  0  0  0  0
    9.8870    1.3260   23.5730 C   0  0  0  0  0  0  0  0  0  0  0  0
    8.1890   -0.7180   20.8700 C   0  0  0  0  0  0  0  0  0  0  0  0
   13.5560    2.0002   23.4280 N   0  0  0  0  0  0  0  0  0  0  0  0
    6.7580    0.3810   17.8350 N   0  0  0  0  0  0  0  0  0  0  0  0
    7.6390   -0.2680   18.5410 N   0  0  0  0  0  0  0  0  0  0  0  0
   13.4442    1.0306   24.3518 N   0  0  0  0  0  0  0  0  0  0  0  0
    9.4560    0.1560   22.8130 N   0  0  0  0  0  0  0  0  0  0  0  0
    9.2543   -4.7552   25.5519 N   0  0  0  0  0  0  0  0  0  0  0  0
    9.2690    1.4140   20.9380 O   0  0  0  0  0  0  0  0  0  0  0  0
    3.6562    2.0083   21.6780 H   0  0  0  0  0  0  0  0  0  0  0  0
    3.0225    2.6465   19.3867 H   0  0  0  0  0  0  0  0  0  0  0  0
    5.7084    0.6884   22.1515 H   0  0  0  0  0  0  0  0  0  0  0  0
    4.3943    1.9831   17.4240 H   0  0  0  0  0  0  0  0  0  0  0  0
    8.9217   -0.1995   25.4232 H   0  0  0  0  0  0  0  0  0  0  0  0
   10.0643   -2.2341   21.8254 H   0  0  0  0  0  0  0  0  0  0  0  0
    8.6893   -2.3540   26.5808 H   0  0  0  0  0  0  0  0  0  0  0  0
    9.9257   -4.3898   22.9921 H   0  0  0  0  0  0  0  0  0  0  0  0
   12.0895    2.9562   22.2987 H   0  0  0  0  0  0  0  0  0  0  0  0
   11.9201   -0.1518   25.2857 H   0  0  0  0  0  0  0  0  0  0  0  0
   15.0068   -0.3132   24.4165 H   0  0  0  0  0  0  0  0  0  0  0  0
   15.3758    1.3189   25.0699 H   0  0  0  0  0  0  0  0  0  0  0  0
   14.3675    0.1958   26.0170 H   0  0  0  0  0  0  0  0  0  0  0  0
    8.1744   -6.1904   26.6238 H   0  0  0  0  0  0  0  0  0  0  0  0
    7.6718   -4.4870   26.8924 H   0  0  0  0  0  0  0  0  0  0  0  0
    7.2494   -5.3166   25.3561 H   0  0  0  0  0  0  0  0  0  0  0  0
   10.1946   -6.4996   26.2216 H   0  0  0  0  0  0  0  0  0  0  0  0
   10.7865   -5.8578   24.6518 H   0  0  0  0  0  0  0  0  0  0  0  0
   11.2285   -5.0312   26.1842 H   0  0  0  0  0  0  0  0  0  0  0  0
    9.3974    1.2912   24.5523 H   0  0  0  0  0  0  0  0  0  0  0  0
    9.5159    2.2168   23.0553 H   0  0  0  0  0  0  0  0  0  0  0  0
    7.6090   -1.2088   21.6628 H   0  0  0  0  0  0  0  0  0  0  0  0
    8.8730   -1.4654   20.4463 H   0  0  0  0  0  0  0  0  0  0  0  0
    8.3933   -0.7388   18.1198 H   0  0  0  0  0  0  0  0  0  0  0  0
  1  2  1  0  0  0  0
  1  3  2  0  0  0  0
  2  4  2  0  0  0  0
  3 11  1  0  0  0  0
  4 13  1  0  0  0  0
  5  7  2  0  0  0  0
  5 14  1  0  0  0  0
  6  8  1  0  0  0  0
  6 14  2  0  0  0  0
  7 15  1  0  0  0  0
  8 15  2  0  0  0  0
  9 12  1  0  0  0  0
  9 23  2  0  0  0  0
 10 12  2  0  0  0  0
 10 26  1  0  0  0  0
 11 13  1  0  0  0  0
 11 16  2  0  0  0  0
 12 21  1  0  0  0  0
 13 24  2  0  0  0  0
 14 27  1  0  0  0  0
 15 28  1  0  0  0  0
 16 22  1  0  0  0  0
 16 25  1  0  0  0  0
 17 22  1  0  0  0  0
 17 27  1  0  0  0  0
 17 29  2  0  0  0  0
 18 26  1  0  0  0  0
 19 28  1  0  0  0  0
 20 28  1  0  0  0  0
 21 27  1  0  0  0  0
 23 26  1  0  0  0  0
 24 25  1  0  0  0  0
  1 30  1  0  0  0  0
  2 31  1  0  0  0  0
  3 32  1  0  0  0  0
  4 33  1  0  0  0  0
  5 34  1  0  0  0  0
  6 35  1  0  0  0  0
  7 36  1  0  0  0  0
  8 37  1  0  0  0  0
  9 38  1  0  0  0  0
 10 39  1  0  0  0  0
 18 40  1  0  0  0  0
 18 41  1  0  0  0  0
 18 42  1  0  0  0  0
 19 43  1  0  0  0  0
 19 44  1  0  0  0  0
 19 45  1  0  0  0  0
 20 46  1  0  0  0  0
 20 47  1  0  0  0  0
 20 48  1  0  0  0  0
 21 49  1  0  0  0  0
 21 50  1  0  0  0  0
 22 51  1  0  0  0  0
 22 52  1  0  0  0  0
 25 53  1  0  0  0  0
M  END
> <clash_score>
0.6199418140755908

> <docking_score>
-9.37007999420166

> <overlap_score>
0.976789653301239

$$$$
BENZO_394_1
  -OEChem-08222022203D

 53 56  0     0  0  0  0  0  0999 V2000
    4.2750    1.7050   20.8490 C   0  0  0  0  0  0  0  0  0  0  0  0
    3.9160    2.0630   19.5520 C   0  0  0  0  0  0  0  0  0  0  0  0
   13.4007    0.5725   24.7805 C   0  0  0  0  0  0  0  0  0  0  0  0
    5.4210    0.9600   21.0930 C   0  0  0  0  0  0  0  0  0  0  0  0
   12.0141    0.5273   24.6359 C   0  0  0  0  0  0  0  0  0  0  0  0
    4.6890    1.6810   18.4640 C   0  0  0  0  0  0  0  0  0  0  0  0
    9.0720   -1.1280   24.8640 C   0  0  0  0  0  0  0  0  0  0  0  0
    9.7200   -2.2600   22.8630 C   0  0  0  0  0  0  0  0  0  0  0  0
    8.9960   -2.3380   25.5320 C   0  0  0  0  0  0  0  0  0  0  0  0
    9.6730   -3.4710   23.5300 C   0  0  0  0  0  0  0  0  0  0  0  0
   14.1526    1.4666   24.0184 C   0  0  0  0  0  0  0  0  0  0  0  0
   12.1314    2.2702   22.9668 C   0  0  0  0  0  0  0  0  0  0  0  0
    6.1790    0.5730   19.9990 C   0  0  0  0  0  0  0  0  0  0  0  0
   11.3794    1.3761   23.7290 C   0  0  0  0  0  0  0  0  0  0  0  0
    5.8300    0.9190   18.6970 C   0  0  0  0  0  0  0  0  0  0  0  0
    9.3350   -1.0880   23.5010 C   0  0  0  0  0  0  0  0  0  0  0  0
    9.3070   -3.5340   24.8780 C   0  0  0  0  0  0  0  0  0  0  0  0
   13.5180    2.3154   23.1115 C   0  0  0  0  0  0  0  0  0  0  0  0
    7.3170   -0.1610   19.8550 C   0  0  0  0  0  0  0  0  0  0  0  0
    9.0420    0.3700   21.5280 C   0  0  0  0  0  0  0  0  0  0  0  0
    8.0128   -5.2151   26.1416 C   0  0  0  0  0  0  0  0  0  0  0  0
   10.4372   -5.5860   25.6589 C   0  0  0  0  0  0  0  0  0  0  0  0
    9.8870    1.3260   23.5730 C   0  0  0  0  0  0  0  0  0  0  0  0
    8.1890   -0.7180   20.8700 C   0  0  0  0  0  0  0  0  0  0  0  0
    6.7580    0.3810   17.8350 N   0  0  0  0  0  0  0  0  0  0  0  0
    7.6390   -0.2680   18.5410 N   0  0  0  0  0  0  0  0  0  0  0  0
    9.4560    0.1560   22.8130 N   0  0  0  0  0  0  0  0  0  0  0  0
    9.2543   -4.7552   25.5519 N   0  0  0  0  0  0  0  0  0  0  0  0
    9.2690    1.4140   20.9380 O   0  0  0  0  0  0  0  0  0  0  0  0
   14.4463    3.4175   22.1707 Cl  0  0  0  0  0  0  0  0  0  0  0  0
    3.6562    2.0083   21.6780 H   0  0  0  0  0  0  0  0  0  0  0  0
    3.0225    2.6465   19.3867 H   0  0  0  0  0  0  0  0  0  0  0  0
   13.8945   -0.0888   25.4867 H   0  0  0  0  0  0  0  0  0  0  0  0
    5.7084    0.6884   22.1515 H   0  0  0  0  0  0  0  0  0  0  0  0
   11.4361   -0.1726   25.2338 H   0  0  0  0  0  0  0  0  0  0  0  0
    4.3943    1.9831   17.4240 H   0  0  0  0  0  0  0  0  0  0  0  0
    8.9217   -0.1995   25.4232 H   0  0  0  0  0  0  0  0  0  0  0  0
   10.0643   -2.2341   21.8254 H   0  0  0  0  0  0  0  0  0  0  0  0
    8.6893   -2.3540   26.5808 H   0  0  0  0  0  0  0  0  0  0  0  0
    9.9257   -4.3898   22.9921 H   0  0  0  0  0  0  0  0  0  0  0  0
   15.2326    1.4907   24.1414 H   0  0  0  0  0  0  0  0  0  0  0  0
   11.6317    2.9303   22.2615 H   0  0  0  0  0  0  0  0  0  0  0  0
    8.1744   -6.1904   26.6238 H   0  0  0  0  0  0  0  0  0  0  0  0
    7.6718   -4.4870   26.8924 H   0  0  0  0  0  0  0  0  0  0  0  0
    7.2494   -5.3166   25.3561 H   0  0  0  0  0  0  0  0  0  0  0  0
   10.1946   -6.4996   26.2216 H   0  0  0  0  0  0  0  0  0  0  0  0
   10.7865   -5.8578   24.6518 H   0  0  0  0  0  0  0  0  0  0  0  0
   11.2285   -5.0312   26.1842 H   0  0  0  0  0  0  0  0  0  0  0  0
    9.3974    1.2912   24.5523 H   0  0  0  0  0  0  0  0  0  0  0  0
    9.5159    2.2168   23.0553 H   0  0  0  0  0  0  0  0  0  0  0  0
    7.6090   -1.2088   21.6628 H   0  0  0  0  0  0  0  0  0  0  0  0
    8.8730   -1.4654   20.4463 H   0  0  0  0  0  0  0  0  0  0  0  0
    8.3933   -0.7388   18.1198 H   0  0  0  0  0  0  0  0  0  0  0  0
  1  2  1  0  0  0  0
  1  4  2  0  0  0  0
  2  6  2  0  0  0  0
  3  5  2  0  0  0  0
  3 11  1  0  0  0  0
  4 13  1  0  0  0  0
  5 14  1  0  0  0  0
  6 15  1  0  0  0  0
  7  9  2  0  0  0  0
  7 16  1  0  0  0  0
  8 10  1  0  0  0  0
  8 16  2  0  0  0  0
  9 17  1  0  0  0  0
 10 17  2  0  0  0  0
 11 18  2  0  0  0  0
 12 14  2  0  0  0  0
 12 18  1  0  0  0  0
 13 15  1  0  0  0  0
 13 19  2  0  0  0  0
 14 23  1  0  0  0  0
 15 25  2  0  0  0  0
 16 27  1  0  0  0  0
 17 28  1  0  0  0  0
 18 30  1  0  0  0  0
 19 24  1  0  0  0  0
 19 26  1  0  0  0  0
 20 24  1  0  0  0  0
 20 27  1  0  0  0  0
 20 29  2  0  0  0  0
 21 28  1  0  0  0  0
 22 28  1  0  0  0  0
 23 27  1  0  0  0  0
 25 26  1  0  0  0  0
  1 31  1  0  0  0  0
  2 32  1  0  0  0  0
  3 33  1  0  0  0  0
  4 34  1  0  0  0  0
  5 35  1  0  0  0  0
  6 36  1  0  0  0  0
  7 37  1  0  0  0  0
  8 38  1  0  0  0  0
  9 39  1  0  0  0  0
 10 40  1  0  0  0  0
 11 41  1  0  0  0  0
 12 42  1  0  0  0  0
 21 43  1  0  0  0  0
 21 44  1  0  0  0  0
 21 45  1  0  0  0  0
 22 46  1  0  0  0  0
 22 47  1  0  0  0  0
 22 48  1  0  0  0  0
 23 49  1  0  0  0  0
 23 50  1  0  0  0  0
 24 51  1  0  0  0  0
 24 52  1  0  0  0  0
 26 53  1  0  0  0  0
M  END
> <clash_score>
0

> <docking_score>
-8.8239164352417

> <overlap_score>
0.9891860485076904

$$$$
BENZO_397_1
  -OEChem-08222022203D

 55 58  0     0  0  0  0  0  0999 V2000
   14.1526    1.4694   24.0176 C   0  0  0  0  0  0  0  0  0  0  0  0
    4.2750    1.7050   20.8490 C   0  0  0  0  0  0  0  0  0  0  0  0
   13.3741    0.8121   24.9701 C   0  0  0  0  0  0  0  0  0  0  0  0
   13.5446    2.0802   22.9208 C   0  0  0  0  0  0  0  0  0  0  0  0
    3.9160    2.0630   19.5520 C   0  0  0  0  0  0  0  0  0  0  0  0
    5.4210    0.9600   21.0930 C   0  0  0  0  0  0  0  0  0  0  0  0
   11.9875    0.7654   24.8258 C   0  0  0  0  0  0  0  0  0  0  0  0
   12.1580    2.0335   22.7765 C   0  0  0  0  0  0  0  0  0  0  0  0
    4.6890    1.6810   18.4640 C   0  0  0  0  0  0  0  0  0  0  0  0
    8.9960   -2.3380   25.5320 C   0  0  0  0  0  0  0  0  0  0  0  0
    9.6730   -3.4710   23.5300 C   0  0  0  0  0  0  0  0  0  0  0  0
    9.0720   -1.1280   24.8640 C   0  0  0  0  0  0  0  0  0  0  0  0
    9.7200   -2.2600   22.8630 C   0  0  0  0  0  0  0  0  0  0  0  0
    6.1790    0.5730   19.9990 C   0  0  0  0  0  0  0  0  0  0  0  0
   11.3794    1.3761   23.7290 C   0  0  0  0  0  0  0  0  0  0  0  0
    5.8300    0.9190   18.6970 C   0  0  0  0  0  0  0  0  0  0  0  0
    9.3070   -3.5340   24.8780 C   0  0  0  0  0  0  0  0  0  0  0  0
    9.3350   -1.0880   23.5010 C   0  0  0  0  0  0  0  0  0  0  0  0
    7.3170   -0.1610   19.8550 C   0  0  0  0  0  0  0  0  0  0  0  0
    9.0420    0.3700   21.5280 C   0  0  0  0  0  0  0  0  0  0  0  0
    9.5333   -6.0236   25.0414 C   0  0  0  0  0  0  0  0  0  0  0  0
   10.6330   -7.3746   26.8775 C   0  0  0  0  0  0  0  0  0  0  0  0
    9.8870    1.3260   23.5730 C   0  0  0  0  0  0  0  0  0  0  0  0
    8.1890   -0.7180   20.8700 C   0  0  0  0  0  0  0  0  0  0  0  0
    9.3522   -7.0865   26.1149 C   0  0  0  0  0  0  0  0  0  0  0  0
    6.7580    0.3810   17.8350 N   0  0  0  0  0  0  0  0  0  0  0  0
    7.6390   -0.2680   18.5410 N   0  0  0  0  0  0  0  0  0  0  0  0
    9.2546   -4.7422   25.5438 N   0  0  0  0  0  0  0  0  0  0  0  0
    9.4560    0.1560   22.8130 N   0  0  0  0  0  0  0  0  0  0  0  0
    9.2690    1.4140   20.9380 O   0  0  0  0  0  0  0  0  0  0  0  0
    9.8805   -6.3053   23.8992 O   0  0  0  0  0  0  0  0  0  0  0  0
   15.2322    1.5068   24.1308 H   0  0  0  0  0  0  0  0  0  0  0  0
    3.6562    2.0083   21.6780 H   0  0  0  0  0  0  0  0  0  0  0  0
   13.8473    0.3374   25.8248 H   0  0  0  0  0  0  0  0  0  0  0  0
   14.1503    2.5930   22.1795 H   0  0  0  0  0  0  0  0  0  0  0  0
    3.0225    2.6465   19.3867 H   0  0  0  0  0  0  0  0  0  0  0  0
    5.7084    0.6884   22.1515 H   0  0  0  0  0  0  0  0  0  0  0  0
   11.3889    0.2508   25.5729 H   0  0  0  0  0  0  0  0  0  0  0  0
   11.6930    2.5120   21.9187 H   0  0  0  0  0  0  0  0  0  0  0  0
    4.3943    1.9831   17.4240 H   0  0  0  0  0  0  0  0  0  0  0  0
    8.6895   -2.3529   26.5807 H   0  0  0  0  0  0  0  0  0  0  0  0
    9.9262   -4.3897   22.9916 H   0  0  0  0  0  0  0  0  0  0  0  0
    8.9224   -0.1998   25.4238 H   0  0  0  0  0  0  0  0  0  0  0  0
   10.0649   -2.2343   21.8258 H   0  0  0  0  0  0  0  0  0  0  0  0
   11.4241   -7.7171   26.2024 H   0  0  0  0  0  0  0  0  0  0  0  0
   10.4629   -8.1531   27.6277 H   0  0  0  0  0  0  0  0  0  0  0  0
   10.9949   -6.4779   27.3911 H   0  0  0  0  0  0  0  0  0  0  0  0
    9.3974    1.2912   24.5523 H   0  0  0  0  0  0  0  0  0  0  0  0
    9.5159    2.2168   23.0553 H   0  0  0  0  0  0  0  0  0  0  0  0
    7.6090   -1.2088   21.6628 H   0  0  0  0  0  0  0  0  0  0  0  0
    8.8730   -1.4654   20.4463 H   0  0  0  0  0  0  0  0  0  0  0  0
    8.5795   -6.7462   26.8138 H   0  0  0  0  0  0  0  0  0  0  0  0
    8.9965   -8.0064   25.6368 H   0  0  0  0  0  0  0  0  0  0  0  0
    8.3933   -0.7388   18.1198 H   0  0  0  0  0  0  0  0  0  0  0  0
    8.9776   -4.7057   26.5317 H   0  0  0  0  0  0  0  0  0  0  0  0
  1  3  1  0  0  0  0
  1  4  2  0  0  0  0
  2  5  1  0  0  0  0
  2  6  2  0  0  0  0
  3  7  2  0  0  0  0
  4  8  1  0  0  0  0
  5  9  2  0  0  0  0
  6 14  1  0  0  0  0
  7 15  1  0  0  0  0
  8 15  2  0  0  0  0
  9 16  1  0  0  0  0
 10 12  2  0  0  0  0
 10 17  1  0  0  0  0
 11 13  1  0  0  0  0
 11 17  2  0  0  0  0
 12 18  1  0  0  0  0
 13 18  2  0  0  0  0
 14 16  1  0  0  0  0
 14 19  2  0  0  0  0
 15 23  1  0  0  0  0
 16 26  2  0  0  0  0
 17 28  1  0  0  0  0
 18 29  1  0  0  0  0
 19 24  1  0  0  0  0
 19 27  1  0  0  0  0
 20 24  1  0  0  0  0
 20 29  1  0  0  0  0
 20 30  2  0  0  0  0
 21 25  1  0  0  0  0
 21 28  1  0  0  0  0
 21 31  2  0  0  0  0
 22 25  1  0  0  0  0
 23 29  1  0  0  0  0
 26 27  1  0  0  0  0
  1 32  1  0  0  0  0
  2 33  1  0  0  0  0
  3 34  1  0  0  0  0
  4 35  1  0  0  0  0
  5 36  1  0  0  0  0
  6 37  1  0  0  0  0
  7 38  1  0  0  0  0
  8 39  1  0  0  0  0
  9 40  1  0  0  0  0
 10 41  1  0  0  0  0
 11 42  1  0  0  0  0
 12 43  1  0  0  0  0
 13 44  1  0  0  0  0
 22 45  1  0  0  0  0
 22 46  1  0  0  0  0
 22 47  1  0  0  0  0
 23 48  1  0  0  0  0
 23 49  1  0  0  0  0
 24 50  1  0  0  0  0
 24 51  1  0  0  0  0
 25 52  1  0  0  0  0
 25 53  1  0  0  0  0
 27 54  1  0  0  0  0
 28 55  1  0  0  0  0
M  END
> <clash_score>
1.498654129822121

> <docking_score>
-6.492652893066406

> <overlap_score>
0.9802290201187134

$$$$
BENZO_396_1
  -OEChem-08222022203D

 52 55  0     0  0  0  0  0  0999 V2000
    4.2750    1.7050   20.8490 C   0  0  0  0  0  0  0  0  0  0  0  0
    3.9160    2.0630   19.5520 C   0  0  0  0  0  0  0  0  0  0  0  0
    5.4210    0.9600   21.0930 C   0  0  0  0  0  0  0  0  0  0  0  0
    4.6890    1.6810   18.4640 C   0  0  0  0  0  0  0  0  0  0  0  0
    8.9960   -2.3380   25.5320 C   0  0  0  0  0  0  0  0  0  0  0  0
    9.6730   -3.4710   23.5300 C   0  0  0  0  0  0  0  0  0  0  0  0
    9.0720   -1.1280   24.8640 C   0  0  0  0  0  0  0  0  0  0  0  0
    9.7200   -2.2600   22.8630 C   0  0  0  0  0  0  0  0  0  0  0  0
   12.2111    0.2208   23.7905 C   0  0  0  0  0  0  0  0  0  0  0  0
   13.5412    0.5479   23.9364 C   0  0  0  0  0  0  0  0  0  0  0  0
   12.1057    2.5424   23.8305 C   0  0  0  0  0  0  0  0  0  0  0  0
    6.1790    0.5730   19.9990 C   0  0  0  0  0  0  0  0  0  0  0  0
   11.3794    1.3761   23.7290 C   0  0  0  0  0  0  0  0  0  0  0  0
    5.8300    0.9190   18.6970 C   0  0  0  0  0  0  0  0  0  0  0  0
    9.3070   -3.5340   24.8780 C   0  0  0  0  0  0  0  0  0  0  0  0
    9.3350   -1.0880   23.5010 C   0  0  0  0  0  0  0  0  0  0  0  0
    7.3170   -0.1610   19.8550 C   0  0  0  0  0  0  0  0  0  0  0  0
    9.0420    0.3700   21.5280 C   0  0  0  0  0  0  0  0  0  0  0  0
    9.5333   -6.0236   25.0414 C   0  0  0  0  0  0  0  0  0  0  0  0
   10.6330   -7.3746   26.8775 C   0  0  0  0  0  0  0  0  0  0  0  0
    9.8870    1.3260   23.5730 C   0  0  0  0  0  0  0  0  0  0  0  0
    8.1890   -0.7180   20.8700 C   0  0  0  0  0  0  0  0  0  0  0  0
    9.3522   -7.0865   26.1149 C   0  0  0  0  0  0  0  0  0  0  0  0
    6.7580    0.3810   17.8350 N   0  0  0  0  0  0  0  0  0  0  0  0
    7.6390   -0.2680   18.5410 N   0  0  0  0  0  0  0  0  0  0  0  0
    9.2546   -4.7422   25.5438 N   0  0  0  0  0  0  0  0  0  0  0  0
    9.4560    0.1560   22.8130 N   0  0  0  0  0  0  0  0  0  0  0  0
    9.2690    1.4140   20.9380 O   0  0  0  0  0  0  0  0  0  0  0  0
    9.8805   -6.3053   23.8992 O   0  0  0  0  0  0  0  0  0  0  0  0
   13.7831    2.2420   23.9988 S   0  0  0  0  0  0  0  0  0  0  0  0
    3.6562    2.0083   21.6780 H   0  0  0  0  0  0  0  0  0  0  0  0
    3.0225    2.6465   19.3867 H   0  0  0  0  0  0  0  0  0  0  0  0
    5.7084    0.6884   22.1515 H   0  0  0  0  0  0  0  0  0  0  0  0
    4.3943    1.9831   17.4240 H   0  0  0  0  0  0  0  0  0  0  0  0
    8.6895   -2.3529   26.5807 H   0  0  0  0  0  0  0  0  0  0  0  0
    9.9262   -4.3897   22.9916 H   0  0  0  0  0  0  0  0  0  0  0  0
    8.9224   -0.1998   25.4238 H   0  0  0  0  0  0  0  0  0  0  0  0
   10.0649   -2.2343   21.8258 H   0  0  0  0  0  0  0  0  0  0  0  0
   11.8558   -0.8003   23.7315 H   0  0  0  0  0  0  0  0  0  0  0  0
   14.3824   -0.1267   24.0100 H   0  0  0  0  0  0  0  0  0  0  0  0
   11.7354    3.5581   23.8155 H   0  0  0  0  0  0  0  0  0  0  0  0
   11.4241   -7.7171   26.2024 H   0  0  0  0  0  0  0  0  0  0  0  0
   10.4629   -8.1531   27.6277 H   0  0  0  0  0  0  0  0  0  0  0  0
   10.9949   -6.4779   27.3911 H   0  0  0  0  0  0  0  0  0  0  0  0
    9.3974    1.2912   24.5523 H   0  0  0  0  0  0  0  0  0  0  0  0
    9.5159    2.2168   23.0553 H   0  0  0  0  0  0  0  0  0  0  0  0
    7.6090   -1.2088   21.6628 H   0  0  0  0  0  0  0  0  0  0  0  0
    8.8730   -1.4654   20.4463 H   0  0  0  0  0  0  0  0  0  0  0  0
    8.5795   -6.7462   26.8138 H   0  0  0  0  0  0  0  0  0  0  0  0
    8.9965   -8.0064   25.6368 H   0  0  0  0  0  0  0  0  0  0  0  0
    8.3933   -0.7388   18.1198 H   0  0  0  0  0  0  0  0  0  0  0  0
    8.9776   -4.7057   26.5317 H   0  0  0  0  0  0  0  0  0  0  0  0
  1  2  1  0  0  0  0
  1  3  2  0  0  0  0
  2  4  2  0  0  0  0
  3 12  1  0  0  0  0
  4 14  1  0  0  0  0
  5  7  2  0  0  0  0
  5 15  1  0  0  0  0
  6  8  1  0  0  0  0
  6 15  2  0  0  0  0
  7 16  1  0  0  0  0
  8 16  2  0  0  0  0
  9 10  2  0  0  0  0
  9 13  1  0  0  0  0
 10 30  1  0  0  0  0
 11 13  2  0  0  0  0
 11 30  1  0  0  0  0
 12 14  1  0  0  0  0
 12 17  2  0  0  0  0
 13 21  1  0  0  0  0
 14 24  2  0  0  0  0
 15 26  1  0  0  0  0
 16 27  1  0  0  0  0
 17 22  1  0  0  0  0
 17 25  1  0  0  0  0
 18 22  1  0  0  0  0
 18 27  1  0  0  0  0
 18 28  2  0  0  0  0
 19 23  1  0  0  0  0
 19 26  1  0  0  0  0
 19 29  2  0  0  0  0
 20 23  1  0  0  0  0
 21 27  1  0  0  0  0
 24 25  1  0  0  0  0
  1 31  1  0  0  0  0
  2 32  1  0  0  0  0
  3 33  1  0  0  0  0
  4 34  1  0  0  0  0
  5 35  1  0  0  0  0
  6 36  1  0  0  0  0
  7 37  1  0  0  0  0
  8 38  1  0  0  0  0
  9 39  1  0  0  0  0
 10 40  1  0  0  0  0
 11 41  1  0  0  0  0
 20 42  1  0  0  0  0
 20 43  1  0  0  0  0
 20 44  1  0  0  0  0
 21 45  1  0  0  0  0
 21 46  1  0  0  0  0
 22 47  1  0  0  0  0
 22 48  1  0  0  0  0
 23 49  1  0  0  0  0
 23 50  1  0  0  0  0
 25 51  1  0  0  0  0
 26 52  1  0  0  0  0
M  END
> <clash_score>
1.498654129822121

> <docking_score>
-5.765826225280762

> <overlap_score>
0.9652433395385742

$$$$
BENZO_401_1
  -OEChem-08222022203D

 60 64  0     0  0  0  0  0  0999 V2000
   14.1526    1.4694   24.0176 C   0  0  0  0  0  0  0  0  0  0  0  0
    4.2750    1.7050   20.8490 C   0  0  0  0  0  0  0  0  0  0  0  0
   13.3741    0.8121   24.9701 C   0  0  0  0  0  0  0  0  0  0  0  0
   13.5446    2.0802   22.9208 C   0  0  0  0  0  0  0  0  0  0  0  0
    3.9160    2.0630   19.5520 C   0  0  0  0  0  0  0  0  0  0  0  0
    5.4210    0.9600   21.0930 C   0  0  0  0  0  0  0  0  0  0  0  0
   11.9875    0.7654   24.8258 C   0  0  0  0  0  0  0  0  0  0  0  0
   12.1580    2.0335   22.7765 C   0  0  0  0  0  0  0  0  0  0  0  0
    4.6890    1.6810   18.4640 C   0  0  0  0  0  0  0  0  0  0  0  0
    8.9960   -2.3380   25.5320 C   0  0  0  0  0  0  0  0  0  0  0  0
    9.6730   -3.4710   23.5300 C   0  0  0  0  0  0  0  0  0  0  0  0
    9.0720   -1.1280   24.8640 C   0  0  0  0  0  0  0  0  0  0  0  0
    9.7200   -2.2600   22.8630 C   0  0  0  0  0  0  0  0  0  0  0  0
    6.1790    0.5730   19.9990 C   0  0  0  0  0  0  0  0  0  0  0  0
   11.3794    1.3761   23.7290 C   0  0  0  0  0  0  0  0  0  0  0  0
    5.8300    0.9190   18.6970 C   0  0  0  0  0  0  0  0  0  0  0  0
    9.3070   -3.5340   24.8780 C   0  0  0  0  0  0  0  0  0  0  0  0
    9.3350   -1.0880   23.5010 C   0  0  0  0  0  0  0  0  0  0  0  0
    7.3170   -0.1610   19.8550 C   0  0  0  0  0  0  0  0  0  0  0  0
    9.0420    0.3700   21.5280 C   0  0  0  0  0  0  0  0  0  0  0  0
    7.3635   -6.1361   27.1888 C   0  0  0  0  0  0  0  0  0  0  0  0
    8.1961   -4.9735   27.7341 C   0  0  0  0  0  0  0  0  0  0  0  0
    7.1942   -6.0394   25.6709 C   0  0  0  0  0  0  0  0  0  0  0  0
    9.5196   -4.8490   26.9797 C   0  0  0  0  0  0  0  0  0  0  0  0
    8.5442   -5.8838   24.9639 C   0  0  0  0  0  0  0  0  0  0  0  0
    9.8870    1.3260   23.5730 C   0  0  0  0  0  0  0  0  0  0  0  0
    8.1890   -0.7180   20.8700 C   0  0  0  0  0  0  0  0  0  0  0  0
    6.7580    0.3810   17.8350 N   0  0  0  0  0  0  0  0  0  0  0  0
    7.6390   -0.2680   18.5410 N   0  0  0  0  0  0  0  0  0  0  0  0
    9.2562   -4.7384   25.5422 N   0  0  0  0  0  0  0  0  0  0  0  0
    9.4560    0.1560   22.8130 N   0  0  0  0  0  0  0  0  0  0  0  0
    9.2690    1.4140   20.9380 O   0  0  0  0  0  0  0  0  0  0  0  0
   15.2322    1.5068   24.1308 H   0  0  0  0  0  0  0  0  0  0  0  0
    3.6562    2.0083   21.6780 H   0  0  0  0  0  0  0  0  0  0  0  0
   13.8473    0.3374   25.8248 H   0  0  0  0  0  0  0  0  0  0  0  0
   14.1503    2.5930   22.1795 H   0  0  0  0  0  0  0  0  0  0  0  0
    3.0225    2.6465   19.3867 H   0  0  0  0  0  0  0  0  0  0  0  0
    5.7084    0.6884   22.1515 H   0  0  0  0  0  0  0  0  0  0  0  0
   11.3889    0.2508   25.5729 H   0  0  0  0  0  0  0  0  0  0  0  0
   11.6930    2.5120   21.9187 H   0  0  0  0  0  0  0  0  0  0  0  0
    4.3943    1.9831   17.4240 H   0  0  0  0  0  0  0  0  0  0  0  0
    8.6905   -2.3533   26.5810 H   0  0  0  0  0  0  0  0  0  0  0  0
    9.9266   -4.3896   22.9917 H   0  0  0  0  0  0  0  0  0  0  0  0
    8.9233   -0.1992   25.4231 H   0  0  0  0  0  0  0  0  0  0  0  0
   10.0650   -2.2330   21.8256 H   0  0  0  0  0  0  0  0  0  0  0  0
    7.8482   -7.0901   27.4469 H   0  0  0  0  0  0  0  0  0  0  0  0
    6.3760   -6.1438   27.6724 H   0  0  0  0  0  0  0  0  0  0  0  0
    7.6307   -4.0424   27.6403 H   0  0  0  0  0  0  0  0  0  0  0  0
    8.3915   -5.1310   28.7968 H   0  0  0  0  0  0  0  0  0  0  0  0
    6.6888   -6.9376   25.3010 H   0  0  0  0  0  0  0  0  0  0  0  0
    6.5515   -5.1859   25.4257 H   0  0  0  0  0  0  0  0  0  0  0  0
   10.0492   -3.9640   27.3414 H   0  0  0  0  0  0  0  0  0  0  0  0
   10.1431   -5.7254   27.1778 H   0  0  0  0  0  0  0  0  0  0  0  0
    9.1338   -6.7931   25.0868 H   0  0  0  0  0  0  0  0  0  0  0  0
    8.3656   -5.7264   23.8998 H   0  0  0  0  0  0  0  0  0  0  0  0
    9.3974    1.2912   24.5523 H   0  0  0  0  0  0  0  0  0  0  0  0
    9.5159    2.2168   23.0554 H   0  0  0  0  0  0  0  0  0  0  0  0
    7.5972   -1.2056   21.6500 H   0  0  0  0  0  0  0  0  0  0  0  0
    8.8612   -1.4622   20.4334 H   0  0  0  0  0  0  0  0  0  0  0  0
    8.3933   -0.7388   18.1198 H   0  0  0  0  0  0  0  0  0  0  0  0
  1  3  1  0  0  0  0
  1  4  2  0  0  0  0
  2  5  1  0  0  0  0
  2  6  2  0  0  0  0
  3  7  2  0  0  0  0
  4  8  1  0  0  0  0
  5  9  2  0  0  0  0
  6 14  1  0  0  0  0
  7 15  1  0  0  0  0
  8 15  2  0  0  0  0
  9 16  1  0  0  0  0
 10 12  2  0  0  0  0
 10 17  1  0  0  0  0
 11 13  1  0  0  0  0
 11 17  2  0  0  0  0
 12 18  1  0  0  0  0
 13 18  2  0  0  0  0
 14 16  1  0  0  0  0
 14 19  2  0  0  0  0
 15 26  1  0  0  0  0
 16 28  2  0  0  0  0
 17 30  1  0  0  0  0
 18 31  1  0  0  0  0
 19 27  1  0  0  0  0
 19 29  1  0  0  0  0
 20 27  1  0  0  0  0
 20 31  1  0  0  0  0
 20 32  2  0  0  0  0
 21 22  1  0  0  0  0
 21 23  1  0  0  0  0
 22 24  1  0  0  0  0
 23 25  1  0  0  0  0
 24 30  1  0  0  0  0
 25 30  1  0  0  0  0
 26 31  1  0  0  0  0
 28 29  1  0  0  0  0
  1 33  1  0  0  0  0
  2 34  1  0  0  0  0
  3 35  1  0  0  0  0
  4 36  1  0  0  0  0
  5 37  1  0  0  0  0
  6 38  1  0  0  0  0
  7 39  1  0  0  0  0
  8 40  1  0  0  0  0
  9 41  1  0  0  0  0
 10 42  1  0  0  0  0
 11 43  1  0  0  0  0
 12 44  1  0  0  0  0
 13 45  1  0  0  0  0
 21 46  1  0  0  0  0
 21 47  1  0  0  0  0
 22 48  1  0  0  0  0
 22 49  1  0  0  0  0
 23 50  1  0  0  0  0
 23 51  1  0  0  0  0
 24 52  1  0  0  0  0
 24 53  1  0  0  0  0
 25 54  1  0  0  0  0
 25 55  1  0  0  0  0
 26 56  1  0  0  0  0
 26 57  1  0  0  0  0
 27 58  1  0  0  0  0
 27 59  1  0  0  0  0
 29 60  1  0  0  0  0
M  END
> <clash_score>
0

> <docking_score>
-8.782698631286621

> <overlap_score>
0.9931821227073669

$$$$
BENZO_399_1
  -OEChem-08222022203D

 55 58  0     0  0  0  0  0  0999 V2000
    4.2750    1.7050   20.8490 C   0  0  0  0  0  0  0  0  0  0  0  0
    3.9160    2.0630   19.5520 C   0  0  0  0  0  0  0  0  0  0  0  0
    5.4210    0.9600   21.0930 C   0  0  0  0  0  0  0  0  0  0  0  0
    4.6890    1.6810   18.4640 C   0  0  0  0  0  0  0  0  0  0  0  0
    8.9960   -2.3380   25.5320 C   0  0  0  0  0  0  0  0  0  0  0  0
    9.6730   -3.4710   23.5300 C   0  0  0  0  0  0  0  0  0  0  0  0
    9.0720   -1.1280   24.8640 C   0  0  0  0  0  0  0  0  0  0  0  0
    9.7200   -2.2600   22.8630 C   0  0  0  0  0  0  0  0  0  0  0  0
   12.2914    2.2071   23.0512 C   0  0  0  0  0  0  0  0  0  0  0  0
   12.1614    0.6214   24.5689 C   0  0  0  0  0  0  0  0  0  0  0  0
    6.1790    0.5730   19.9990 C   0  0  0  0  0  0  0  0  0  0  0  0
   11.3794    1.3761   23.7290 C   0  0  0  0  0  0  0  0  0  0  0  0
    5.8300    0.9190   18.6970 C   0  0  0  0  0  0  0  0  0  0  0  0
    9.3070   -3.5340   24.8780 C   0  0  0  0  0  0  0  0  0  0  0  0
    9.3350   -1.0880   23.5010 C   0  0  0  0  0  0  0  0  0  0  0  0
    7.3170   -0.1610   19.8550 C   0  0  0  0  0  0  0  0  0  0  0  0
    9.0420    0.3700   21.5280 C   0  0  0  0  0  0  0  0  0  0  0  0
    9.5333   -6.0236   25.0414 C   0  0  0  0  0  0  0  0  0  0  0  0
   10.6330   -7.3746   26.8775 C   0  0  0  0  0  0  0  0  0  0  0  0
   14.6267    0.5248   25.0067 C   0  0  0  0  0  0  0  0  0  0  0  0
    9.8870    1.3260   23.5730 C   0  0  0  0  0  0  0  0  0  0  0  0
    8.1890   -0.7180   20.8700 C   0  0  0  0  0  0  0  0  0  0  0  0
    9.3522   -7.0865   26.1149 C   0  0  0  0  0  0  0  0  0  0  0  0
   13.5560    2.0002   23.4280 N   0  0  0  0  0  0  0  0  0  0  0  0
    6.7580    0.3810   17.8350 N   0  0  0  0  0  0  0  0  0  0  0  0
    7.6390   -0.2680   18.5410 N   0  0  0  0  0  0  0  0  0  0  0  0
   13.4442    1.0306   24.3518 N   0  0  0  0  0  0  0  0  0  0  0  0
    9.2546   -4.7422   25.5438 N   0  0  0  0  0  0  0  0  0  0  0  0
    9.4560    0.1560   22.8130 N   0  0  0  0  0  0  0  0  0  0  0  0
    9.2690    1.4140   20.9380 O   0  0  0  0  0  0  0  0  0  0  0  0
    9.8805   -6.3053   23.8992 O   0  0  0  0  0  0  0  0  0  0  0  0
    3.6562    2.0083   21.6780 H   0  0  0  0  0  0  0  0  0  0  0  0
    3.0225    2.6465   19.3867 H   0  0  0  0  0  0  0  0  0  0  0  0
    5.7084    0.6884   22.1515 H   0  0  0  0  0  0  0  0  0  0  0  0
    4.3943    1.9831   17.4240 H   0  0  0  0  0  0  0  0  0  0  0  0
    8.6895   -2.3529   26.5807 H   0  0  0  0  0  0  0  0  0  0  0  0
    9.9262   -4.3897   22.9916 H   0  0  0  0  0  0  0  0  0  0  0  0
    8.9224   -0.1998   25.4238 H   0  0  0  0  0  0  0  0  0  0  0  0
   10.0649   -2.2343   21.8258 H   0  0  0  0  0  0  0  0  0  0  0  0
   12.0895    2.9562   22.2987 H   0  0  0  0  0  0  0  0  0  0  0  0
   11.9201   -0.1518   25.2857 H   0  0  0  0  0  0  0  0  0  0  0  0
   11.4241   -7.7171   26.2024 H   0  0  0  0  0  0  0  0  0  0  0  0
   10.4629   -8.1531   27.6277 H   0  0  0  0  0  0  0  0  0  0  0  0
   10.9949   -6.4779   27.3911 H   0  0  0  0  0  0  0  0  0  0  0  0
   15.0068   -0.3132   24.4165 H   0  0  0  0  0  0  0  0  0  0  0  0
   15.3758    1.3189   25.0699 H   0  0  0  0  0  0  0  0  0  0  0  0
   14.3675    0.1958   26.0170 H   0  0  0  0  0  0  0  0  0  0  0  0
    9.3974    1.2912   24.5523 H   0  0  0  0  0  0  0  0  0  0  0  0
    9.5159    2.2168   23.0553 H   0  0  0  0  0  0  0  0  0  0  0  0
    7.6090   -1.2088   21.6628 H   0  0  0  0  0  0  0  0  0  0  0  0
    8.8730   -1.4654   20.4463 H   0  0  0  0  0  0  0  0  0  0  0  0
    8.5795   -6.7462   26.8138 H   0  0  0  0  0  0  0  0  0  0  0  0
    8.9965   -8.0064   25.6368 H   0  0  0  0  0  0  0  0  0  0  0  0
    8.3933   -0.7388   18.1198 H   0  0  0  0  0  0  0  0  0  0  0  0
    8.9776   -4.7057   26.5317 H   0  0  0  0  0  0  0  0  0  0  0  0
  1  2  1  0  0  0  0
  1  3  2  0  0  0  0
  2  4  2  0  0  0  0
  3 11  1  0  0  0  0
  4 13  1  0  0  0  0
  5  7  2  0  0  0  0
  5 14  1  0  0  0  0
  6  8  1  0  0  0  0
  6 14  2  0  0  0  0
  7 15  1  0  0  0  0
  8 15  2  0  0  0  0
  9 12  1  0  0  0  0
  9 24  2  0  0  0  0
 10 12  2  0  0  0  0
 10 27  1  0  0  0  0
 11 13  1  0  0  0  0
 11 16  2  0  0  0  0
 12 21  1  0  0  0  0
 13 25  2  0  0  0  0
 14 28  1  0  0  0  0
 15 29  1  0  0  0  0
 16 22  1  0  0  0  0
 16 26  1  0  0  0  0
 17 22  1  0  0  0  0
 17 29  1  0  0  0  0
 17 30  2  0  0  0  0
 18 23  1  0  0  0  0
 18 28  1  0  0  0  0
 18 31  2  0  0  0  0
 19 23  1  0  0  0  0
 20 27  1  0  0  0  0
 21 29  1  0  0  0  0
 24 27  1  0  0  0  0
 25 26  1  0  0  0  0
  1 32  1  0  0  0  0
  2 33  1  0  0  0  0
  3 34  1  0  0  0  0
  4 35  1  0  0  0  0
  5 36  1  0  0  0  0
  6 37  1  0  0  0  0
  7 38  1  0  0  0  0
  8 39  1  0  0  0  0
  9 40  1  0  0  0  0
 10 41  1  0  0  0  0
 19 42  1  0  0  0  0
 19 43  1  0  0  0  0
 19 44  1  0  0  0  0
 20 45  1  0  0  0  0
 20 46  1  0  0  0  0
 20 47  1  0  0  0  0
 21 48  1  0  0  0  0
 21 49  1  0  0  0  0
 22 50  1  0  0  0  0
 22 51  1  0  0  0  0
 23 52  1  0  0  0  0
 23 53  1  0  0  0  0
 26 54  1  0  0  0  0
 28 55  1  0  0  0  0
M  END
> <clash_score>
2.118595943897712

> <docking_score>
-6.175803184509277

> <overlap_score>
0.9790104031562805

$$$$
BENZO_398_1
  -OEChem-08222022203D

 55 58  0     0  0  0  0  0  0999 V2000
    4.2750    1.7050   20.8490 C   0  0  0  0  0  0  0  0  0  0  0  0
    3.9160    2.0630   19.5520 C   0  0  0  0  0  0  0  0  0  0  0  0
   13.4007    0.5725   24.7805 C   0  0  0  0  0  0  0  0  0  0  0  0
    5.4210    0.9600   21.0930 C   0  0  0  0  0  0  0  0  0  0  0  0
   12.0141    0.5273   24.6359 C   0  0  0  0  0  0  0  0  0  0  0  0
    4.6890    1.6810   18.4640 C   0  0  0  0  0  0  0  0  0  0  0  0
    8.9960   -2.3380   25.5320 C   0  0  0  0  0  0  0  0  0  0  0  0
    9.6730   -3.4710   23.5300 C   0  0  0  0  0  0  0  0  0  0  0  0
    9.0720   -1.1280   24.8640 C   0  0  0  0  0  0  0  0  0  0  0  0
    9.7200   -2.2600   22.8630 C   0  0  0  0  0  0  0  0  0  0  0  0
   14.1526    1.4666   24.0184 C   0  0  0  0  0  0  0  0  0  0  0  0
   12.1314    2.2702   22.9668 C   0  0  0  0  0  0  0  0  0  0  0  0
    6.1790    0.5730   19.9990 C   0  0  0  0  0  0  0  0  0  0  0  0
   11.3794    1.3761   23.7290 C   0  0  0  0  0  0  0  0  0  0  0  0
    5.8300    0.9190   18.6970 C   0  0  0  0  0  0  0  0  0  0  0  0
    9.3070   -3.5340   24.8780 C   0  0  0  0  0  0  0  0  0  0  0  0
    9.3350   -1.0880   23.5010 C   0  0  0  0  0  0  0  0  0  0  0  0
   13.5180    2.3154   23.1115 C   0  0  0  0  0  0  0  0  0  0  0  0
    7.3170   -0.1610   19.8550 C   0  0  0  0  0  0  0  0  0  0  0  0
    9.0420    0.3700   21.5280 C   0  0  0  0  0  0  0  0  0  0  0  0
    9.5333   -6.0236   25.0414 C   0  0  0  0  0  0  0  0  0  0  0  0
   10.6330   -7.3746   26.8775 C   0  0  0  0  0  0  0  0  0  0  0  0
    9.8870    1.3260   23.5730 C   0  0  0  0  0  0  0  0  0  0  0  0
    8.1890   -0.7180   20.8700 C   0  0  0  0  0  0  0  0  0  0  0  0
    9.3522   -7.0865   26.1149 C   0  0  0  0  0  0  0  0  0  0  0  0
    6.7580    0.3810   17.8350 N   0  0  0  0  0  0  0  0  0  0  0  0
    7.6390   -0.2680   18.5410 N   0  0  0  0  0  0  0  0  0  0  0  0
    9.2546   -4.7422   25.5438 N   0  0  0  0  0  0  0  0  0  0  0  0
    9.4560    0.1560   22.8130 N   0  0  0  0  0  0  0  0  0  0  0  0
    9.2690    1.4140   20.9380 O   0  0  0  0  0  0  0  0  0  0  0  0
    9.8805   -6.3053   23.8992 O   0  0  0  0  0  0  0  0  0  0  0  0
   14.4463    3.4175   22.1707 Cl  0  0  0  0  0  0  0  0  0  0  0  0
    3.6562    2.0083   21.6780 H   0  0  0  0  0  0  0  0  0  0  0  0
    3.0225    2.6465   19.3867 H   0  0  0  0  0  0  0  0  0  0  0  0
   13.8945   -0.0888   25.4867 H   0  0  0  0  0  0  0  0  0  0  0  0
    5.7084    0.6884   22.1515 H   0  0  0  0  0  0  0  0  0  0  0  0
   11.4361   -0.1726   25.2338 H   0  0  0  0  0  0  0  0  0  0  0  0
    4.3943    1.9831   17.4240 H   0  0  0  0  0  0  0  0  0  0  0  0
    8.6895   -2.3529   26.5807 H   0  0  0  0  0  0  0  0  0  0  0  0
    9.9262   -4.3897   22.9916 H   0  0  0  0  0  0  0  0  0  0  0  0
    8.9224   -0.1998   25.4238 H   0  0  0  0  0  0  0  0  0  0  0  0
   10.0649   -2.2343   21.8258 H   0  0  0  0  0  0  0  0  0  0  0  0
   15.2326    1.4907   24.1414 H   0  0  0  0  0  0  0  0  0  0  0  0
   11.6317    2.9303   22.2615 H   0  0  0  0  0  0  0  0  0  0  0  0
   11.4241   -7.7171   26.2024 H   0  0  0  0  0  0  0  0  0  0  0  0
   10.4629   -8.1531   27.6277 H   0  0  0  0  0  0  0  0  0  0  0  0
   10.9949   -6.4779   27.3911 H   0  0  0  0  0  0  0  0  0  0  0  0
    9.3974    1.2912   24.5523 H   0  0  0  0  0  0  0  0  0  0  0  0
    9.5159    2.2168   23.0553 H   0  0  0  0  0  0  0  0  0  0  0  0
    7.6090   -1.2088   21.6628 H   0  0  0  0  0  0  0  0  0  0  0  0
    8.8730   -1.4654   20.4463 H   0  0  0  0  0  0  0  0  0  0  0  0
    8.5795   -6.7462   26.8138 H   0  0  0  0  0  0  0  0  0  0  0  0
    8.9965   -8.0064   25.6368 H   0  0  0  0  0  0  0  0  0  0  0  0
    8.3933   -0.7388   18.1198 H   0  0  0  0  0  0  0  0  0  0  0  0
    8.9776   -4.7057   26.5317 H   0  0  0  0  0  0  0  0  0  0  0  0
  1  2  1  0  0  0  0
  1  4  2  0  0  0  0
  2  6  2  0  0  0  0
  3  5  2  0  0  0  0
  3 11  1  0  0  0  0
  4 13  1  0  0  0  0
  5 14  1  0  0  0  0
  6 15  1  0  0  0  0
  7  9  2  0  0  0  0
  7 16  1  0  0  0  0
  8 10  1  0  0  0  0
  8 16  2  0  0  0  0
  9 17  1  0  0  0  0
 10 17  2  0  0  0  0
 11 18  2  0  0  0  0
 12 14  2  0  0  0  0
 12 18  1  0  0  0  0
 13 15  1  0  0  0  0
 13 19  2  0  0  0  0
 14 23  1  0  0  0  0
 15 26  2  0  0  0  0
 16 28  1  0  0  0  0
 17 29  1  0  0  0  0
 18 32  1  0  0  0  0
 19 24  1  0  0  0  0
 19 27  1  0  0  0  0
 20 24  1  0  0  0  0
 20 29  1  0  0  0  0
 20 30  2  0  0  0  0
 21 25  1  0  0  0  0
 21 28  1  0  0  0  0
 21 31  2  0  0  0  0
 22 25  1  0  0  0  0
 23 29  1  0  0  0  0
 26 27  1  0  0  0  0
  1 33  1  0  0  0  0
  2 34  1  0  0  0  0
  3 35  1  0  0  0  0
  4 36  1  0  0  0  0
  5 37  1  0  0  0  0
  6 38  1  0  0  0  0
  7 39  1  0  0  0  0
  8 40  1  0  0  0  0
  9 41  1  0  0  0  0
 10 42  1  0  0  0  0
 11 43  1  0  0  0  0
 12 44  1  0  0  0  0
 22 45  1  0  0  0  0
 22 46  1  0  0  0  0
 22 47  1  0  0  0  0
 23 48  1  0  0  0  0
 23 49  1  0  0  0  0
 24 50  1  0  0  0  0
 24 51  1  0  0  0  0
 25 52  1  0  0  0  0
 25 53  1  0  0  0  0
 27 54  1  0  0  0  0
 28 55  1  0  0  0  0
M  END
> <clash_score>
1.498654129822121

> <docking_score>
-5.629638671875

> <overlap_score>
0.9913628697395325

$$$$
BENZO_400_1
  -OEChem-08222022203D

 57 61  0     0  0  0  0  0  0999 V2000
    4.2750    1.7050   20.8490 C   0  0  0  0  0  0  0  0  0  0  0  0
    3.9160    2.0630   19.5520 C   0  0  0  0  0  0  0  0  0  0  0  0
    5.4210    0.9600   21.0930 C   0  0  0  0  0  0  0  0  0  0  0  0
    4.6890    1.6810   18.4640 C   0  0  0  0  0  0  0  0  0  0  0  0
    8.9960   -2.3380   25.5320 C   0  0  0  0  0  0  0  0  0  0  0  0
    9.6730   -3.4710   23.5300 C   0  0  0  0  0  0  0  0  0  0  0  0
    9.0720   -1.1280   24.8640 C   0  0  0  0  0  0  0  0  0  0  0  0
    9.7200   -2.2600   22.8630 C   0  0  0  0  0  0  0  0  0  0  0  0
   12.2913    1.4279   22.6355 C   0  0  0  0  0  0  0  0  0  0  0  0
   13.6024    1.4662   23.0564 C   0  0  0  0  0  0  0  0  0  0  0  0
   12.0284    1.3764   24.9443 C   0  0  0  0  0  0  0  0  0  0  0  0
    6.1790    0.5730   19.9990 C   0  0  0  0  0  0  0  0  0  0  0  0
   11.3794    1.3761   23.7290 C   0  0  0  0  0  0  0  0  0  0  0  0
    5.8300    0.9190   18.6970 C   0  0  0  0  0  0  0  0  0  0  0  0
    9.3070   -3.5340   24.8780 C   0  0  0  0  0  0  0  0  0  0  0  0
    9.3350   -1.0880   23.5010 C   0  0  0  0  0  0  0  0  0  0  0  0
    7.3170   -0.1610   19.8550 C   0  0  0  0  0  0  0  0  0  0  0  0
    9.0420    0.3700   21.5280 C   0  0  0  0  0  0  0  0  0  0  0  0
    7.2235   -6.6199   26.3009 C   0  0  0  0  0  0  0  0  0  0  0  0
    7.4293   -5.3101   27.0652 C   0  0  0  0  0  0  0  0  0  0  0  0
    7.7217   -6.5099   24.8580 C   0  0  0  0  0  0  0  0  0  0  0  0
    8.8782   -4.8357   26.9548 C   0  0  0  0  0  0  0  0  0  0  0  0
    9.1652   -6.0007   24.7995 C   0  0  0  0  0  0  0  0  0  0  0  0
    9.8870    1.3260   23.5730 C   0  0  0  0  0  0  0  0  0  0  0  0
    8.1890   -0.7180   20.8700 C   0  0  0  0  0  0  0  0  0  0  0  0
    6.7580    0.3810   17.8350 N   0  0  0  0  0  0  0  0  0  0  0  0
    7.6390   -0.2680   18.5410 N   0  0  0  0  0  0  0  0  0  0  0  0
    9.2562   -4.7384   25.5422 N   0  0  0  0  0  0  0  0  0  0  0  0
    9.4560    0.1560   22.8130 N   0  0  0  0  0  0  0  0  0  0  0  0
    9.2690    1.4140   20.9380 O   0  0  0  0  0  0  0  0  0  0  0  0
   13.7301    1.4394   24.7638 S   0  0  0  0  0  0  0  0  0  0  0  0
    3.6562    2.0083   21.6780 H   0  0  0  0  0  0  0  0  0  0  0  0
    3.0225    2.6465   19.3867 H   0  0  0  0  0  0  0  0  0  0  0  0
    5.7084    0.6884   22.1515 H   0  0  0  0  0  0  0  0  0  0  0  0
    4.3943    1.9831   17.4240 H   0  0  0  0  0  0  0  0  0  0  0  0
    8.6905   -2.3533   26.5810 H   0  0  0  0  0  0  0  0  0  0  0  0
    9.9266   -4.3896   22.9917 H   0  0  0  0  0  0  0  0  0  0  0  0
    8.9233   -0.1992   25.4231 H   0  0  0  0  0  0  0  0  0  0  0  0
   10.0650   -2.2330   21.8256 H   0  0  0  0  0  0  0  0  0  0  0  0
   12.0045    1.4365   21.5915 H   0  0  0  0  0  0  0  0  0  0  0  0
   14.4914    1.5078   22.4431 H   0  0  0  0  0  0  0  0  0  0  0  0
   11.5886    1.3416   25.9314 H   0  0  0  0  0  0  0  0  0  0  0  0
    7.7559   -7.4347   26.8149 H   0  0  0  0  0  0  0  0  0  0  0  0
    6.1572   -6.8883   26.3055 H   0  0  0  0  0  0  0  0  0  0  0  0
    6.7602   -4.5435   26.6651 H   0  0  0  0  0  0  0  0  0  0  0  0
    7.1684   -5.4551   28.1155 H   0  0  0  0  0  0  0  0  0  0  0  0
    7.6595   -7.4899   24.3736 H   0  0  0  0  0  0  0  0  0  0  0  0
    7.0706   -5.8317   24.2943 H   0  0  0  0  0  0  0  0  0  0  0  0
    8.9681   -3.8621   27.4435 H   0  0  0  0  0  0  0  0  0  0  0  0
    9.5387   -5.5390   27.4697 H   0  0  0  0  0  0  0  0  0  0  0  0
    9.8374   -6.7413   25.2344 H   0  0  0  0  0  0  0  0  0  0  0  0
    9.4414   -5.8515   23.7552 H   0  0  0  0  0  0  0  0  0  0  0  0
    9.3974    1.2912   24.5523 H   0  0  0  0  0  0  0  0  0  0  0  0
    9.5159    2.2168   23.0554 H   0  0  0  0  0  0  0  0  0  0  0  0
    7.5972   -1.2056   21.6500 H   0  0  0  0  0  0  0  0  0  0  0  0
    8.8612   -1.4622   20.4334 H   0  0  0  0  0  0  0  0  0  0  0  0
    8.3933   -0.7388   18.1198 H   0  0  0  0  0  0  0  0  0  0  0  0
  1  2  1  0  0  0  0
  1  3  2  0  0  0  0
  2  4  2  0  0  0  0
  3 12  1  0  0  0  0
  4 14  1  0  0  0  0
  5  7  2  0  0  0  0
  5 15  1  0  0  0  0
  6  8  1  0  0  0  0
  6 15  2  0  0  0  0
  7 16  1  0  0  0  0
  8 16  2  0  0  0  0
  9 10  2  0  0  0  0
  9 13  1  0  0  0  0
 10 31  1  0  0  0  0
 11 13  2  0  0  0  0
 11 31  1  0  0  0  0
 12 14  1  0  0  0  0
 12 17  2  0  0  0  0
 13 24  1  0  0  0  0
 14 26  2  0  0  0  0
 15 28  1  0  0  0  0
 16 29  1  0  0  0  0
 17 25  1  0  0  0  0
 17 27  1  0  0  0  0
 18 25  1  0  0  0  0
 18 29  1  0  0  0  0
 18 30  2  0  0  0  0
 19 20  1  0  0  0  0
 19 21  1  0  0  0  0
 20 22  1  0  0  0  0
 21 23  1  0  0  0  0
 22 28  1  0  0  0  0
 23 28  1  0  0  0  0
 24 29  1  0  0  0  0
 26 27  1  0  0  0  0
  1 32  1  0  0  0  0
  2 33  1  0  0  0  0
  3 34  1  0  0  0  0
  4 35  1  0  0  0  0
  5 36  1  0  0  0  0
  6 37  1  0  0  0  0
  7 38  1  0  0  0  0
  8 39  1  0  0  0  0
  9 40  1  0  0  0  0
 10 41  1  0  0  0  0
 11 42  1  0  0  0  0
 19 43  1  0  0  0  0
 19 44  1  0  0  0  0
 20 45  1  0  0  0  0
 20 46  1  0  0  0  0
 21 47  1  0  0  0  0
 21 48  1  0  0  0  0
 22 49  1  0  0  0  0
 22 50  1  0  0  0  0
 23 51  1  0  0  0  0
 23 52  1  0  0  0  0
 24 53  1  0  0  0  0
 24 54  1  0  0  0  0
 25 55  1  0  0  0  0
 25 56  1  0  0  0  0
 27 57  1  0  0  0  0
M  END
> <clash_score>
0

> <docking_score>
-8.685186386108398

> <overlap_score>
0.9782362580299377

$$$$
BENZO_405_1
  -OEChem-08222022203D

 48 51  0     0  0  0  0  0  0999 V2000
   14.1526    1.4694   24.0176 C   0  0  0  0  0  0  0  0  0  0  0  0
    4.2750    1.7050   20.8490 C   0  0  0  0  0  0  0  0  0  0  0  0
   13.3741    0.8121   24.9701 C   0  0  0  0  0  0  0  0  0  0  0  0
   13.5446    2.0802   22.9208 C   0  0  0  0  0  0  0  0  0  0  0  0
    3.9160    2.0630   19.5520 C   0  0  0  0  0  0  0  0  0  0  0  0
    5.4210    0.9600   21.0930 C   0  0  0  0  0  0  0  0  0  0  0  0
   11.9875    0.7654   24.8258 C   0  0  0  0  0  0  0  0  0  0  0  0
   12.1580    2.0335   22.7765 C   0  0  0  0  0  0  0  0  0  0  0  0
    8.9960   -2.3380   25.5320 C   0  0  0  0  0  0  0  0  0  0  0  0
    9.6730   -3.4710   23.5300 C   0  0  0  0  0  0  0  0  0  0  0  0
    4.6890    1.6810   18.4640 C   0  0  0  0  0  0  0  0  0  0  0  0
    9.0720   -1.1280   24.8640 C   0  0  0  0  0  0  0  0  0  0  0  0
    9.7200   -2.2600   22.8630 C   0  0  0  0  0  0  0  0  0  0  0  0
    6.1790    0.5730   19.9990 C   0  0  0  0  0  0  0  0  0  0  0  0
    9.3070   -3.5340   24.8780 C   0  0  0  0  0  0  0  0  0  0  0  0
   11.3794    1.3761   23.7290 C   0  0  0  0  0  0  0  0  0  0  0  0
    5.8300    0.9190   18.6970 C   0  0  0  0  0  0  0  0  0  0  0  0
    9.3350   -1.0880   23.5010 C   0  0  0  0  0  0  0  0  0  0  0  0
    7.3170   -0.1610   19.8550 C   0  0  0  0  0  0  0  0  0  0  0  0
    9.0420    0.3700   21.5280 C   0  0  0  0  0  0  0  0  0  0  0  0
    9.2505   -4.8264   25.5904 C   0  0  0  0  0  0  0  0  0  0  0  0
    9.8870    1.3260   23.5730 C   0  0  0  0  0  0  0  0  0  0  0  0
    8.1890   -0.7180   20.8700 C   0  0  0  0  0  0  0  0  0  0  0  0
    6.7580    0.3810   17.8350 N   0  0  0  0  0  0  0  0  0  0  0  0
    7.6390   -0.2680   18.5410 N   0  0  0  0  0  0  0  0  0  0  0  0
    9.4560    0.1560   22.8130 N   0  0  0  0  0  0  0  0  0  0  0  0
    9.2690    1.4140   20.9380 O   0  0  0  0  0  0  0  0  0  0  0  0
   15.2322    1.5068   24.1308 H   0  0  0  0  0  0  0  0  0  0  0  0
    3.6562    2.0083   21.6780 H   0  0  0  0  0  0  0  0  0  0  0  0
   13.8473    0.3374   25.8248 H   0  0  0  0  0  0  0  0  0  0  0  0
   14.1503    2.5930   22.1795 H   0  0  0  0  0  0  0  0  0  0  0  0
    3.0225    2.6465   19.3867 H   0  0  0  0  0  0  0  0  0  0  0  0
    5.7084    0.6884   22.1515 H   0  0  0  0  0  0  0  0  0  0  0  0
   11.3889    0.2508   25.5729 H   0  0  0  0  0  0  0  0  0  0  0  0
   11.6930    2.5120   21.9187 H   0  0  0  0  0  0  0  0  0  0  0  0
    8.6919   -2.3557   26.5813 H   0  0  0  0  0  0  0  0  0  0  0  0
    9.9267   -4.3907   22.9939 H   0  0  0  0  0  0  0  0  0  0  0  0
    4.3943    1.9831   17.4240 H   0  0  0  0  0  0  0  0  0  0  0  0
    8.9217   -0.1995   25.4231 H   0  0  0  0  0  0  0  0  0  0  0  0
   10.0653   -2.2339   21.8256 H   0  0  0  0  0  0  0  0  0  0  0  0
    8.2503   -5.2678   25.5020 H   0  0  0  0  0  0  0  0  0  0  0  0
    9.9817   -5.5374   25.1845 H   0  0  0  0  0  0  0  0  0  0  0  0
    9.4841   -4.7043   26.6562 H   0  0  0  0  0  0  0  0  0  0  0  0
    9.3974    1.2912   24.5523 H   0  0  0  0  0  0  0  0  0  0  0  0
    9.5159    2.2168   23.0553 H   0  0  0  0  0  0  0  0  0  0  0  0
    7.6090   -1.2088   21.6628 H   0  0  0  0  0  0  0  0  0  0  0  0
    8.8730   -1.4654   20.4463 H   0  0  0  0  0  0  0  0  0  0  0  0
    8.3933   -0.7388   18.1198 H   0  0  0  0  0  0  0  0  0  0  0  0
  1  3  1  0  0  0  0
  1  4  2  0  0  0  0
  2  5  1  0  0  0  0
  2  6  2  0  0  0  0
  3  7  2  0  0  0  0
  4  8  1  0  0  0  0
  5 11  2  0  0  0  0
  6 14  1  0  0  0  0
  7 16  1  0  0  0  0
  8 16  2  0  0  0  0
  9 12  2  0  0  0  0
  9 15  1  0  0  0  0
 10 13  1  0  0  0  0
 10 15  2  0  0  0  0
 11 17  1  0  0  0  0
 12 18  1  0  0  0  0
 13 18  2  0  0  0  0
 14 17  1  0  0  0  0
 14 19  2  0  0  0  0
 15 21  1  0  0  0  0
 16 22  1  0  0  0  0
 17 24  2  0  0  0  0
 18 26  1  0  0  0  0
 19 23  1  0  0  0  0
 19 25  1  0  0  0  0
 20 23  1  0  0  0  0
 20 26  1  0  0  0  0
 20 27  2  0  0  0  0
 22 26  1  0  0  0  0
 24 25  1  0  0  0  0
  1 28  1  0  0  0  0
  2 29  1  0  0  0  0
  3 30  1  0  0  0  0
  4 31  1  0  0  0  0
  5 32  1  0  0  0  0
  6 33  1  0  0  0  0
  7 34  1  0  0  0  0
  8 35  1  0  0  0  0
  9 36  1  0  0  0  0
 10 37  1  0  0  0  0
 11 38  1  0  0  0  0
 12 39  1  0  0  0  0
 13 40  1  0  0  0  0
 21 41  1  0  0  0  0
 21 42  1  0  0  0  0
 21 43  1  0  0  0  0
 22 44  1  0  0  0  0
 22 45  1  0  0  0  0
 23 46  1  0  0  0  0
 23 47  1  0  0  0  0
 25 48  1  0  0  0  0
M  END
> <clash_score>
0

> <docking_score>
-9.027729034423828

> <overlap_score>
0.9394524097442627

$$$$
BENZO_404_1
  -OEChem-08222022203D

 45 48  0     0  0  0  0  0  0999 V2000
    4.2750    1.7050   20.8490 C   0  0  0  0  0  0  0  0  0  0  0  0
    3.9160    2.0630   19.5520 C   0  0  0  0  0  0  0  0  0  0  0  0
    5.4210    0.9600   21.0930 C   0  0  0  0  0  0  0  0  0  0  0  0
    8.9960   -2.3380   25.5320 C   0  0  0  0  0  0  0  0  0  0  0  0
    9.6730   -3.4710   23.5300 C   0  0  0  0  0  0  0  0  0  0  0  0
    4.6890    1.6810   18.4640 C   0  0  0  0  0  0  0  0  0  0  0  0
    9.0720   -1.1280   24.8640 C   0  0  0  0  0  0  0  0  0  0  0  0
    9.7200   -2.2600   22.8630 C   0  0  0  0  0  0  0  0  0  0  0  0
   12.2111    0.2208   23.7905 C   0  0  0  0  0  0  0  0  0  0  0  0
   13.5412    0.5479   23.9364 C   0  0  0  0  0  0  0  0  0  0  0  0
   12.1057    2.5424   23.8305 C   0  0  0  0  0  0  0  0  0  0  0  0
    6.1790    0.5730   19.9990 C   0  0  0  0  0  0  0  0  0  0  0  0
    9.3070   -3.5340   24.8780 C   0  0  0  0  0  0  0  0  0  0  0  0
   11.3794    1.3761   23.7290 C   0  0  0  0  0  0  0  0  0  0  0  0
    5.8300    0.9190   18.6970 C   0  0  0  0  0  0  0  0  0  0  0  0
    9.3350   -1.0880   23.5010 C   0  0  0  0  0  0  0  0  0  0  0  0
    7.3170   -0.1610   19.8550 C   0  0  0  0  0  0  0  0  0  0  0  0
    9.0420    0.3700   21.5280 C   0  0  0  0  0  0  0  0  0  0  0  0
    9.2505   -4.8264   25.5904 C   0  0  0  0  0  0  0  0  0  0  0  0
    9.8870    1.3260   23.5730 C   0  0  0  0  0  0  0  0  0  0  0  0
    8.1890   -0.7180   20.8700 C   0  0  0  0  0  0  0  0  0  0  0  0
    6.7580    0.3810   17.8350 N   0  0  0  0  0  0  0  0  0  0  0  0
    7.6390   -0.2680   18.5410 N   0  0  0  0  0  0  0  0  0  0  0  0
    9.4560    0.1560   22.8130 N   0  0  0  0  0  0  0  0  0  0  0  0
    9.2690    1.4140   20.9380 O   0  0  0  0  0  0  0  0  0  0  0  0
   13.7831    2.2420   23.9988 S   0  0  0  0  0  0  0  0  0  0  0  0
    3.6562    2.0083   21.6780 H   0  0  0  0  0  0  0  0  0  0  0  0
    3.0225    2.6465   19.3867 H   0  0  0  0  0  0  0  0  0  0  0  0
    5.7084    0.6884   22.1515 H   0  0  0  0  0  0  0  0  0  0  0  0
    8.6919   -2.3557   26.5813 H   0  0  0  0  0  0  0  0  0  0  0  0
    9.9267   -4.3907   22.9939 H   0  0  0  0  0  0  0  0  0  0  0  0
    4.3943    1.9831   17.4240 H   0  0  0  0  0  0  0  0  0  0  0  0
    8.9217   -0.1995   25.4231 H   0  0  0  0  0  0  0  0  0  0  0  0
   10.0653   -2.2339   21.8256 H   0  0  0  0  0  0  0  0  0  0  0  0
   11.8558   -0.8003   23.7315 H   0  0  0  0  0  0  0  0  0  0  0  0
   14.3824   -0.1267   24.0100 H   0  0  0  0  0  0  0  0  0  0  0  0
   11.7354    3.5581   23.8155 H   0  0  0  0  0  0  0  0  0  0  0  0
    8.2503   -5.2678   25.5020 H   0  0  0  0  0  0  0  0  0  0  0  0
    9.9817   -5.5374   25.1845 H   0  0  0  0  0  0  0  0  0  0  0  0
    9.4841   -4.7043   26.6562 H   0  0  0  0  0  0  0  0  0  0  0  0
    9.3974    1.2912   24.5523 H   0  0  0  0  0  0  0  0  0  0  0  0
    9.5159    2.2168   23.0553 H   0  0  0  0  0  0  0  0  0  0  0  0
    7.6090   -1.2088   21.6628 H   0  0  0  0  0  0  0  0  0  0  0  0
    8.8730   -1.4654   20.4463 H   0  0  0  0  0  0  0  0  0  0  0  0
    8.3933   -0.7388   18.1198 H   0  0  0  0  0  0  0  0  0  0  0  0
  1  2  1  0  0  0  0
  1  3  2  0  0  0  0
  2  6  2  0  0  0  0
  3 12  1  0  0  0  0
  4  7  2  0  0  0  0
  4 13  1  0  0  0  0
  5  8  1  0  0  0  0
  5 13  2  0  0  0  0
  6 15  1  0  0  0  0
  7 16  1  0  0  0  0
  8 16  2  0  0  0  0
  9 10  2  0  0  0  0
  9 14  1  0  0  0  0
 10 26  1  0  0  0  0
 11 14  2  0  0  0  0
 11 26  1  0  0  0  0
 12 15  1  0  0  0  0
 12 17  2  0  0  0  0
 13 19  1  0  0  0  0
 14 20  1  0  0  0  0
 15 22  2  0  0  0  0
 16 24  1  0  0  0  0
 17 21  1  0  0  0  0
 17 23  1  0  0  0  0
 18 21  1  0  0  0  0
 18 24  1  0  0  0  0
 18 25  2  0  0  0  0
 20 24  1  0  0  0  0
 22 23  1  0  0  0  0
  1 27  1  0  0  0  0
  2 28  1  0  0  0  0
  3 29  1  0  0  0  0
  4 30  1  0  0  0  0
  5 31  1  0  0  0  0
  6 32  1  0  0  0  0
  7 33  1  0  0  0  0
  8 34  1  0  0  0  0
  9 35  1  0  0  0  0
 10 36  1  0  0  0  0
 11 37  1  0  0  0  0
 19 38  1  0  0  0  0
 19 39  1  0  0  0  0
 19 40  1  0  0  0  0
 20 41  1  0  0  0  0
 20 42  1  0  0  0  0
 21 43  1  0  0  0  0
 21 44  1  0  0  0  0
 23 45  1  0  0  0  0
M  END
> <clash_score>
0

> <docking_score>
-8.300902366638184

> <overlap_score>
0.9242712259292603

$$$$
BENZO_403_1
  -OEChem-08222022203D

 60 64  0     0  0  0  0  0  0999 V2000
    4.2750    1.7050   20.8490 C   0  0  0  0  0  0  0  0  0  0  0  0
    3.9160    2.0630   19.5520 C   0  0  0  0  0  0  0  0  0  0  0  0
    5.4210    0.9600   21.0930 C   0  0  0  0  0  0  0  0  0  0  0  0
    4.6890    1.6810   18.4640 C   0  0  0  0  0  0  0  0  0  0  0  0
    8.9960   -2.3380   25.5320 C   0  0  0  0  0  0  0  0  0  0  0  0
    9.6730   -3.4710   23.5300 C   0  0  0  0  0  0  0  0  0  0  0  0
    9.0720   -1.1280   24.8640 C   0  0  0  0  0  0  0  0  0  0  0  0
    9.7200   -2.2600   22.8630 C   0  0  0  0  0  0  0  0  0  0  0  0
   12.1233    1.3811   24.9242 C   0  0  0  0  0  0  0  0  0  0  0  0
   12.3261    1.4247   22.7351 C   0  0  0  0  0  0  0  0  0  0  0  0
    6.1790    0.5730   19.9990 C   0  0  0  0  0  0  0  0  0  0  0  0
   11.3794    1.3761   23.7290 C   0  0  0  0  0  0  0  0  0  0  0  0
    5.8300    0.9190   18.6970 C   0  0  0  0  0  0  0  0  0  0  0  0
    9.3070   -3.5340   24.8780 C   0  0  0  0  0  0  0  0  0  0  0  0
    9.3350   -1.0880   23.5010 C   0  0  0  0  0  0  0  0  0  0  0  0
    7.3170   -0.1610   19.8550 C   0  0  0  0  0  0  0  0  0  0  0  0
    9.0420    0.3700   21.5280 C   0  0  0  0  0  0  0  0  0  0  0  0
    7.3635   -6.1361   27.1888 C   0  0  0  0  0  0  0  0  0  0  0  0
    8.1961   -4.9735   27.7341 C   0  0  0  0  0  0  0  0  0  0  0  0
    7.1942   -6.0394   25.6709 C   0  0  0  0  0  0  0  0  0  0  0  0
    9.5196   -4.8490   26.9797 C   0  0  0  0  0  0  0  0  0  0  0  0
    8.5442   -5.8838   24.9639 C   0  0  0  0  0  0  0  0  0  0  0  0
   14.8305    1.5084   22.7418 C   0  0  0  0  0  0  0  0  0  0  0  0
    9.8870    1.3260   23.5730 C   0  0  0  0  0  0  0  0  0  0  0  0
    8.1890   -0.7180   20.8700 C   0  0  0  0  0  0  0  0  0  0  0  0
   13.4410    1.4289   24.7112 N   0  0  0  0  0  0  0  0  0  0  0  0
    6.7580    0.3810   17.8350 N   0  0  0  0  0  0  0  0  0  0  0  0
    7.6390   -0.2680   18.5410 N   0  0  0  0  0  0  0  0  0  0  0  0
   13.5326    1.4543   23.3706 N   0  0  0  0  0  0  0  0  0  0  0  0
    9.2562   -4.7384   25.5422 N   0  0  0  0  0  0  0  0  0  0  0  0
    9.4560    0.1560   22.8130 N   0  0  0  0  0  0  0  0  0  0  0  0
    9.2690    1.4140   20.9380 O   0  0  0  0  0  0  0  0  0  0  0  0
    3.6562    2.0083   21.6780 H   0  0  0  0  0  0  0  0  0  0  0  0
    3.0225    2.6465   19.3867 H   0  0  0  0  0  0  0  0  0  0  0  0
    5.7084    0.6884   22.1515 H   0  0  0  0  0  0  0  0  0  0  0  0
    4.3943    1.9831   17.4240 H   0  0  0  0  0  0  0  0  0  0  0  0
    8.6905   -2.3533   26.5810 H   0  0  0  0  0  0  0  0  0  0  0  0
    9.9266   -4.3896   22.9917 H   0  0  0  0  0  0  0  0  0  0  0  0
    8.9233   -0.1992   25.4231 H   0  0  0  0  0  0  0  0  0  0  0  0
   10.0650   -2.2330   21.8256 H   0  0  0  0  0  0  0  0  0  0  0  0
   11.7624    1.3510   25.9426 H   0  0  0  0  0  0  0  0  0  0  0  0
   12.2462    1.4390   21.6566 H   0  0  0  0  0  0  0  0  0  0  0  0
    7.8482   -7.0901   27.4469 H   0  0  0  0  0  0  0  0  0  0  0  0
    6.3760   -6.1438   27.6724 H   0  0  0  0  0  0  0  0  0  0  0  0
    7.6307   -4.0424   27.6403 H   0  0  0  0  0  0  0  0  0  0  0  0
    8.3915   -5.1310   28.7968 H   0  0  0  0  0  0  0  0  0  0  0  0
    6.6888   -6.9376   25.3010 H   0  0  0  0  0  0  0  0  0  0  0  0
    6.5515   -5.1859   25.4257 H   0  0  0  0  0  0  0  0  0  0  0  0
   10.0492   -3.9640   27.3414 H   0  0  0  0  0  0  0  0  0  0  0  0
   10.1431   -5.7254   27.1778 H   0  0  0  0  0  0  0  0  0  0  0  0
    9.1338   -6.7931   25.0868 H   0  0  0  0  0  0  0  0  0  0  0  0
    8.3656   -5.7264   23.8998 H   0  0  0  0  0  0  0  0  0  0  0  0
   15.0990    2.5601   22.6124 H   0  0  0  0  0  0  0  0  0  0  0  0
   15.5636    1.0018   23.3756 H   0  0  0  0  0  0  0  0  0  0  0  0
   14.7841    1.0025   21.7733 H   0  0  0  0  0  0  0  0  0  0  0  0
    9.3974    1.2912   24.5523 H   0  0  0  0  0  0  0  0  0  0  0  0
    9.5159    2.2168   23.0554 H   0  0  0  0  0  0  0  0  0  0  0  0
    7.5972   -1.2056   21.6500 H   0  0  0  0  0  0  0  0  0  0  0  0
    8.8612   -1.4622   20.4334 H   0  0  0  0  0  0  0  0  0  0  0  0
    8.3933   -0.7388   18.1198 H   0  0  0  0  0  0  0  0  0  0  0  0
  1  2  1  0  0  0  0
  1  3  2  0  0  0  0
  2  4  2  0  0  0  0
  3 11  1  0  0  0  0
  4 13  1  0  0  0  0
  5  7  2  0  0  0  0
  5 14  1  0  0  0  0
  6  8  1  0  0  0  0
  6 14  2  0  0  0  0
  7 15  1  0  0  0  0
  8 15  2  0  0  0  0
  9 12  1  0  0  0  0
  9 26  2  0  0  0  0
 10 12  2  0  0  0  0
 10 29  1  0  0  0  0
 11 13  1  0  0  0  0
 11 16  2  0  0  0  0
 12 24  1  0  0  0  0
 13 27  2  0  0  0  0
 14 30  1  0  0  0  0
 15 31  1  0  0  0  0
 16 25  1  0  0  0  0
 16 28  1  0  0  0  0
 17 25  1  0  0  0  0
 17 31  1  0  0  0  0
 17 32  2  0  0  0  0
 18 19  1  0  0  0  0
 18 20  1  0  0  0  0
 19 21  1  0  0  0  0
 20 22  1  0  0  0  0
 21 30  1  0  0  0  0
 22 30  1  0  0  0  0
 23 29  1  0  0  0  0
 24 31  1  0  0  0  0
 26 29  1  0  0  0  0
 27 28  1  0  0  0  0
  1 33  1  0  0  0  0
  2 34  1  0  0  0  0
  3 35  1  0  0  0  0
  4 36  1  0  0  0  0
  5 37  1  0  0  0  0
  6 38  1  0  0  0  0
  7 39  1  0  0  0  0
  8 40  1  0  0  0  0
  9 41  1  0  0  0  0
 10 42  1  0  0  0  0
 18 43  1  0  0  0  0
 18 44  1  0  0  0  0
 19 45  1  0  0  0  0
 19 46  1  0  0  0  0
 20 47  1  0  0  0  0
 20 48  1  0  0  0  0
 21 49  1  0  0  0  0
 21 50  1  0  0  0  0
 22 51  1  0  0  0  0
 22 52  1  0  0  0  0
 23 53  1  0  0  0  0
 23 54  1  0  0  0  0
 23 55  1  0  0  0  0
 24 56  1  0  0  0  0
 24 57  1  0  0  0  0
 25 58  1  0  0  0  0
 25 59  1  0  0  0  0
 28 60  1  0  0  0  0
M  END
> <clash_score>
0

> <docking_score>
-8.498830795288086

> <overlap_score>
0.9881091713905334

$$$$
BENZO_402_1
  -OEChem-08222022203D

 60 64  0     0  0  0  0  0  0999 V2000
    4.2750    1.7050   20.8490 C   0  0  0  0  0  0  0  0  0  0  0  0
    3.9160    2.0630   19.5520 C   0  0  0  0  0  0  0  0  0  0  0  0
   13.4006    0.5725   24.7805 C   0  0  0  0  0  0  0  0  0  0  0  0
    5.4210    0.9600   21.0930 C   0  0  0  0  0  0  0  0  0  0  0  0
   12.0141    0.5273   24.6359 C   0  0  0  0  0  0  0  0  0  0  0  0
    4.6890    1.6810   18.4640 C   0  0  0  0  0  0  0  0  0  0  0  0
    8.9960   -2.3380   25.5320 C   0  0  0  0  0  0  0  0  0  0  0  0
    9.6730   -3.4710   23.5300 C   0  0  0  0  0  0  0  0  0  0  0  0
    9.0720   -1.1280   24.8640 C   0  0  0  0  0  0  0  0  0  0  0  0
    9.7200   -2.2600   22.8630 C   0  0  0  0  0  0  0  0  0  0  0  0
   14.1526    1.4666   24.0184 C   0  0  0  0  0  0  0  0  0  0  0  0
   12.1314    2.2702   22.9668 C   0  0  0  0  0  0  0  0  0  0  0  0
    6.1790    0.5730   19.9990 C   0  0  0  0  0  0  0  0  0  0  0  0
   11.3794    1.3761   23.7290 C   0  0  0  0  0  0  0  0  0  0  0  0
    5.8300    0.9190   18.6970 C   0  0  0  0  0  0  0  0  0  0  0  0
    9.3070   -3.5340   24.8780 C   0  0  0  0  0  0  0  0  0  0  0  0
    9.3350   -1.0880   23.5010 C   0  0  0  0  0  0  0  0  0  0  0  0
   13.5180    2.3154   23.1115 C   0  0  0  0  0  0  0  0  0  0  0  0
    7.3170   -0.1610   19.8550 C   0  0  0  0  0  0  0  0  0  0  0  0
    9.0420    0.3700   21.5280 C   0  0  0  0  0  0  0  0  0  0  0  0
    7.3635   -6.1361   27.1888 C   0  0  0  0  0  0  0  0  0  0  0  0
    8.1961   -4.9735   27.7341 C   0  0  0  0  0  0  0  0  0  0  0  0
    7.1942   -6.0394   25.6709 C   0  0  0  0  0  0  0  0  0  0  0  0
    9.5196   -4.8490   26.9797 C   0  0  0  0  0  0  0  0  0  0  0  0
    8.5442   -5.8838   24.9639 C   0  0  0  0  0  0  0  0  0  0  0  0
    9.8870    1.3260   23.5730 C   0  0  0  0  0  0  0  0  0  0  0  0
    8.1890   -0.7180   20.8700 C   0  0  0  0  0  0  0  0  0  0  0  0
    6.7580    0.3810   17.8350 N   0  0  0  0  0  0  0  0  0  0  0  0
    7.6390   -0.2680   18.5410 N   0  0  0  0  0  0  0  0  0  0  0  0
    9.2562   -4.7384   25.5422 N   0  0  0  0  0  0  0  0  0  0  0  0
    9.4560    0.1560   22.8130 N   0  0  0  0  0  0  0  0  0  0  0  0
    9.2690    1.4140   20.9380 O   0  0  0  0  0  0  0  0  0  0  0  0
   14.4463    3.4175   22.1707 Cl  0  0  0  0  0  0  0  0  0  0  0  0
    3.6562    2.0083   21.6780 H   0  0  0  0  0  0  0  0  0  0  0  0
    3.0225    2.6465   19.3867 H   0  0  0  0  0  0  0  0  0  0  0  0
   13.8945   -0.0888   25.4867 H   0  0  0  0  0  0  0  0  0  0  0  0
    5.7084    0.6884   22.1515 H   0  0  0  0  0  0  0  0  0  0  0  0
   11.4361   -0.1726   25.2338 H   0  0  0  0  0  0  0  0  0  0  0  0
    4.3943    1.9831   17.4240 H   0  0  0  0  0  0  0  0  0  0  0  0
    8.6905   -2.3533   26.5810 H   0  0  0  0  0  0  0  0  0  0  0  0
    9.9266   -4.3896   22.9917 H   0  0  0  0  0  0  0  0  0  0  0  0
    8.9233   -0.1992   25.4231 H   0  0  0  0  0  0  0  0  0  0  0  0
   10.0650   -2.2330   21.8256 H   0  0  0  0  0  0  0  0  0  0  0  0
   15.2326    1.4907   24.1414 H   0  0  0  0  0  0  0  0  0  0  0  0
   11.6318    2.9303   22.2615 H   0  0  0  0  0  0  0  0  0  0  0  0
    7.8482   -7.0901   27.4469 H   0  0  0  0  0  0  0  0  0  0  0  0
    6.3760   -6.1438   27.6724 H   0  0  0  0  0  0  0  0  0  0  0  0
    7.6307   -4.0424   27.6403 H   0  0  0  0  0  0  0  0  0  0  0  0
    8.3915   -5.1310   28.7968 H   0  0  0  0  0  0  0  0  0  0  0  0
    6.6888   -6.9376   25.3010 H   0  0  0  0  0  0  0  0  0  0  0  0
    6.5515   -5.1859   25.4257 H   0  0  0  0  0  0  0  0  0  0  0  0
   10.0492   -3.9640   27.3414 H   0  0  0  0  0  0  0  0  0  0  0  0
   10.1431   -5.7254   27.1778 H   0  0  0  0  0  0  0  0  0  0  0  0
    9.1338   -6.7931   25.0868 H   0  0  0  0  0  0  0  0  0  0  0  0
    8.3656   -5.7264   23.8998 H   0  0  0  0  0  0  0  0  0  0  0  0
    9.3974    1.2912   24.5523 H   0  0  0  0  0  0  0  0  0  0  0  0
    9.5159    2.2168   23.0554 H   0  0  0  0  0  0  0  0  0  0  0  0
    7.5972   -1.2056   21.6500 H   0  0  0  0  0  0  0  0  0  0  0  0
    8.8612   -1.4622   20.4334 H   0  0  0  0  0  0  0  0  0  0  0  0
    8.3933   -0.7388   18.1198 H   0  0  0  0  0  0  0  0  0  0  0  0
  1  2  1  0  0  0  0
  1  4  2  0  0  0  0
  2  6  2  0  0  0  0
  3  5  2  0  0  0  0
  3 11  1  0  0  0  0
  4 13  1  0  0  0  0
  5 14  1  0  0  0  0
  6 15  1  0  0  0  0
  7  9  2  0  0  0  0
  7 16  1  0  0  0  0
  8 10  1  0  0  0  0
  8 16  2  0  0  0  0
  9 17  1  0  0  0  0
 10 17  2  0  0  0  0
 11 18  2  0  0  0  0
 12 14  2  0  0  0  0
 12 18  1  0  0  0  0
 13 15  1  0  0  0  0
 13 19  2  0  0  0  0
 14 26  1  0  0  0  0
 15 28  2  0  0  0  0
 16 30  1  0  0  0  0
 17 31  1  0  0  0  0
 18 33  1  0  0  0  0
 19 27  1  0  0  0  0
 19 29  1  0  0  0  0
 20 27  1  0  0  0  0
 20 31  1  0  0  0  0
 20 32  2  0  0  0  0
 21 22  1  0  0  0  0
 21 23  1  0  0  0  0
 22 24  1  0  0  0  0
 23 25  1  0  0  0  0
 24 30  1  0  0  0  0
 25 30  1  0  0  0  0
 26 31  1  0  0  0  0
 28 29  1  0  0  0  0
  1 34  1  0  0  0  0
  2 35  1  0  0  0  0
  3 36  1  0  0  0  0
  4 37  1  0  0  0  0
  5 38  1  0  0  0  0
  6 39  1  0  0  0  0
  7 40  1  0  0  0  0
  8 41  1  0  0  0  0
  9 42  1  0  0  0  0
 10 43  1  0  0  0  0
 11 44  1  0  0  0  0
 12 45  1  0  0  0  0
 21 46  1  0  0  0  0
 21 47  1  0  0  0  0
 22 48  1  0  0  0  0
 22 49  1  0  0  0  0
 23 50  1  0  0  0  0
 23 51  1  0  0  0  0
 24 52  1  0  0  0  0
 24 53  1  0  0  0  0
 25 54  1  0  0  0  0
 25 55  1  0  0  0  0
 26 56  1  0  0  0  0
 26 57  1  0  0  0  0
 27 58  1  0  0  0  0
 27 59  1  0  0  0  0
 29 60  1  0  0  0  0
M  END
> <clash_score>
0

> <docking_score>
-7.9196858406066895

> <overlap_score>
1.0042747259140015

$$$$
BENZO_407_1
  -OEChem-08222022203D

 48 51  0     0  0  0  0  0  0999 V2000
    4.2750    1.7050   20.8490 C   0  0  0  0  0  0  0  0  0  0  0  0
    3.9160    2.0630   19.5520 C   0  0  0  0  0  0  0  0  0  0  0  0
    5.4210    0.9600   21.0930 C   0  0  0  0  0  0  0  0  0  0  0  0
    8.9960   -2.3380   25.5320 C   0  0  0  0  0  0  0  0  0  0  0  0
    9.6730   -3.4710   23.5300 C   0  0  0  0  0  0  0  0  0  0  0  0
    4.6890    1.6810   18.4640 C   0  0  0  0  0  0  0  0  0  0  0  0
    9.0720   -1.1280   24.8640 C   0  0  0  0  0  0  0  0  0  0  0  0
    9.7200   -2.2600   22.8630 C   0  0  0  0  0  0  0  0  0  0  0  0
   12.2914    2.2071   23.0512 C   0  0  0  0  0  0  0  0  0  0  0  0
   12.1614    0.6214   24.5689 C   0  0  0  0  0  0  0  0  0  0  0  0
    6.1790    0.5730   19.9990 C   0  0  0  0  0  0  0  0  0  0  0  0
    9.3070   -3.5340   24.8780 C   0  0  0  0  0  0  0  0  0  0  0  0
   11.3794    1.3761   23.7290 C   0  0  0  0  0  0  0  0  0  0  0  0
    5.8300    0.9190   18.6970 C   0  0  0  0  0  0  0  0  0  0  0  0
    9.3350   -1.0880   23.5010 C   0  0  0  0  0  0  0  0  0  0  0  0
    7.3170   -0.1610   19.8550 C   0  0  0  0  0  0  0  0  0  0  0  0
    9.0420    0.3700   21.5280 C   0  0  0  0  0  0  0  0  0  0  0  0
    9.2505   -4.8264   25.5904 C   0  0  0  0  0  0  0  0  0  0  0  0
   14.6267    0.5248   25.0067 C   0  0  0  0  0  0  0  0  0  0  0  0
    9.8870    1.3260   23.5730 C   0  0  0  0  0  0  0  0  0  0  0  0
    8.1890   -0.7180   20.8700 C   0  0  0  0  0  0  0  0  0  0  0  0
   13.5560    2.0002   23.4280 N   0  0  0  0  0  0  0  0  0  0  0  0
    6.7580    0.3810   17.8350 N   0  0  0  0  0  0  0  0  0  0  0  0
    7.6390   -0.2680   18.5410 N   0  0  0  0  0  0  0  0  0  0  0  0
   13.4442    1.0306   24.3518 N   0  0  0  0  0  0  0  0  0  0  0  0
    9.4560    0.1560   22.8130 N   0  0  0  0  0  0  0  0  0  0  0  0
    9.2690    1.4140   20.9380 O   0  0  0  0  0  0  0  0  0  0  0  0
    3.6562    2.0083   21.6780 H   0  0  0  0  0  0  0  0  0  0  0  0
    3.0225    2.6465   19.3867 H   0  0  0  0  0  0  0  0  0  0  0  0
    5.7084    0.6884   22.1515 H   0  0  0  0  0  0  0  0  0  0  0  0
    8.6919   -2.3557   26.5813 H   0  0  0  0  0  0  0  0  0  0  0  0
    9.9267   -4.3907   22.9939 H   0  0  0  0  0  0  0  0  0  0  0  0
    4.3943    1.9831   17.4240 H   0  0  0  0  0  0  0  0  0  0  0  0
    8.9217   -0.1995   25.4231 H   0  0  0  0  0  0  0  0  0  0  0  0
   10.0653   -2.2339   21.8256 H   0  0  0  0  0  0  0  0  0  0  0  0
   12.0895    2.9562   22.2987 H   0  0  0  0  0  0  0  0  0  0  0  0
   11.9201   -0.1518   25.2857 H   0  0  0  0  0  0  0  0  0  0  0  0
    8.2503   -5.2678   25.5020 H   0  0  0  0  0  0  0  0  0  0  0  0
    9.9817   -5.5374   25.1845 H   0  0  0  0  0  0  0  0  0  0  0  0
    9.4841   -4.7043   26.6562 H   0  0  0  0  0  0  0  0  0  0  0  0
   15.0068   -0.3132   24.4165 H   0  0  0  0  0  0  0  0  0  0  0  0
   15.3758    1.3189   25.0699 H   0  0  0  0  0  0  0  0  0  0  0  0
   14.3675    0.1958   26.0170 H   0  0  0  0  0  0  0  0  0  0  0  0
    9.3974    1.2912   24.5523 H   0  0  0  0  0  0  0  0  0  0  0  0
    9.5159    2.2168   23.0553 H   0  0  0  0  0  0  0  0  0  0  0  0
    7.6090   -1.2088   21.6628 H   0  0  0  0  0  0  0  0  0  0  0  0
    8.8730   -1.4654   20.4463 H   0  0  0  0  0  0  0  0  0  0  0  0
    8.3933   -0.7388   18.1198 H   0  0  0  0  0  0  0  0  0  0  0  0
  1  2  1  0  0  0  0
  1  3  2  0  0  0  0
  2  6  2  0  0  0  0
  3 11  1  0  0  0  0
  4  7  2  0  0  0  0
  4 12  1  0  0  0  0
  5  8  1  0  0  0  0
  5 12  2  0  0  0  0
  6 14  1  0  0  0  0
  7 15  1  0  0  0  0
  8 15  2  0  0  0  0
  9 13  1  0  0  0  0
  9 22  2  0  0  0  0
 10 13  2  0  0  0  0
 10 25  1  0  0  0  0
 11 14  1  0  0  0  0
 11 16  2  0  0  0  0
 12 18  1  0  0  0  0
 13 20  1  0  0  0  0
 14 23  2  0  0  0  0
 15 26  1  0  0  0  0
 16 21  1  0  0  0  0
 16 24  1  0  0  0  0
 17 21  1  0  0  0  0
 17 26  1  0  0  0  0
 17 27  2  0  0  0  0
 19 25  1  0  0  0  0
 20 26  1  0  0  0  0
 22 25  1  0  0  0  0
 23 24  1  0  0  0  0
  1 28  1  0  0  0  0
  2 29  1  0  0  0  0
  3 30  1  0  0  0  0
  4 31  1  0  0  0  0
  5 32  1  0  0  0  0
  6 33  1  0  0  0  0
  7 34  1  0  0  0  0
  8 35  1  0  0  0  0
  9 36  1  0  0  0  0
 10 37  1  0  0  0  0
 18 38  1  0  0  0  0
 18 39  1  0  0  0  0
 18 40  1  0  0  0  0
 19 41  1  0  0  0  0
 19 42  1  0  0  0  0
 19 43  1  0  0  0  0
 20 44  1  0  0  0  0
 20 45  1  0  0  0  0
 21 46  1  0  0  0  0
 21 47  1  0  0  0  0
 24 48  1  0  0  0  0
M  END
> <clash_score>
0.6199418140755908

> <docking_score>
-8.710881233215332

> <overlap_score>
0.9382387399673462

$$$$
BENZO_406_1
  -OEChem-08222022203D

 48 51  0     0  0  0  0  0  0999 V2000
    4.2750    1.7050   20.8490 C   0  0  0  0  0  0  0  0  0  0  0  0
    3.9160    2.0630   19.5520 C   0  0  0  0  0  0  0  0  0  0  0  0
   13.4007    0.5725   24.7805 C   0  0  0  0  0  0  0  0  0  0  0  0
    5.4210    0.9600   21.0930 C   0  0  0  0  0  0  0  0  0  0  0  0
   12.0141    0.5273   24.6359 C   0  0  0  0  0  0  0  0  0  0  0  0
    8.9960   -2.3380   25.5320 C   0  0  0  0  0  0  0  0  0  0  0  0
    9.6730   -3.4710   23.5300 C   0  0  0  0  0  0  0  0  0  0  0  0
    4.6890    1.6810   18.4640 C   0  0  0  0  0  0  0  0  0  0  0  0
    9.0720   -1.1280   24.8640 C   0  0  0  0  0  0  0  0  0  0  0  0
    9.7200   -2.2600   22.8630 C   0  0  0  0  0  0  0  0  0  0  0  0
   14.1526    1.4666   24.0184 C   0  0  0  0  0  0  0  0  0  0  0  0
   12.1314    2.2702   22.9668 C   0  0  0  0  0  0  0  0  0  0  0  0
    6.1790    0.5730   19.9990 C   0  0  0  0  0  0  0  0  0  0  0  0
    9.3070   -3.5340   24.8780 C   0  0  0  0  0  0  0  0  0  0  0  0
   11.3794    1.3761   23.7290 C   0  0  0  0  0  0  0  0  0  0  0  0
    5.8300    0.9190   18.6970 C   0  0  0  0  0  0  0  0  0  0  0  0
    9.3350   -1.0880   23.5010 C   0  0  0  0  0  0  0  0  0  0  0  0
   13.5180    2.3154   23.1115 C   0  0  0  0  0  0  0  0  0  0  0  0
    7.3170   -0.1610   19.8550 C   0  0  0  0  0  0  0  0  0  0  0  0
    9.0420    0.3700   21.5280 C   0  0  0  0  0  0  0  0  0  0  0  0
    9.2505   -4.8264   25.5904 C   0  0  0  0  0  0  0  0  0  0  0  0
    9.8870    1.3260   23.5730 C   0  0  0  0  0  0  0  0  0  0  0  0
    8.1890   -0.7180   20.8700 C   0  0  0  0  0  0  0  0  0  0  0  0
    6.7580    0.3810   17.8350 N   0  0  0  0  0  0  0  0  0  0  0  0
    7.6390   -0.2680   18.5410 N   0  0  0  0  0  0  0  0  0  0  0  0
    9.4560    0.1560   22.8130 N   0  0  0  0  0  0  0  0  0  0  0  0
    9.2690    1.4140   20.9380 O   0  0  0  0  0  0  0  0  0  0  0  0
   14.4463    3.4175   22.1707 Cl  0  0  0  0  0  0  0  0  0  0  0  0
    3.6562    2.0083   21.6780 H   0  0  0  0  0  0  0  0  0  0  0  0
    3.0225    2.6465   19.3867 H   0  0  0  0  0  0  0  0  0  0  0  0
   13.8945   -0.0888   25.4867 H   0  0  0  0  0  0  0  0  0  0  0  0
    5.7084    0.6884   22.1515 H   0  0  0  0  0  0  0  0  0  0  0  0
   11.4361   -0.1726   25.2338 H   0  0  0  0  0  0  0  0  0  0  0  0
    8.6919   -2.3557   26.5813 H   0  0  0  0  0  0  0  0  0  0  0  0
    9.9267   -4.3907   22.9939 H   0  0  0  0  0  0  0  0  0  0  0  0
    4.3943    1.9831   17.4240 H   0  0  0  0  0  0  0  0  0  0  0  0
    8.9217   -0.1995   25.4231 H   0  0  0  0  0  0  0  0  0  0  0  0
   10.0653   -2.2339   21.8256 H   0  0  0  0  0  0  0  0  0  0  0  0
   15.2326    1.4907   24.1414 H   0  0  0  0  0  0  0  0  0  0  0  0
   11.6317    2.9303   22.2615 H   0  0  0  0  0  0  0  0  0  0  0  0
    8.2503   -5.2678   25.5020 H   0  0  0  0  0  0  0  0  0  0  0  0
    9.9817   -5.5374   25.1845 H   0  0  0  0  0  0  0  0  0  0  0  0
    9.4841   -4.7043   26.6562 H   0  0  0  0  0  0  0  0  0  0  0  0
    9.3974    1.2912   24.5523 H   0  0  0  0  0  0  0  0  0  0  0  0
    9.5159    2.2168   23.0553 H   0  0  0  0  0  0  0  0  0  0  0  0
    7.6090   -1.2088   21.6628 H   0  0  0  0  0  0  0  0  0  0  0  0
    8.8730   -1.4654   20.4463 H   0  0  0  0  0  0  0  0  0  0  0  0
    8.3933   -0.7388   18.1198 H   0  0  0  0  0  0  0  0  0  0  0  0
  1  2  1  0  0  0  0
  1  4  2  0  0  0  0
  2  8  2  0  0  0  0
  3  5  2  0  0  0  0
  3 11  1  0  0  0  0
  4 13  1  0  0  0  0
  5 15  1  0  0  0  0
  6  9  2  0  0  0  0
  6 14  1  0  0  0  0
  7 10  1  0  0  0  0
  7 14  2  0  0  0  0
  8 16  1  0  0  0  0
  9 17  1  0  0  0  0
 10 17  2  0  0  0  0
 11 18  2  0  0  0  0
 12 15  2  0  0  0  0
 12 18  1  0  0  0  0
 13 16  1  0  0  0  0
 13 19  2  0  0  0  0
 14 21  1  0  0  0  0
 15 22  1  0  0  0  0
 16 24  2  0  0  0  0
 17 26  1  0  0  0  0
 18 28  1  0  0  0  0
 19 23  1  0  0  0  0
 19 25  1  0  0  0  0
 20 23  1  0  0  0  0
 20 26  1  0  0  0  0
 20 27  2  0  0  0  0
 22 26  1  0  0  0  0
 24 25  1  0  0  0  0
  1 29  1  0  0  0  0
  2 30  1  0  0  0  0
  3 31  1  0  0  0  0
  4 32  1  0  0  0  0
  5 33  1  0  0  0  0
  6 34  1  0  0  0  0
  7 35  1  0  0  0  0
  8 36  1  0  0  0  0
  9 37  1  0  0  0  0
 10 38  1  0  0  0  0
 11 39  1  0  0  0  0
 12 40  1  0  0  0  0
 21 41  1  0  0  0  0
 21 42  1  0  0  0  0
 21 43  1  0  0  0  0
 22 44  1  0  0  0  0
 22 45  1  0  0  0  0
 23 46  1  0  0  0  0
 23 47  1  0  0  0  0
 25 48  1  0  0  0  0
M  END
> <clash_score>
0

> <docking_score>
-8.164715766906738

> <overlap_score>
0.9507186412811279

$$$$
BENZO_409_1
  -OEChem-08222022203D

 49 52  0     0  0  0  0  0  0999 V2000
   14.1526    1.4694   24.0176 C   0  0  0  0  0  0  0  0  0  0  0  0
    4.2750    1.7050   20.8490 C   0  0  0  0  0  0  0  0  0  0  0  0
   13.3741    0.8121   24.9701 C   0  0  0  0  0  0  0  0  0  0  0  0
   13.5446    2.0802   22.9208 C   0  0  0  0  0  0  0  0  0  0  0  0
    3.9160    2.0630   19.5520 C   0  0  0  0  0  0  0  0  0  0  0  0
    5.4210    0.9600   21.0930 C   0  0  0  0  0  0  0  0  0  0  0  0
   11.9875    0.7654   24.8258 C   0  0  0  0  0  0  0  0  0  0  0  0
   12.1580    2.0335   22.7765 C   0  0  0  0  0  0  0  0  0  0  0  0
    4.6890    1.6810   18.4640 C   0  0  0  0  0  0  0  0  0  0  0  0
    9.0720   -1.1280   24.8640 C   0  0  0  0  0  0  0  0  0  0  0  0
    9.7200   -2.2600   22.8630 C   0  0  0  0  0  0  0  0  0  0  0  0
    8.9960   -2.3380   25.5320 C   0  0  0  0  0  0  0  0  0  0  0  0
    9.6730   -3.4710   23.5300 C   0  0  0  0  0  0  0  0  0  0  0  0
    6.1790    0.5730   19.9990 C   0  0  0  0  0  0  0  0  0  0  0  0
   11.3794    1.3761   23.7290 C   0  0  0  0  0  0  0  0  0  0  0  0
    5.8300    0.9190   18.6970 C   0  0  0  0  0  0  0  0  0  0  0  0
    9.3350   -1.0880   23.5010 C   0  0  0  0  0  0  0  0  0  0  0  0
    9.3070   -3.5340   24.8780 C   0  0  0  0  0  0  0  0  0  0  0  0
    7.3170   -0.1610   19.8550 C   0  0  0  0  0  0  0  0  0  0  0  0
    9.0420    0.3700   21.5280 C   0  0  0  0  0  0  0  0  0  0  0  0
    9.5894   -5.8809   24.7798 C   0  0  0  0  0  0  0  0  0  0  0  0
    9.8870    1.3260   23.5730 C   0  0  0  0  0  0  0  0  0  0  0  0
    8.1890   -0.7180   20.8700 C   0  0  0  0  0  0  0  0  0  0  0  0
    6.7580    0.3810   17.8350 N   0  0  0  0  0  0  0  0  0  0  0  0
    7.6390   -0.2680   18.5410 N   0  0  0  0  0  0  0  0  0  0  0  0
    9.4560    0.1560   22.8130 N   0  0  0  0  0  0  0  0  0  0  0  0
    9.2690    1.4140   20.9380 O   0  0  0  0  0  0  0  0  0  0  0  0
    9.2555   -4.7124   25.5274 O   0  0  0  0  0  0  0  0  0  0  0  0
   15.2322    1.5068   24.1308 H   0  0  0  0  0  0  0  0  0  0  0  0
    3.6562    2.0083   21.6780 H   0  0  0  0  0  0  0  0  0  0  0  0
   13.8473    0.3374   25.8248 H   0  0  0  0  0  0  0  0  0  0  0  0
   14.1503    2.5930   22.1795 H   0  0  0  0  0  0  0  0  0  0  0  0
    3.0225    2.6465   19.3867 H   0  0  0  0  0  0  0  0  0  0  0  0
    5.7084    0.6884   22.1515 H   0  0  0  0  0  0  0  0  0  0  0  0
   11.3889    0.2508   25.5729 H   0  0  0  0  0  0  0  0  0  0  0  0
   11.6930    2.5120   21.9187 H   0  0  0  0  0  0  0  0  0  0  0  0
    4.3943    1.9831   17.4240 H   0  0  0  0  0  0  0  0  0  0  0  0
    8.9221   -0.1995   25.4231 H   0  0  0  0  0  0  0  0  0  0  0  0
   10.0642   -2.2347   21.8253 H   0  0  0  0  0  0  0  0  0  0  0  0
    8.6902   -2.3588   26.5805 H   0  0  0  0  0  0  0  0  0  0  0  0
    9.9254   -4.3921   22.9961 H   0  0  0  0  0  0  0  0  0  0  0  0
    9.5074   -6.7611   25.4222 H   0  0  0  0  0  0  0  0  0  0  0  0
   10.6088   -5.7902   24.3963 H   0  0  0  0  0  0  0  0  0  0  0  0
    8.8944   -5.9778   23.9424 H   0  0  0  0  0  0  0  0  0  0  0  0
    9.3974    1.2912   24.5523 H   0  0  0  0  0  0  0  0  0  0  0  0
    9.5159    2.2168   23.0553 H   0  0  0  0  0  0  0  0  0  0  0  0
    7.6090   -1.2088   21.6628 H   0  0  0  0  0  0  0  0  0  0  0  0
    8.8730   -1.4654   20.4463 H   0  0  0  0  0  0  0  0  0  0  0  0
    8.3933   -0.7388   18.1198 H   0  0  0  0  0  0  0  0  0  0  0  0
  1  3  1  0  0  0  0
  1  4  2  0  0  0  0
  2  5  1  0  0  0  0
  2  6  2  0  0  0  0
  3  7  2  0  0  0  0
  4  8  1  0  0  0  0
  5  9  2  0  0  0  0
  6 14  1  0  0  0  0
  7 15  1  0  0  0  0
  8 15  2  0  0  0  0
  9 16  1  0  0  0  0
 10 12  2  0  0  0  0
 10 17  1  0  0  0  0
 11 13  1  0  0  0  0
 11 17  2  0  0  0  0
 12 18  1  0  0  0  0
 13 18  2  0  0  0  0
 14 16  1  0  0  0  0
 14 19  2  0  0  0  0
 15 22  1  0  0  0  0
 16 24  2  0  0  0  0
 17 26  1  0  0  0  0
 18 28  1  0  0  0  0
 19 23  1  0  0  0  0
 19 25  1  0  0  0  0
 20 23  1  0  0  0  0
 20 26  1  0  0  0  0
 20 27  2  0  0  0  0
 21 28  1  0  0  0  0
 22 26  1  0  0  0  0
 24 25  1  0  0  0  0
  1 29  1  0  0  0  0
  2 30  1  0  0  0  0
  3 31  1  0  0  0  0
  4 32  1  0  0  0  0
  5 33  1  0  0  0  0
  6 34  1  0  0  0  0
  7 35  1  0  0  0  0
  8 36  1  0  0  0  0
  9 37  1  0  0  0  0
 10 38  1  0  0  0  0
 11 39  1  0  0  0  0
 12 40  1  0  0  0  0
 13 41  1  0  0  0  0
 21 42  1  0  0  0  0
 21 43  1  0  0  0  0
 21 44  1  0  0  0  0
 22 45  1  0  0  0  0
 22 46  1  0  0  0  0
 23 47  1  0  0  0  0
 23 48  1  0  0  0  0
 25 49  1  0  0  0  0
M  END
> <clash_score>
0

> <docking_score>
-8.733843803405762

> <overlap_score>
0.96425461769104

$$$$
BENZO_408_1
  -OEChem-08222022203D

 46 49  0     0  0  0  0  0  0999 V2000
    4.2750    1.7050   20.8490 C   0  0  0  0  0  0  0  0  0  0  0  0
    3.9160    2.0630   19.5520 C   0  0  0  0  0  0  0  0  0  0  0  0
    5.4210    0.9600   21.0930 C   0  0  0  0  0  0  0  0  0  0  0  0
    4.6890    1.6810   18.4640 C   0  0  0  0  0  0  0  0  0  0  0  0
    9.0720   -1.1280   24.8640 C   0  0  0  0  0  0  0  0  0  0  0  0
    9.7200   -2.2600   22.8630 C   0  0  0  0  0  0  0  0  0  0  0  0
    8.9960   -2.3380   25.5320 C   0  0  0  0  0  0  0  0  0  0  0  0
    9.6730   -3.4710   23.5300 C   0  0  0  0  0  0  0  0  0  0  0  0
   12.2111    0.2208   23.7905 C   0  0  0  0  0  0  0  0  0  0  0  0
   13.5412    0.5479   23.9364 C   0  0  0  0  0  0  0  0  0  0  0  0
   12.1057    2.5424   23.8305 C   0  0  0  0  0  0  0  0  0  0  0  0
    6.1790    0.5730   19.9990 C   0  0  0  0  0  0  0  0  0  0  0  0
   11.3794    1.3761   23.7290 C   0  0  0  0  0  0  0  0  0  0  0  0
    5.8300    0.9190   18.6970 C   0  0  0  0  0  0  0  0  0  0  0  0
    9.3350   -1.0880   23.5010 C   0  0  0  0  0  0  0  0  0  0  0  0
    9.3070   -3.5340   24.8780 C   0  0  0  0  0  0  0  0  0  0  0  0
    7.3170   -0.1610   19.8550 C   0  0  0  0  0  0  0  0  0  0  0  0
    9.0420    0.3700   21.5280 C   0  0  0  0  0  0  0  0  0  0  0  0
    9.5894   -5.8809   24.7798 C   0  0  0  0  0  0  0  0  0  0  0  0
    9.8870    1.3260   23.5730 C   0  0  0  0  0  0  0  0  0  0  0  0
    8.1890   -0.7180   20.8700 C   0  0  0  0  0  0  0  0  0  0  0  0
    6.7580    0.3810   17.8350 N   0  0  0  0  0  0  0  0  0  0  0  0
    7.6390   -0.2680   18.5410 N   0  0  0  0  0  0  0  0  0  0  0  0
    9.4560    0.1560   22.8130 N   0  0  0  0  0  0  0  0  0  0  0  0
    9.2690    1.4140   20.9380 O   0  0  0  0  0  0  0  0  0  0  0  0
    9.2555   -4.7124   25.5274 O   0  0  0  0  0  0  0  0  0  0  0  0
   13.7831    2.2420   23.9988 S   0  0  0  0  0  0  0  0  0  0  0  0
    3.6562    2.0083   21.6780 H   0  0  0  0  0  0  0  0  0  0  0  0
    3.0225    2.6465   19.3867 H   0  0  0  0  0  0  0  0  0  0  0  0
    5.7084    0.6884   22.1515 H   0  0  0  0  0  0  0  0  0  0  0  0
    4.3943    1.9831   17.4240 H   0  0  0  0  0  0  0  0  0  0  0  0
    8.9221   -0.1995   25.4231 H   0  0  0  0  0  0  0  0  0  0  0  0
   10.0642   -2.2347   21.8253 H   0  0  0  0  0  0  0  0  0  0  0  0
    8.6902   -2.3588   26.5805 H   0  0  0  0  0  0  0  0  0  0  0  0
    9.9254   -4.3921   22.9961 H   0  0  0  0  0  0  0  0  0  0  0  0
   11.8558   -0.8003   23.7315 H   0  0  0  0  0  0  0  0  0  0  0  0
   14.3824   -0.1267   24.0100 H   0  0  0  0  0  0  0  0  0  0  0  0
   11.7354    3.5581   23.8155 H   0  0  0  0  0  0  0  0  0  0  0  0
    9.5074   -6.7611   25.4222 H   0  0  0  0  0  0  0  0  0  0  0  0
   10.6088   -5.7902   24.3963 H   0  0  0  0  0  0  0  0  0  0  0  0
    8.8944   -5.9778   23.9424 H   0  0  0  0  0  0  0  0  0  0  0  0
    9.3974    1.2912   24.5523 H   0  0  0  0  0  0  0  0  0  0  0  0
    9.5159    2.2168   23.0553 H   0  0  0  0  0  0  0  0  0  0  0  0
    7.6090   -1.2088   21.6628 H   0  0  0  0  0  0  0  0  0  0  0  0
    8.8730   -1.4654   20.4463 H   0  0  0  0  0  0  0  0  0  0  0  0
    8.3933   -0.7388   18.1198 H   0  0  0  0  0  0  0  0  0  0  0  0
  1  2  1  0  0  0  0
  1  3  2  0  0  0  0
  2  4  2  0  0  0  0
  3 12  1  0  0  0  0
  4 14  1  0  0  0  0
  5  7  2  0  0  0  0
  5 15  1  0  0  0  0
  6  8  1  0  0  0  0
  6 15  2  0  0  0  0
  7 16  1  0  0  0  0
  8 16  2  0  0  0  0
  9 10  2  0  0  0  0
  9 13  1  0  0  0  0
 10 27  1  0  0  0  0
 11 13  2  0  0  0  0
 11 27  1  0  0  0  0
 12 14  1  0  0  0  0
 12 17  2  0  0  0  0
 13 20  1  0  0  0  0
 14 22  2  0  0  0  0
 15 24  1  0  0  0  0
 16 26  1  0  0  0  0
 17 21  1  0  0  0  0
 17 23  1  0  0  0  0
 18 21  1  0  0  0  0
 18 24  1  0  0  0  0
 18 25  2  0  0  0  0
 19 26  1  0  0  0  0
 20 24  1  0  0  0  0
 22 23  1  0  0  0  0
  1 28  1  0  0  0  0
  2 29  1  0  0  0  0
  3 30  1  0  0  0  0
  4 31  1  0  0  0  0
  5 32  1  0  0  0  0
  6 33  1  0  0  0  0
  7 34  1  0  0  0  0
  8 35  1  0  0  0  0
  9 36  1  0  0  0  0
 10 37  1  0  0  0  0
 11 38  1  0  0  0  0
 19 39  1  0  0  0  0
 19 40  1  0  0  0  0
 19 41  1  0  0  0  0
 20 42  1  0  0  0  0
 20 43  1  0  0  0  0
 21 44  1  0  0  0  0
 21 45  1  0  0  0  0
 23 46  1  0  0  0  0
M  END
> <clash_score>
0

> <docking_score>
-8.00701904296875

> <overlap_score>
0.9491583108901978

$$$$
BENZO_411_1
  -OEChem-08222022203D

 49 52  0     0  0  0  0  0  0999 V2000
    4.2750    1.7050   20.8490 C   0  0  0  0  0  0  0  0  0  0  0  0
    3.9160    2.0630   19.5520 C   0  0  0  0  0  0  0  0  0  0  0  0
    5.4210    0.9600   21.0930 C   0  0  0  0  0  0  0  0  0  0  0  0
    4.6890    1.6810   18.4640 C   0  0  0  0  0  0  0  0  0  0  0  0
    9.0720   -1.1280   24.8640 C   0  0  0  0  0  0  0  0  0  0  0  0
    9.7200   -2.2600   22.8630 C   0  0  0  0  0  0  0  0  0  0  0  0
    8.9960   -2.3380   25.5320 C   0  0  0  0  0  0  0  0  0  0  0  0
    9.6730   -3.4710   23.5300 C   0  0  0  0  0  0  0  0  0  0  0  0
   12.2914    2.2071   23.0512 C   0  0  0  0  0  0  0  0  0  0  0  0
   12.1614    0.6214   24.5689 C   0  0  0  0  0  0  0  0  0  0  0  0
    6.1790    0.5730   19.9990 C   0  0  0  0  0  0  0  0  0  0  0  0
   11.3794    1.3761   23.7290 C   0  0  0  0  0  0  0  0  0  0  0  0
    5.8300    0.9190   18.6970 C   0  0  0  0  0  0  0  0  0  0  0  0
    9.3350   -1.0880   23.5010 C   0  0  0  0  0  0  0  0  0  0  0  0
    9.3070   -3.5340   24.8780 C   0  0  0  0  0  0  0  0  0  0  0  0
    7.3170   -0.1610   19.8550 C   0  0  0  0  0  0  0  0  0  0  0  0
    9.0420    0.3700   21.5280 C   0  0  0  0  0  0  0  0  0  0  0  0
   14.6267    0.5248   25.0067 C   0  0  0  0  0  0  0  0  0  0  0  0
    8.8720   -4.6805   26.9013 C   0  0  0  0  0  0  0  0  0  0  0  0
    9.8870    1.3260   23.5730 C   0  0  0  0  0  0  0  0  0  0  0  0
    8.1890   -0.7180   20.8700 C   0  0  0  0  0  0  0  0  0  0  0  0
   13.5560    2.0002   23.4280 N   0  0  0  0  0  0  0  0  0  0  0  0
    6.7580    0.3810   17.8350 N   0  0  0  0  0  0  0  0  0  0  0  0
    7.6390   -0.2680   18.5410 N   0  0  0  0  0  0  0  0  0  0  0  0
   13.4442    1.0306   24.3518 N   0  0  0  0  0  0  0  0  0  0  0  0
    9.4560    0.1560   22.8130 N   0  0  0  0  0  0  0  0  0  0  0  0
    9.2690    1.4140   20.9380 O   0  0  0  0  0  0  0  0  0  0  0  0
    9.2555   -4.7124   25.5274 O   0  0  0  0  0  0  0  0  0  0  0  0
    3.6562    2.0083   21.6780 H   0  0  0  0  0  0  0  0  0  0  0  0
    3.0225    2.6465   19.3867 H   0  0  0  0  0  0  0  0  0  0  0  0
    5.7084    0.6884   22.1515 H   0  0  0  0  0  0  0  0  0  0  0  0
    4.3943    1.9831   17.4240 H   0  0  0  0  0  0  0  0  0  0  0  0
    8.9221   -0.1995   25.4231 H   0  0  0  0  0  0  0  0  0  0  0  0
   10.0642   -2.2347   21.8253 H   0  0  0  0  0  0  0  0  0  0  0  0
    8.6902   -2.3588   26.5805 H   0  0  0  0  0  0  0  0  0  0  0  0
    9.9254   -4.3921   22.9961 H   0  0  0  0  0  0  0  0  0  0  0  0
   12.0895    2.9562   22.2987 H   0  0  0  0  0  0  0  0  0  0  0  0
   11.9201   -0.1518   25.2857 H   0  0  0  0  0  0  0  0  0  0  0  0
   15.0068   -0.3132   24.4165 H   0  0  0  0  0  0  0  0  0  0  0  0
   15.3758    1.3189   25.0699 H   0  0  0  0  0  0  0  0  0  0  0  0
   14.3675    0.1958   26.0170 H   0  0  0  0  0  0  0  0  0  0  0  0
    8.8711   -5.6964   27.3038 H   0  0  0  0  0  0  0  0  0  0  0  0
    7.8758   -4.2402   26.9923 H   0  0  0  0  0  0  0  0  0  0  0  0
    9.5894   -4.0716   27.4566 H   0  0  0  0  0  0  0  0  0  0  0  0
    9.3974    1.2912   24.5523 H   0  0  0  0  0  0  0  0  0  0  0  0
    9.5159    2.2168   23.0553 H   0  0  0  0  0  0  0  0  0  0  0  0
    7.6090   -1.2088   21.6628 H   0  0  0  0  0  0  0  0  0  0  0  0
    8.8730   -1.4654   20.4463 H   0  0  0  0  0  0  0  0  0  0  0  0
    8.3933   -0.7388   18.1198 H   0  0  0  0  0  0  0  0  0  0  0  0
  1  2  1  0  0  0  0
  1  3  2  0  0  0  0
  2  4  2  0  0  0  0
  3 11  1  0  0  0  0
  4 13  1  0  0  0  0
  5  7  2  0  0  0  0
  5 14  1  0  0  0  0
  6  8  1  0  0  0  0
  6 14  2  0  0  0  0
  7 15  1  0  0  0  0
  8 15  2  0  0  0  0
  9 12  1  0  0  0  0
  9 22  2  0  0  0  0
 10 12  2  0  0  0  0
 10 25  1  0  0  0  0
 11 13  1  0  0  0  0
 11 16  2  0  0  0  0
 12 20  1  0  0  0  0
 13 23  2  0  0  0  0
 14 26  1  0  0  0  0
 15 28  1  0  0  0  0
 16 21  1  0  0  0  0
 16 24  1  0  0  0  0
 17 21  1  0  0  0  0
 17 26  1  0  0  0  0
 17 27  2  0  0  0  0
 18 25  1  0  0  0  0
 19 28  1  0  0  0  0
 20 26  1  0  0  0  0
 22 25  1  0  0  0  0
 23 24  1  0  0  0  0
  1 29  1  0  0  0  0
  2 30  1  0  0  0  0
  3 31  1  0  0  0  0
  4 32  1  0  0  0  0
  5 33  1  0  0  0  0
  6 34  1  0  0  0  0
  7 35  1  0  0  0  0
  8 36  1  0  0  0  0
  9 37  1  0  0  0  0
 10 38  1  0  0  0  0
 18 39  1  0  0  0  0
 18 40  1  0  0  0  0
 18 41  1  0  0  0  0
 19 42  1  0  0  0  0
 19 43  1  0  0  0  0
 19 44  1  0  0  0  0
 20 45  1  0  0  0  0
 20 46  1  0  0  0  0
 21 47  1  0  0  0  0
 21 48  1  0  0  0  0
 24 49  1  0  0  0  0
M  END
> <clash_score>
0.6199418140755908

> <docking_score>
-8.447183609008789

> <overlap_score>
0.9605906009674072

$$$$
BENZO_410_1
  -OEChem-08222022203D

 49 52  0     0  0  0  0  0  0999 V2000
    4.2750    1.7050   20.8490 C   0  0  0  0  0  0  0  0  0  0  0  0
    3.9160    2.0630   19.5520 C   0  0  0  0  0  0  0  0  0  0  0  0
   13.4007    0.5725   24.7805 C   0  0  0  0  0  0  0  0  0  0  0  0
    5.4210    0.9600   21.0930 C   0  0  0  0  0  0  0  0  0  0  0  0
   12.0141    0.5273   24.6359 C   0  0  0  0  0  0  0  0  0  0  0  0
    4.6890    1.6810   18.4640 C   0  0  0  0  0  0  0  0  0  0  0  0
    9.0720   -1.1280   24.8640 C   0  0  0  0  0  0  0  0  0  0  0  0
    9.7200   -2.2600   22.8630 C   0  0  0  0  0  0  0  0  0  0  0  0
    8.9960   -2.3380   25.5320 C   0  0  0  0  0  0  0  0  0  0  0  0
    9.6730   -3.4710   23.5300 C   0  0  0  0  0  0  0  0  0  0  0  0
   14.1526    1.4666   24.0184 C   0  0  0  0  0  0  0  0  0  0  0  0
   12.1314    2.2702   22.9668 C   0  0  0  0  0  0  0  0  0  0  0  0
    6.1790    0.5730   19.9990 C   0  0  0  0  0  0  0  0  0  0  0  0
   11.3794    1.3761   23.7290 C   0  0  0  0  0  0  0  0  0  0  0  0
    5.8300    0.9190   18.6970 C   0  0  0  0  0  0  0  0  0  0  0  0
    9.3350   -1.0880   23.5010 C   0  0  0  0  0  0  0  0  0  0  0  0
    9.3070   -3.5340   24.8780 C   0  0  0  0  0  0  0  0  0  0  0  0
   13.5180    2.3154   23.1115 C   0  0  0  0  0  0  0  0  0  0  0  0
    7.3170   -0.1610   19.8550 C   0  0  0  0  0  0  0  0  0  0  0  0
    9.0420    0.3700   21.5280 C   0  0  0  0  0  0  0  0  0  0  0  0
    8.8720   -4.6805   26.9013 C   0  0  0  0  0  0  0  0  0  0  0  0
    9.8870    1.3260   23.5730 C   0  0  0  0  0  0  0  0  0  0  0  0
    8.1890   -0.7180   20.8700 C   0  0  0  0  0  0  0  0  0  0  0  0
    6.7580    0.3810   17.8350 N   0  0  0  0  0  0  0  0  0  0  0  0
    7.6390   -0.2680   18.5410 N   0  0  0  0  0  0  0  0  0  0  0  0
    9.4560    0.1560   22.8130 N   0  0  0  0  0  0  0  0  0  0  0  0
    9.2690    1.4140   20.9380 O   0  0  0  0  0  0  0  0  0  0  0  0
    9.2555   -4.7124   25.5274 O   0  0  0  0  0  0  0  0  0  0  0  0
   14.4463    3.4175   22.1707 Cl  0  0  0  0  0  0  0  0  0  0  0  0
    3.6562    2.0083   21.6780 H   0  0  0  0  0  0  0  0  0  0  0  0
    3.0225    2.6465   19.3867 H   0  0  0  0  0  0  0  0  0  0  0  0
   13.8945   -0.0888   25.4867 H   0  0  0  0  0  0  0  0  0  0  0  0
    5.7084    0.6884   22.1515 H   0  0  0  0  0  0  0  0  0  0  0  0
   11.4361   -0.1726   25.2338 H   0  0  0  0  0  0  0  0  0  0  0  0
    4.3943    1.9831   17.4240 H   0  0  0  0  0  0  0  0  0  0  0  0
    8.9221   -0.1995   25.4231 H   0  0  0  0  0  0  0  0  0  0  0  0
   10.0642   -2.2347   21.8253 H   0  0  0  0  0  0  0  0  0  0  0  0
    8.6902   -2.3588   26.5805 H   0  0  0  0  0  0  0  0  0  0  0  0
    9.9254   -4.3921   22.9961 H   0  0  0  0  0  0  0  0  0  0  0  0
   15.2326    1.4907   24.1414 H   0  0  0  0  0  0  0  0  0  0  0  0
   11.6317    2.9303   22.2615 H   0  0  0  0  0  0  0  0  0  0  0  0
    8.8711   -5.6964   27.3038 H   0  0  0  0  0  0  0  0  0  0  0  0
    7.8758   -4.2402   26.9923 H   0  0  0  0  0  0  0  0  0  0  0  0
    9.5894   -4.0716   27.4566 H   0  0  0  0  0  0  0  0  0  0  0  0
    9.3974    1.2912   24.5523 H   0  0  0  0  0  0  0  0  0  0  0  0
    9.5159    2.2168   23.0553 H   0  0  0  0  0  0  0  0  0  0  0  0
    7.6090   -1.2088   21.6628 H   0  0  0  0  0  0  0  0  0  0  0  0
    8.8730   -1.4654   20.4463 H   0  0  0  0  0  0  0  0  0  0  0  0
    8.3933   -0.7388   18.1198 H   0  0  0  0  0  0  0  0  0  0  0  0
  1  2  1  0  0  0  0
  1  4  2  0  0  0  0
  2  6  2  0  0  0  0
  3  5  2  0  0  0  0
  3 11  1  0  0  0  0
  4 13  1  0  0  0  0
  5 14  1  0  0  0  0
  6 15  1  0  0  0  0
  7  9  2  0  0  0  0
  7 16  1  0  0  0  0
  8 10  1  0  0  0  0
  8 16  2  0  0  0  0
  9 17  1  0  0  0  0
 10 17  2  0  0  0  0
 11 18  2  0  0  0  0
 12 14  2  0  0  0  0
 12 18  1  0  0  0  0
 13 15  1  0  0  0  0
 13 19  2  0  0  0  0
 14 22  1  0  0  0  0
 15 24  2  0  0  0  0
 16 26  1  0  0  0  0
 17 28  1  0  0  0  0
 18 29  1  0  0  0  0
 19 23  1  0  0  0  0
 19 25  1  0  0  0  0
 20 23  1  0  0  0  0
 20 26  1  0  0  0  0
 20 27  2  0  0  0  0
 21 28  1  0  0  0  0
 22 26  1  0  0  0  0
 24 25  1  0  0  0  0
  1 30  1  0  0  0  0
  2 31  1  0  0  0  0
  3 32  1  0  0  0  0
  4 33  1  0  0  0  0
  5 34  1  0  0  0  0
  6 35  1  0  0  0  0
  7 36  1  0  0  0  0
  8 37  1  0  0  0  0
  9 38  1  0  0  0  0
 10 39  1  0  0  0  0
 11 40  1  0  0  0  0
 12 41  1  0  0  0  0
 21 42  1  0  0  0  0
 21 43  1  0  0  0  0
 21 44  1  0  0  0  0
 22 45  1  0  0  0  0
 22 46  1  0  0  0  0
 23 47  1  0  0  0  0
 23 48  1  0  0  0  0
 25 49  1  0  0  0  0
M  END
> <clash_score>
0

> <docking_score>
-7.9010210037231445

> <overlap_score>
0.9730234742164612

$$$$
BENZO_413_1
  -OEChem-08222022203D

 59 63  0     0  0  0  0  0  0999 V2000
   14.1526    1.4694   24.0176 C   0  0  0  0  0  0  0  0  0  0  0  0
    4.2750    1.7050   20.8490 C   0  0  0  0  0  0  0  0  0  0  0  0
   13.3741    0.8121   24.9701 C   0  0  0  0  0  0  0  0  0  0  0  0
   13.5446    2.0802   22.9208 C   0  0  0  0  0  0  0  0  0  0  0  0
    3.9160    2.0630   19.5520 C   0  0  0  0  0  0  0  0  0  0  0  0
    5.4210    0.9600   21.0930 C   0  0  0  0  0  0  0  0  0  0  0  0
   11.9875    0.7654   24.8258 C   0  0  0  0  0  0  0  0  0  0  0  0
   12.1580    2.0335   22.7765 C   0  0  0  0  0  0  0  0  0  0  0  0
    4.6890    1.6810   18.4640 C   0  0  0  0  0  0  0  0  0  0  0  0
    8.9960   -2.3380   25.5320 C   0  0  0  0  0  0  0  0  0  0  0  0
    9.6730   -3.4710   23.5300 C   0  0  0  0  0  0  0  0  0  0  0  0
    9.0720   -1.1280   24.8640 C   0  0  0  0  0  0  0  0  0  0  0  0
    9.7200   -2.2600   22.8630 C   0  0  0  0  0  0  0  0  0  0  0  0
    6.1790    0.5730   19.9990 C   0  0  0  0  0  0  0  0  0  0  0  0
   11.3794    1.3761   23.7290 C   0  0  0  0  0  0  0  0  0  0  0  0
    5.8300    0.9190   18.6970 C   0  0  0  0  0  0  0  0  0  0  0  0
    9.3070   -3.5340   24.8780 C   0  0  0  0  0  0  0  0  0  0  0  0
    9.3350   -1.0880   23.5010 C   0  0  0  0  0  0  0  0  0  0  0  0
    7.3170   -0.1610   19.8550 C   0  0  0  0  0  0  0  0  0  0  0  0
    8.3597   -5.0073   26.6307 C   0  0  0  0  0  0  0  0  0  0  0  0
    9.0420    0.3700   21.5280 C   0  0  0  0  0  0  0  0  0  0  0  0
    8.4720   -6.3981   27.2296 C   0  0  0  0  0  0  0  0  0  0  0  0
    9.9252   -6.7605   27.4803 C   0  0  0  0  0  0  0  0  0  0  0  0
   10.7833   -6.6094   26.2282 C   0  0  0  0  0  0  0  0  0  0  0  0
   10.0539   -5.9099   25.0823 C   0  0  0  0  0  0  0  0  0  0  0  0
    9.8870    1.3260   23.5730 C   0  0  0  0  0  0  0  0  0  0  0  0
    8.1890   -0.7180   20.8700 C   0  0  0  0  0  0  0  0  0  0  0  0
    6.7580    0.3810   17.8350 N   0  0  0  0  0  0  0  0  0  0  0  0
    7.6390   -0.2680   18.5410 N   0  0  0  0  0  0  0  0  0  0  0  0
    9.2529   -4.7797   25.5644 N   0  0  0  0  0  0  0  0  0  0  0  0
    9.4560    0.1560   22.8130 N   0  0  0  0  0  0  0  0  0  0  0  0
    7.4954   -4.2356   27.0449 O   0  0  0  0  0  0  0  0  0  0  0  0
    9.2690    1.4140   20.9380 O   0  0  0  0  0  0  0  0  0  0  0  0
   15.2322    1.5068   24.1308 H   0  0  0  0  0  0  0  0  0  0  0  0
    3.6562    2.0083   21.6780 H   0  0  0  0  0  0  0  0  0  0  0  0
   13.8473    0.3374   25.8248 H   0  0  0  0  0  0  0  0  0  0  0  0
   14.1503    2.5930   22.1795 H   0  0  0  0  0  0  0  0  0  0  0  0
    3.0225    2.6465   19.3867 H   0  0  0  0  0  0  0  0  0  0  0  0
    5.7084    0.6884   22.1515 H   0  0  0  0  0  0  0  0  0  0  0  0
   11.3889    0.2508   25.5729 H   0  0  0  0  0  0  0  0  0  0  0  0
   11.6930    2.5120   21.9187 H   0  0  0  0  0  0  0  0  0  0  0  0
    4.3943    1.9831   17.4240 H   0  0  0  0  0  0  0  0  0  0  0  0
    8.6895   -2.3529   26.5807 H   0  0  0  0  0  0  0  0  0  0  0  0
    9.9262   -4.3897   22.9916 H   0  0  0  0  0  0  0  0  0  0  0  0
    8.9224   -0.1998   25.4238 H   0  0  0  0  0  0  0  0  0  0  0  0
   10.0649   -2.2343   21.8258 H   0  0  0  0  0  0  0  0  0  0  0  0
    7.9325   -6.4148   28.1641 H   0  0  0  0  0  0  0  0  0  0  0  0
    8.0254   -7.0920   26.5333 H   0  0  0  0  0  0  0  0  0  0  0  0
   10.3387   -6.1267   28.2923 H   0  0  0  0  0  0  0  0  0  0  0  0
    9.9904   -7.8023   27.8537 H   0  0  0  0  0  0  0  0  0  0  0  0
   11.7037   -6.0404   26.4771 H   0  0  0  0  0  0  0  0  0  0  0  0
   11.1411   -7.6068   25.8918 H   0  0  0  0  0  0  0  0  0  0  0  0
   10.7782   -5.5162   24.3756 H   0  0  0  0  0  0  0  0  0  0  0  0
    9.4042   -6.6189   24.5807 H   0  0  0  0  0  0  0  0  0  0  0  0
    9.3974    1.2912   24.5523 H   0  0  0  0  0  0  0  0  0  0  0  0
    9.5159    2.2168   23.0554 H   0  0  0  0  0  0  0  0  0  0  0  0
    7.5972   -1.2056   21.6500 H   0  0  0  0  0  0  0  0  0  0  0  0
    8.8612   -1.4622   20.4334 H   0  0  0  0  0  0  0  0  0  0  0  0
    8.3933   -0.7388   18.1198 H   0  0  0  0  0  0  0  0  0  0  0  0
  1  3  1  0  0  0  0
  1  4  2  0  0  0  0
  2  5  1  0  0  0  0
  2  6  2  0  0  0  0
  3  7  2  0  0  0  0
  4  8  1  0  0  0  0
  5  9  2  0  0  0  0
  6 14  1  0  0  0  0
  7 15  1  0  0  0  0
  8 15  2  0  0  0  0
  9 16  1  0  0  0  0
 10 12  2  0  0  0  0
 10 17  1  0  0  0  0
 11 13  1  0  0  0  0
 11 17  2  0  0  0  0
 12 18  1  0  0  0  0
 13 18  2  0  0  0  0
 14 16  1  0  0  0  0
 14 19  2  0  0  0  0
 15 26  1  0  0  0  0
 16 28  2  0  0  0  0
 17 30  1  0  0  0  0
 18 31  1  0  0  0  0
 19 27  1  0  0  0  0
 19 29  1  0  0  0  0
 20 22  1  0  0  0  0
 20 30  1  0  0  0  0
 20 32  2  0  0  0  0
 21 27  1  0  0  0  0
 21 31  1  0  0  0  0
 21 33  2  0  0  0  0
 22 23  1  0  0  0  0
 23 24  1  0  0  0  0
 24 25  1  0  0  0  0
 25 30  1  0  0  0  0
 26 31  1  0  0  0  0
 28 29  1  0  0  0  0
  1 34  1  0  0  0  0
  2 35  1  0  0  0  0
  3 36  1  0  0  0  0
  4 37  1  0  0  0  0
  5 38  1  0  0  0  0
  6 39  1  0  0  0  0
  7 40  1  0  0  0  0
  8 41  1  0  0  0  0
  9 42  1  0  0  0  0
 10 43  1  0  0  0  0
 11 44  1  0  0  0  0
 12 45  1  0  0  0  0
 13 46  1  0  0  0  0
 22 47  1  0  0  0  0
 22 48  1  0  0  0  0
 23 49  1  0  0  0  0
 23 50  1  0  0  0  0
 24 51  1  0  0  0  0
 24 52  1  0  0  0  0
 25 53  1  0  0  0  0
 25 54  1  0  0  0  0
 26 55  1  0  0  0  0
 26 56  1  0  0  0  0
 27 57  1  0  0  0  0
 27 58  1  0  0  0  0
 29 59  1  0  0  0  0
M  END
> <clash_score>
0.7790751876189459

> <docking_score>
-8.123671531677246

> <overlap_score>
1.0041024684906006

$$$$
BENZO_412_1
  -OEChem-08222022203D

 56 60  0     0  0  0  0  0  0999 V2000
    4.2750    1.7050   20.8490 C   0  0  0  0  0  0  0  0  0  0  0  0
    3.9160    2.0630   19.5520 C   0  0  0  0  0  0  0  0  0  0  0  0
    5.4210    0.9600   21.0930 C   0  0  0  0  0  0  0  0  0  0  0  0
    4.6890    1.6810   18.4640 C   0  0  0  0  0  0  0  0  0  0  0  0
    8.9960   -2.3380   25.5320 C   0  0  0  0  0  0  0  0  0  0  0  0
    9.6730   -3.4710   23.5300 C   0  0  0  0  0  0  0  0  0  0  0  0
    9.0720   -1.1280   24.8640 C   0  0  0  0  0  0  0  0  0  0  0  0
    9.7200   -2.2600   22.8630 C   0  0  0  0  0  0  0  0  0  0  0  0
   12.2913    1.4279   22.6355 C   0  0  0  0  0  0  0  0  0  0  0  0
   13.6024    1.4662   23.0564 C   0  0  0  0  0  0  0  0  0  0  0  0
   12.0284    1.3764   24.9443 C   0  0  0  0  0  0  0  0  0  0  0  0
    6.1790    0.5730   19.9990 C   0  0  0  0  0  0  0  0  0  0  0  0
   11.3794    1.3761   23.7290 C   0  0  0  0  0  0  0  0  0  0  0  0
    5.8300    0.9190   18.6970 C   0  0  0  0  0  0  0  0  0  0  0  0
    9.3070   -3.5340   24.8780 C   0  0  0  0  0  0  0  0  0  0  0  0
    9.3350   -1.0880   23.5010 C   0  0  0  0  0  0  0  0  0  0  0  0
    7.3170   -0.1610   19.8550 C   0  0  0  0  0  0  0  0  0  0  0  0
    8.3596   -5.0074   26.6308 C   0  0  0  0  0  0  0  0  0  0  0  0
    9.0420    0.3700   21.5280 C   0  0  0  0  0  0  0  0  0  0  0  0
    8.4579   -6.4047   27.2169 C   0  0  0  0  0  0  0  0  0  0  0  0
    8.4717   -7.4504   26.1159 C   0  0  0  0  0  0  0  0  0  0  0  0
    9.5645   -7.1893   25.0842 C   0  0  0  0  0  0  0  0  0  0  0  0
   10.2327   -5.8252   25.2501 C   0  0  0  0  0  0  0  0  0  0  0  0
    9.8870    1.3260   23.5730 C   0  0  0  0  0  0  0  0  0  0  0  0
    8.1890   -0.7180   20.8700 C   0  0  0  0  0  0  0  0  0  0  0  0
    6.7580    0.3810   17.8350 N   0  0  0  0  0  0  0  0  0  0  0  0
    7.6390   -0.2680   18.5410 N   0  0  0  0  0  0  0  0  0  0  0  0
    9.2529   -4.7798   25.5645 N   0  0  0  0  0  0  0  0  0  0  0  0
    9.4560    0.1560   22.8130 N   0  0  0  0  0  0  0  0  0  0  0  0
    7.5990   -4.1865   27.1424 O   0  0  0  0  0  0  0  0  0  0  0  0
    9.2690    1.4140   20.9380 O   0  0  0  0  0  0  0  0  0  0  0  0
   13.7301    1.4394   24.7638 S   0  0  0  0  0  0  0  0  0  0  0  0
    3.6562    2.0083   21.6780 H   0  0  0  0  0  0  0  0  0  0  0  0
    3.0225    2.6465   19.3867 H   0  0  0  0  0  0  0  0  0  0  0  0
    5.7084    0.6884   22.1515 H   0  0  0  0  0  0  0  0  0  0  0  0
    4.3943    1.9831   17.4240 H   0  0  0  0  0  0  0  0  0  0  0  0
    8.6895   -2.3529   26.5807 H   0  0  0  0  0  0  0  0  0  0  0  0
    9.9262   -4.3897   22.9916 H   0  0  0  0  0  0  0  0  0  0  0  0
    8.9224   -0.1998   25.4238 H   0  0  0  0  0  0  0  0  0  0  0  0
   10.0649   -2.2343   21.8258 H   0  0  0  0  0  0  0  0  0  0  0  0
   12.0045    1.4365   21.5915 H   0  0  0  0  0  0  0  0  0  0  0  0
   14.4914    1.5078   22.4431 H   0  0  0  0  0  0  0  0  0  0  0  0
   11.5886    1.3416   25.9314 H   0  0  0  0  0  0  0  0  0  0  0  0
    9.3706   -6.4745   27.7885 H   0  0  0  0  0  0  0  0  0  0  0  0
    7.6055   -6.5497   27.8636 H   0  0  0  0  0  0  0  0  0  0  0  0
    8.6095   -8.4604   26.5550 H   0  0  0  0  0  0  0  0  0  0  0  0
    7.4835   -7.4763   25.6142 H   0  0  0  0  0  0  0  0  0  0  0  0
   10.3359   -7.9850   25.1531 H   0  0  0  0  0  0  0  0  0  0  0  0
    9.1458   -7.2796   24.0582 H   0  0  0  0  0  0  0  0  0  0  0  0
   10.9408   -5.8640   26.0725 H   0  0  0  0  0  0  0  0  0  0  0  0
   10.7521   -5.5631   24.3347 H   0  0  0  0  0  0  0  0  0  0  0  0
    9.3974    1.2912   24.5523 H   0  0  0  0  0  0  0  0  0  0  0  0
    9.5159    2.2168   23.0554 H   0  0  0  0  0  0  0  0  0  0  0  0
    7.5972   -1.2056   21.6500 H   0  0  0  0  0  0  0  0  0  0  0  0
    8.8612   -1.4622   20.4334 H   0  0  0  0  0  0  0  0  0  0  0  0
    8.3933   -0.7388   18.1198 H   0  0  0  0  0  0  0  0  0  0  0  0
  1  2  1  0  0  0  0
  1  3  2  0  0  0  0
  2  4  2  0  0  0  0
  3 12  1  0  0  0  0
  4 14  1  0  0  0  0
  5  7  2  0  0  0  0
  5 15  1  0  0  0  0
  6  8  1  0  0  0  0
  6 15  2  0  0  0  0
  7 16  1  0  0  0  0
  8 16  2  0  0  0  0
  9 10  2  0  0  0  0
  9 13  1  0  0  0  0
 10 32  1  0  0  0  0
 11 13  2  0  0  0  0
 11 32  1  0  0  0  0
 12 14  1  0  0  0  0
 12 17  2  0  0  0  0
 13 24  1  0  0  0  0
 14 26  2  0  0  0  0
 15 28  1  0  0  0  0
 16 29  1  0  0  0  0
 17 25  1  0  0  0  0
 17 27  1  0  0  0  0
 18 20  1  0  0  0  0
 18 28  1  0  0  0  0
 18 30  2  0  0  0  0
 19 25  1  0  0  0  0
 19 29  1  0  0  0  0
 19 31  2  0  0  0  0
 20 21  1  0  0  0  0
 21 22  1  0  0  0  0
 22 23  1  0  0  0  0
 23 28  1  0  0  0  0
 24 29  1  0  0  0  0
 26 27  1  0  0  0  0
  1 33  1  0  0  0  0
  2 34  1  0  0  0  0
  3 35  1  0  0  0  0
  4 36  1  0  0  0  0
  5 37  1  0  0  0  0
  6 38  1  0  0  0  0
  7 39  1  0  0  0  0
  8 40  1  0  0  0  0
  9 41  1  0  0  0  0
 10 42  1  0  0  0  0
 11 43  1  0  0  0  0
 20 44  1  0  0  0  0
 20 45  1  0  0  0  0
 21 46  1  0  0  0  0
 21 47  1  0  0  0  0
 22 48  1  0  0  0  0
 22 49  1  0  0  0  0
 23 50  1  0  0  0  0
 23 51  1  0  0  0  0
 24 52  1  0  0  0  0
 24 53  1  0  0  0  0
 25 54  1  0  0  0  0
 25 55  1  0  0  0  0
 27 56  1  0  0  0  0
M  END
> <clash_score>
0.6354466317061015

> <docking_score>
-8.038971900939941

> <overlap_score>
0.9878003001213074

$$$$
BENZO_415_1
  -OEChem-08222022203D

 59 63  0     0  0  0  0  0  0999 V2000
    4.2750    1.7050   20.8490 C   0  0  0  0  0  0  0  0  0  0  0  0
    3.9160    2.0630   19.5520 C   0  0  0  0  0  0  0  0  0  0  0  0
    5.4210    0.9600   21.0930 C   0  0  0  0  0  0  0  0  0  0  0  0
    4.6890    1.6810   18.4640 C   0  0  0  0  0  0  0  0  0  0  0  0
    8.9960   -2.3380   25.5320 C   0  0  0  0  0  0  0  0  0  0  0  0
    9.6730   -3.4710   23.5300 C   0  0  0  0  0  0  0  0  0  0  0  0
    9.0720   -1.1280   24.8640 C   0  0  0  0  0  0  0  0  0  0  0  0
    9.7200   -2.2600   22.8630 C   0  0  0  0  0  0  0  0  0  0  0  0
   12.1233    1.3811   24.9242 C   0  0  0  0  0  0  0  0  0  0  0  0
   12.3262    1.4247   22.7351 C   0  0  0  0  0  0  0  0  0  0  0  0
    6.1790    0.5730   19.9990 C   0  0  0  0  0  0  0  0  0  0  0  0
   11.3794    1.3761   23.7290 C   0  0  0  0  0  0  0  0  0  0  0  0
    5.8300    0.9190   18.6970 C   0  0  0  0  0  0  0  0  0  0  0  0
    9.3070   -3.5340   24.8780 C   0  0  0  0  0  0  0  0  0  0  0  0
    9.3350   -1.0880   23.5010 C   0  0  0  0  0  0  0  0  0  0  0  0
    7.3170   -0.1610   19.8550 C   0  0  0  0  0  0  0  0  0  0  0  0
    8.3597   -5.0073   26.6307 C   0  0  0  0  0  0  0  0  0  0  0  0
    9.0420    0.3700   21.5280 C   0  0  0  0  0  0  0  0  0  0  0  0
    8.4720   -6.3981   27.2296 C   0  0  0  0  0  0  0  0  0  0  0  0
    9.9252   -6.7605   27.4803 C   0  0  0  0  0  0  0  0  0  0  0  0
   10.7833   -6.6094   26.2282 C   0  0  0  0  0  0  0  0  0  0  0  0
   10.0539   -5.9099   25.0823 C   0  0  0  0  0  0  0  0  0  0  0  0
   14.8305    1.5084   22.7418 C   0  0  0  0  0  0  0  0  0  0  0  0
    9.8870    1.3260   23.5730 C   0  0  0  0  0  0  0  0  0  0  0  0
    8.1890   -0.7180   20.8700 C   0  0  0  0  0  0  0  0  0  0  0  0
   13.4410    1.4289   24.7112 N   0  0  0  0  0  0  0  0  0  0  0  0
    6.7580    0.3810   17.8350 N   0  0  0  0  0  0  0  0  0  0  0  0
    7.6390   -0.2680   18.5410 N   0  0  0  0  0  0  0  0  0  0  0  0
   13.5326    1.4543   23.3707 N   0  0  0  0  0  0  0  0  0  0  0  0
    9.2529   -4.7797   25.5644 N   0  0  0  0  0  0  0  0  0  0  0  0
    9.4560    0.1560   22.8130 N   0  0  0  0  0  0  0  0  0  0  0  0
    7.4954   -4.2356   27.0449 O   0  0  0  0  0  0  0  0  0  0  0  0
    9.2690    1.4140   20.9380 O   0  0  0  0  0  0  0  0  0  0  0  0
    3.6562    2.0083   21.6780 H   0  0  0  0  0  0  0  0  0  0  0  0
    3.0225    2.6465   19.3867 H   0  0  0  0  0  0  0  0  0  0  0  0
    5.7084    0.6884   22.1515 H   0  0  0  0  0  0  0  0  0  0  0  0
    4.3943    1.9831   17.4240 H   0  0  0  0  0  0  0  0  0  0  0  0
    8.6895   -2.3529   26.5807 H   0  0  0  0  0  0  0  0  0  0  0  0
    9.9262   -4.3897   22.9916 H   0  0  0  0  0  0  0  0  0  0  0  0
    8.9224   -0.1998   25.4238 H   0  0  0  0  0  0  0  0  0  0  0  0
   10.0649   -2.2343   21.8258 H   0  0  0  0  0  0  0  0  0  0  0  0
   11.7624    1.3510   25.9426 H   0  0  0  0  0  0  0  0  0  0  0  0
   12.2462    1.4390   21.6566 H   0  0  0  0  0  0  0  0  0  0  0  0
    7.9325   -6.4148   28.1641 H   0  0  0  0  0  0  0  0  0  0  0  0
    8.0254   -7.0920   26.5333 H   0  0  0  0  0  0  0  0  0  0  0  0
   10.3387   -6.1267   28.2923 H   0  0  0  0  0  0  0  0  0  0  0  0
    9.9904   -7.8023   27.8537 H   0  0  0  0  0  0  0  0  0  0  0  0
   11.7037   -6.0404   26.4771 H   0  0  0  0  0  0  0  0  0  0  0  0
   11.1411   -7.6068   25.8918 H   0  0  0  0  0  0  0  0  0  0  0  0
   10.7782   -5.5162   24.3756 H   0  0  0  0  0  0  0  0  0  0  0  0
    9.4042   -6.6189   24.5807 H   0  0  0  0  0  0  0  0  0  0  0  0
   15.0990    2.5601   22.6124 H   0  0  0  0  0  0  0  0  0  0  0  0
   15.5636    1.0018   23.3756 H   0  0  0  0  0  0  0  0  0  0  0  0
   14.7841    1.0025   21.7733 H   0  0  0  0  0  0  0  0  0  0  0  0
    9.3974    1.2912   24.5523 H   0  0  0  0  0  0  0  0  0  0  0  0
    9.5159    2.2168   23.0554 H   0  0  0  0  0  0  0  0  0  0  0  0
    7.5972   -1.2056   21.6500 H   0  0  0  0  0  0  0  0  0  0  0  0
    8.8612   -1.4622   20.4334 H   0  0  0  0  0  0  0  0  0  0  0  0
    8.3933   -0.7388   18.1198 H   0  0  0  0  0  0  0  0  0  0  0  0
  1  2  1  0  0  0  0
  1  3  2  0  0  0  0
  2  4  2  0  0  0  0
  3 11  1  0  0  0  0
  4 13  1  0  0  0  0
  5  7  2  0  0  0  0
  5 14  1  0  0  0  0
  6  8  1  0  0  0  0
  6 14  2  0  0  0  0
  7 15  1  0  0  0  0
  8 15  2  0  0  0  0
  9 12  1  0  0  0  0
  9 26  2  0  0  0  0
 10 12  2  0  0  0  0
 10 29  1  0  0  0  0
 11 13  1  0  0  0  0
 11 16  2  0  0  0  0
 12 24  1  0  0  0  0
 13 27  2  0  0  0  0
 14 30  1  0  0  0  0
 15 31  1  0  0  0  0
 16 25  1  0  0  0  0
 16 28  1  0  0  0  0
 17 19  1  0  0  0  0
 17 30  1  0  0  0  0
 17 32  2  0  0  0  0
 18 25  1  0  0  0  0
 18 31  1  0  0  0  0
 18 33  2  0  0  0  0
 19 20  1  0  0  0  0
 20 21  1  0  0  0  0
 21 22  1  0  0  0  0
 22 30  1  0  0  0  0
 23 29  1  0  0  0  0
 24 31  1  0  0  0  0
 26 29  1  0  0  0  0
 27 28  1  0  0  0  0
  1 34  1  0  0  0  0
  2 35  1  0  0  0  0
  3 36  1  0  0  0  0
  4 37  1  0  0  0  0
  5 38  1  0  0  0  0
  6 39  1  0  0  0  0
  7 40  1  0  0  0  0
  8 41  1  0  0  0  0
  9 42  1  0  0  0  0
 10 43  1  0  0  0  0
 19 44  1  0  0  0  0
 19 45  1  0  0  0  0
 20 46  1  0  0  0  0
 20 47  1  0  0  0  0
 21 48  1  0  0  0  0
 21 49  1  0  0  0  0
 22 50  1  0  0  0  0
 22 51  1  0  0  0  0
 23 52  1  0  0  0  0
 23 53  1  0  0  0  0
 23 54  1  0  0  0  0
 24 55  1  0  0  0  0
 24 56  1  0  0  0  0
 25 57  1  0  0  0  0
 25 58  1  0  0  0  0
 28 59  1  0  0  0  0
M  END
> <clash_score>
0.7790751876189459

> <docking_score>
-7.839803695678711

> <overlap_score>
0.999036431312561

$$$$
BENZO_417_1
  -OEChem-08222022203D

 58 62  0     0  0  0  0  0  0999 V2000
   14.1526    1.4694   24.0176 C   0  0  0  0  0  0  0  0  0  0  0  0
    4.2750    1.7050   20.8490 C   0  0  0  0  0  0  0  0  0  0  0  0
   13.3741    0.8121   24.9701 C   0  0  0  0  0  0  0  0  0  0  0  0
   13.5446    2.0802   22.9208 C   0  0  0  0  0  0  0  0  0  0  0  0
    3.9160    2.0630   19.5520 C   0  0  0  0  0  0  0  0  0  0  0  0
    5.4210    0.9600   21.0930 C   0  0  0  0  0  0  0  0  0  0  0  0
   11.9875    0.7654   24.8258 C   0  0  0  0  0  0  0  0  0  0  0  0
   12.1580    2.0335   22.7765 C   0  0  0  0  0  0  0  0  0  0  0  0
    4.6890    1.6810   18.4640 C   0  0  0  0  0  0  0  0  0  0  0  0
    8.9960   -2.3380   25.5320 C   0  0  0  0  0  0  0  0  0  0  0  0
    9.6730   -3.4710   23.5300 C   0  0  0  0  0  0  0  0  0  0  0  0
    9.0720   -1.1280   24.8640 C   0  0  0  0  0  0  0  0  0  0  0  0
    9.7200   -2.2600   22.8630 C   0  0  0  0  0  0  0  0  0  0  0  0
    6.1790    0.5730   19.9990 C   0  0  0  0  0  0  0  0  0  0  0  0
   11.3794    1.3761   23.7290 C   0  0  0  0  0  0  0  0  0  0  0  0
    5.8300    0.9190   18.6970 C   0  0  0  0  0  0  0  0  0  0  0  0
    9.3070   -3.5340   24.8780 C   0  0  0  0  0  0  0  0  0  0  0  0
    9.3350   -1.0880   23.5010 C   0  0  0  0  0  0  0  0  0  0  0  0
    7.3170   -0.1610   19.8550 C   0  0  0  0  0  0  0  0  0  0  0  0
    9.0420    0.3700   21.5280 C   0  0  0  0  0  0  0  0  0  0  0  0
   10.0771   -5.0255   26.7193 C   0  0  0  0  0  0  0  0  0  0  0  0
    8.0927   -5.6195   25.4071 C   0  0  0  0  0  0  0  0  0  0  0  0
    9.1933   -4.9427   27.9592 C   0  0  0  0  0  0  0  0  0  0  0  0
    7.2756   -5.5290   26.6967 C   0  0  0  0  0  0  0  0  0  0  0  0
    9.8870    1.3260   23.5730 C   0  0  0  0  0  0  0  0  0  0  0  0
    8.1890   -0.7180   20.8700 C   0  0  0  0  0  0  0  0  0  0  0  0
    6.7580    0.3810   17.8350 N   0  0  0  0  0  0  0  0  0  0  0  0
    7.6390   -0.2680   18.5410 N   0  0  0  0  0  0  0  0  0  0  0  0
    9.2563   -4.7368   25.5413 N   0  0  0  0  0  0  0  0  0  0  0  0
    9.4560    0.1560   22.8130 N   0  0  0  0  0  0  0  0  0  0  0  0
    9.2690    1.4140   20.9380 O   0  0  0  0  0  0  0  0  0  0  0  0
    8.0883   -5.8459   27.8325 O   0  0  0  0  0  0  0  0  0  0  0  0
   15.2322    1.5068   24.1308 H   0  0  0  0  0  0  0  0  0  0  0  0
    3.6562    2.0083   21.6780 H   0  0  0  0  0  0  0  0  0  0  0  0
   13.8473    0.3374   25.8248 H   0  0  0  0  0  0  0  0  0  0  0  0
   14.1503    2.5930   22.1795 H   0  0  0  0  0  0  0  0  0  0  0  0
    3.0225    2.6465   19.3867 H   0  0  0  0  0  0  0  0  0  0  0  0
    5.7084    0.6884   22.1515 H   0  0  0  0  0  0  0  0  0  0  0  0
   11.3889    0.2508   25.5729 H   0  0  0  0  0  0  0  0  0  0  0  0
   11.6930    2.5120   21.9187 H   0  0  0  0  0  0  0  0  0  0  0  0
    4.3943    1.9831   17.4240 H   0  0  0  0  0  0  0  0  0  0  0  0
    8.6905   -2.3533   26.5810 H   0  0  0  0  0  0  0  0  0  0  0  0
    9.9266   -4.3896   22.9917 H   0  0  0  0  0  0  0  0  0  0  0  0
    8.9233   -0.1992   25.4232 H   0  0  0  0  0  0  0  0  0  0  0  0
   10.0650   -2.2330   21.8256 H   0  0  0  0  0  0  0  0  0  0  0  0
   10.8985   -4.3115   26.8085 H   0  0  0  0  0  0  0  0  0  0  0  0
   10.4915   -6.0334   26.6323 H   0  0  0  0  0  0  0  0  0  0  0  0
    8.4327   -6.6456   25.2620 H   0  0  0  0  0  0  0  0  0  0  0  0
    7.4725   -5.3241   24.5619 H   0  0  0  0  0  0  0  0  0  0  0  0
    9.7636   -5.2398   28.8419 H   0  0  0  0  0  0  0  0  0  0  0  0
    8.8236   -3.9268   28.1248 H   0  0  0  0  0  0  0  0  0  0  0  0
    6.8339   -4.5337   26.8232 H   0  0  0  0  0  0  0  0  0  0  0  0
    6.4550   -6.2521   26.6643 H   0  0  0  0  0  0  0  0  0  0  0  0
    9.3974    1.2912   24.5523 H   0  0  0  0  0  0  0  0  0  0  0  0
    9.5159    2.2168   23.0554 H   0  0  0  0  0  0  0  0  0  0  0  0
    7.5972   -1.2056   21.6500 H   0  0  0  0  0  0  0  0  0  0  0  0
    8.8612   -1.4622   20.4334 H   0  0  0  0  0  0  0  0  0  0  0  0
    8.3933   -0.7388   18.1198 H   0  0  0  0  0  0  0  0  0  0  0  0
  1  3  1  0  0  0  0
  1  4  2  0  0  0  0
  2  5  1  0  0  0  0
  2  6  2  0  0  0  0
  3  7  2  0  0  0  0
  4  8  1  0  0  0  0
  5  9  2  0  0  0  0
  6 14  1  0  0  0  0
  7 15  1  0  0  0  0
  8 15  2  0  0  0  0
  9 16  1  0  0  0  0
 10 12  2  0  0  0  0
 10 17  1  0  0  0  0
 11 13  1  0  0  0  0
 11 17  2  0  0  0  0
 12 18  1  0  0  0  0
 13 18  2  0  0  0  0
 14 16  1  0  0  0  0
 14 19  2  0  0  0  0
 15 25  1  0  0  0  0
 16 27  2  0  0  0  0
 17 29  1  0  0  0  0
 18 30  1  0  0  0  0
 19 26  1  0  0  0  0
 19 28  1  0  0  0  0
 20 26  1  0  0  0  0
 20 30  1  0  0  0  0
 20 31  2  0  0  0  0
 21 23  1  0  0  0  0
 21 29  1  0  0  0  0
 22 24  1  0  0  0  0
 22 29  1  0  0  0  0
 23 32  1  0  0  0  0
 24 32  1  0  0  0  0
 25 30  1  0  0  0  0
 27 28  1  0  0  0  0
  1 33  1  0  0  0  0
  2 34  1  0  0  0  0
  3 35  1  0  0  0  0
  4 36  1  0  0  0  0
  5 37  1  0  0  0  0
  6 38  1  0  0  0  0
  7 39  1  0  0  0  0
  8 40  1  0  0  0  0
  9 41  1  0  0  0  0
 10 42  1  0  0  0  0
 11 43  1  0  0  0  0
 12 44  1  0  0  0  0
 13 45  1  0  0  0  0
 21 46  1  0  0  0  0
 21 47  1  0  0  0  0
 22 48  1  0  0  0  0
 22 49  1  0  0  0  0
 23 50  1  0  0  0  0
 23 51  1  0  0  0  0
 24 52  1  0  0  0  0
 24 53  1  0  0  0  0
 25 54  1  0  0  0  0
 25 55  1  0  0  0  0
 26 56  1  0  0  0  0
 26 57  1  0  0  0  0
 28 58  1  0  0  0  0
M  END
> <clash_score>
0

> <docking_score>
-9.104783058166504

> <overlap_score>
0.9903321862220764

$$$$
BENZO_414_1
  -OEChem-08222022203D

 59 63  0     0  0  0  0  0  0999 V2000
    4.2750    1.7050   20.8490 C   0  0  0  0  0  0  0  0  0  0  0  0
    3.9160    2.0630   19.5520 C   0  0  0  0  0  0  0  0  0  0  0  0
   13.4007    0.5725   24.7805 C   0  0  0  0  0  0  0  0  0  0  0  0
    5.4210    0.9600   21.0930 C   0  0  0  0  0  0  0  0  0  0  0  0
   12.0141    0.5273   24.6359 C   0  0  0  0  0  0  0  0  0  0  0  0
    4.6890    1.6810   18.4640 C   0  0  0  0  0  0  0  0  0  0  0  0
    8.9960   -2.3380   25.5320 C   0  0  0  0  0  0  0  0  0  0  0  0
    9.6730   -3.4710   23.5300 C   0  0  0  0  0  0  0  0  0  0  0  0
    9.0720   -1.1280   24.8640 C   0  0  0  0  0  0  0  0  0  0  0  0
    9.7200   -2.2600   22.8630 C   0  0  0  0  0  0  0  0  0  0  0  0
   14.1526    1.4666   24.0184 C   0  0  0  0  0  0  0  0  0  0  0  0
   12.1314    2.2702   22.9668 C   0  0  0  0  0  0  0  0  0  0  0  0
    6.1790    0.5730   19.9990 C   0  0  0  0  0  0  0  0  0  0  0  0
   11.3794    1.3761   23.7290 C   0  0  0  0  0  0  0  0  0  0  0  0
    5.8300    0.9190   18.6970 C   0  0  0  0  0  0  0  0  0  0  0  0
    9.3070   -3.5340   24.8780 C   0  0  0  0  0  0  0  0  0  0  0  0
    9.3350   -1.0880   23.5010 C   0  0  0  0  0  0  0  0  0  0  0  0
   13.5180    2.3154   23.1115 C   0  0  0  0  0  0  0  0  0  0  0  0
    7.3170   -0.1610   19.8550 C   0  0  0  0  0  0  0  0  0  0  0  0
    8.3597   -5.0073   26.6307 C   0  0  0  0  0  0  0  0  0  0  0  0
    9.0420    0.3700   21.5280 C   0  0  0  0  0  0  0  0  0  0  0  0
    8.4720   -6.3981   27.2296 C   0  0  0  0  0  0  0  0  0  0  0  0
    9.9252   -6.7605   27.4803 C   0  0  0  0  0  0  0  0  0  0  0  0
   10.7833   -6.6094   26.2282 C   0  0  0  0  0  0  0  0  0  0  0  0
   10.0539   -5.9099   25.0823 C   0  0  0  0  0  0  0  0  0  0  0  0
    9.8870    1.3260   23.5730 C   0  0  0  0  0  0  0  0  0  0  0  0
    8.1890   -0.7180   20.8700 C   0  0  0  0  0  0  0  0  0  0  0  0
    6.7580    0.3810   17.8350 N   0  0  0  0  0  0  0  0  0  0  0  0
    7.6390   -0.2680   18.5410 N   0  0  0  0  0  0  0  0  0  0  0  0
    9.2529   -4.7797   25.5644 N   0  0  0  0  0  0  0  0  0  0  0  0
    9.4560    0.1560   22.8130 N   0  0  0  0  0  0  0  0  0  0  0  0
    7.4954   -4.2356   27.0449 O   0  0  0  0  0  0  0  0  0  0  0  0
    9.2690    1.4140   20.9380 O   0  0  0  0  0  0  0  0  0  0  0  0
   14.4464    3.4175   22.1707 Cl  0  0  0  0  0  0  0  0  0  0  0  0
    3.6562    2.0083   21.6780 H   0  0  0  0  0  0  0  0  0  0  0  0
    3.0225    2.6465   19.3867 H   0  0  0  0  0  0  0  0  0  0  0  0
   13.8945   -0.0888   25.4867 H   0  0  0  0  0  0  0  0  0  0  0  0
    5.7084    0.6884   22.1515 H   0  0  0  0  0  0  0  0  0  0  0  0
   11.4361   -0.1726   25.2338 H   0  0  0  0  0  0  0  0  0  0  0  0
    4.3943    1.9831   17.4240 H   0  0  0  0  0  0  0  0  0  0  0  0
    8.6895   -2.3529   26.5807 H   0  0  0  0  0  0  0  0  0  0  0  0
    9.9262   -4.3897   22.9916 H   0  0  0  0  0  0  0  0  0  0  0  0
    8.9224   -0.1998   25.4238 H   0  0  0  0  0  0  0  0  0  0  0  0
   10.0649   -2.2343   21.8258 H   0  0  0  0  0  0  0  0  0  0  0  0
   15.2326    1.4906   24.1414 H   0  0  0  0  0  0  0  0  0  0  0  0
   11.6318    2.9303   22.2615 H   0  0  0  0  0  0  0  0  0  0  0  0
    7.9325   -6.4148   28.1641 H   0  0  0  0  0  0  0  0  0  0  0  0
    8.0254   -7.0920   26.5333 H   0  0  0  0  0  0  0  0  0  0  0  0
   10.3387   -6.1267   28.2923 H   0  0  0  0  0  0  0  0  0  0  0  0
    9.9904   -7.8023   27.8537 H   0  0  0  0  0  0  0  0  0  0  0  0
   11.7037   -6.0404   26.4771 H   0  0  0  0  0  0  0  0  0  0  0  0
   11.1411   -7.6068   25.8918 H   0  0  0  0  0  0  0  0  0  0  0  0
   10.7782   -5.5162   24.3756 H   0  0  0  0  0  0  0  0  0  0  0  0
    9.4042   -6.6189   24.5807 H   0  0  0  0  0  0  0  0  0  0  0  0
    9.3974    1.2912   24.5523 H   0  0  0  0  0  0  0  0  0  0  0  0
    9.5159    2.2168   23.0554 H   0  0  0  0  0  0  0  0  0  0  0  0
    7.5972   -1.2056   21.6500 H   0  0  0  0  0  0  0  0  0  0  0  0
    8.8612   -1.4622   20.4334 H   0  0  0  0  0  0  0  0  0  0  0  0
    8.3933   -0.7388   18.1198 H   0  0  0  0  0  0  0  0  0  0  0  0
  1  2  1  0  0  0  0
  1  4  2  0  0  0  0
  2  6  2  0  0  0  0
  3  5  2  0  0  0  0
  3 11  1  0  0  0  0
  4 13  1  0  0  0  0
  5 14  1  0  0  0  0
  6 15  1  0  0  0  0
  7  9  2  0  0  0  0
  7 16  1  0  0  0  0
  8 10  1  0  0  0  0
  8 16  2  0  0  0  0
  9 17  1  0  0  0  0
 10 17  2  0  0  0  0
 11 18  2  0  0  0  0
 12 14  2  0  0  0  0
 12 18  1  0  0  0  0
 13 15  1  0  0  0  0
 13 19  2  0  0  0  0
 14 26  1  0  0  0  0
 15 28  2  0  0  0  0
 16 30  1  0  0  0  0
 17 31  1  0  0  0  0
 18 34  1  0  0  0  0
 19 27  1  0  0  0  0
 19 29  1  0  0  0  0
 20 22  1  0  0  0  0
 20 30  1  0  0  0  0
 20 32  2  0  0  0  0
 21 27  1  0  0  0  0
 21 31  1  0  0  0  0
 21 33  2  0  0  0  0
 22 23  1  0  0  0  0
 23 24  1  0  0  0  0
 24 25  1  0  0  0  0
 25 30  1  0  0  0  0
 26 31  1  0  0  0  0
 28 29  1  0  0  0  0
  1 35  1  0  0  0  0
  2 36  1  0  0  0  0
  3 37  1  0  0  0  0
  4 38  1  0  0  0  0
  5 39  1  0  0  0  0
  6 40  1  0  0  0  0
  7 41  1  0  0  0  0
  8 42  1  0  0  0  0
  9 43  1  0  0  0  0
 10 44  1  0  0  0  0
 11 45  1  0  0  0  0
 12 46  1  0  0  0  0
 22 47  1  0  0  0  0
 22 48  1  0  0  0  0
 23 49  1  0  0  0  0
 23 50  1  0  0  0  0
 24 51  1  0  0  0  0
 24 52  1  0  0  0  0
 25 53  1  0  0  0  0
 25 54  1  0  0  0  0
 26 55  1  0  0  0  0
 26 56  1  0  0  0  0
 27 57  1  0  0  0  0
 27 58  1  0  0  0  0
 29 59  1  0  0  0  0
M  END
> <clash_score>
0.7790751876189459

> <docking_score>
-7.260632514953613

> <overlap_score>
1.015157699584961

$$$$
BENZO_416_1
  -OEChem-08222022203D

 55 59  0     0  0  0  0  0  0999 V2000
    4.2750    1.7050   20.8490 C   0  0  0  0  0  0  0  0  0  0  0  0
    3.9160    2.0630   19.5520 C   0  0  0  0  0  0  0  0  0  0  0  0
    5.4210    0.9600   21.0930 C   0  0  0  0  0  0  0  0  0  0  0  0
    4.6890    1.6810   18.4640 C   0  0  0  0  0  0  0  0  0  0  0  0
    8.9960   -2.3380   25.5320 C   0  0  0  0  0  0  0  0  0  0  0  0
    9.6730   -3.4710   23.5300 C   0  0  0  0  0  0  0  0  0  0  0  0
    9.0720   -1.1280   24.8640 C   0  0  0  0  0  0  0  0  0  0  0  0
    9.7200   -2.2600   22.8630 C   0  0  0  0  0  0  0  0  0  0  0  0
   12.2111    0.2208   23.7905 C   0  0  0  0  0  0  0  0  0  0  0  0
   13.5412    0.5479   23.9363 C   0  0  0  0  0  0  0  0  0  0  0  0
   12.1057    2.5423   23.8305 C   0  0  0  0  0  0  0  0  0  0  0  0
    6.1790    0.5730   19.9990 C   0  0  0  0  0  0  0  0  0  0  0  0
   11.3794    1.3761   23.7290 C   0  0  0  0  0  0  0  0  0  0  0  0
    5.8300    0.9190   18.6970 C   0  0  0  0  0  0  0  0  0  0  0  0
    9.3070   -3.5340   24.8780 C   0  0  0  0  0  0  0  0  0  0  0  0
    9.3350   -1.0880   23.5010 C   0  0  0  0  0  0  0  0  0  0  0  0
    7.3170   -0.1610   19.8550 C   0  0  0  0  0  0  0  0  0  0  0  0
    9.0420    0.3700   21.5280 C   0  0  0  0  0  0  0  0  0  0  0  0
    9.5175   -4.8597   26.9771 C   0  0  0  0  0  0  0  0  0  0  0  0
    8.5165   -5.8725   24.9808 C   0  0  0  0  0  0  0  0  0  0  0  0
    8.1868   -5.0439   27.6987 C   0  0  0  0  0  0  0  0  0  0  0  0
    7.2200   -6.0347   25.7755 C   0  0  0  0  0  0  0  0  0  0  0  0
    9.8870    1.3260   23.5730 C   0  0  0  0  0  0  0  0  0  0  0  0
    8.1890   -0.7180   20.8700 C   0  0  0  0  0  0  0  0  0  0  0  0
    6.7580    0.3810   17.8350 N   0  0  0  0  0  0  0  0  0  0  0  0
    7.6390   -0.2680   18.5410 N   0  0  0  0  0  0  0  0  0  0  0  0
    9.2563   -4.7368   25.5413 N   0  0  0  0  0  0  0  0  0  0  0  0
    9.4560    0.1560   22.8130 N   0  0  0  0  0  0  0  0  0  0  0  0
    9.2690    1.4140   20.9380 O   0  0  0  0  0  0  0  0  0  0  0  0
    7.4994   -6.1853   27.1719 O   0  0  0  0  0  0  0  0  0  0  0  0
   13.7831    2.2420   23.9988 S   0  0  0  0  0  0  0  0  0  0  0  0
    3.6562    2.0083   21.6780 H   0  0  0  0  0  0  0  0  0  0  0  0
    3.0225    2.6465   19.3867 H   0  0  0  0  0  0  0  0  0  0  0  0
    5.7084    0.6884   22.1515 H   0  0  0  0  0  0  0  0  0  0  0  0
    4.3943    1.9831   17.4240 H   0  0  0  0  0  0  0  0  0  0  0  0
    8.6905   -2.3533   26.5810 H   0  0  0  0  0  0  0  0  0  0  0  0
    9.9266   -4.3896   22.9917 H   0  0  0  0  0  0  0  0  0  0  0  0
    8.9233   -0.1992   25.4232 H   0  0  0  0  0  0  0  0  0  0  0  0
   10.0650   -2.2330   21.8256 H   0  0  0  0  0  0  0  0  0  0  0  0
   11.8558   -0.8003   23.7315 H   0  0  0  0  0  0  0  0  0  0  0  0
   14.3824   -0.1267   24.0100 H   0  0  0  0  0  0  0  0  0  0  0  0
   11.7354    3.5581   23.8155 H   0  0  0  0  0  0  0  0  0  0  0  0
   10.0205   -3.9698   27.3609 H   0  0  0  0  0  0  0  0  0  0  0  0
   10.1535   -5.7310   27.1549 H   0  0  0  0  0  0  0  0  0  0  0  0
    9.1181   -6.7773   25.0755 H   0  0  0  0  0  0  0  0  0  0  0  0
    8.2812   -5.7064   23.9305 H   0  0  0  0  0  0  0  0  0  0  0  0
    8.3629   -5.2252   28.7611 H   0  0  0  0  0  0  0  0  0  0  0  0
    7.5530   -4.1570   27.6103 H   0  0  0  0  0  0  0  0  0  0  0  0
    6.5459   -5.1839   25.6221 H   0  0  0  0  0  0  0  0  0  0  0  0
    6.6948   -6.9354   25.4436 H   0  0  0  0  0  0  0  0  0  0  0  0
    9.3974    1.2912   24.5523 H   0  0  0  0  0  0  0  0  0  0  0  0
    9.5159    2.2168   23.0554 H   0  0  0  0  0  0  0  0  0  0  0  0
    7.5972   -1.2056   21.6500 H   0  0  0  0  0  0  0  0  0  0  0  0
    8.8612   -1.4622   20.4334 H   0  0  0  0  0  0  0  0  0  0  0  0
    8.3933   -0.7388   18.1198 H   0  0  0  0  0  0  0  0  0  0  0  0
  1  2  1  0  0  0  0
  1  3  2  0  0  0  0
  2  4  2  0  0  0  0
  3 12  1  0  0  0  0
  4 14  1  0  0  0  0
  5  7  2  0  0  0  0
  5 15  1  0  0  0  0
  6  8  1  0  0  0  0
  6 15  2  0  0  0  0
  7 16  1  0  0  0  0
  8 16  2  0  0  0  0
  9 10  2  0  0  0  0
  9 13  1  0  0  0  0
 10 31  1  0  0  0  0
 11 13  2  0  0  0  0
 11 31  1  0  0  0  0
 12 14  1  0  0  0  0
 12 17  2  0  0  0  0
 13 23  1  0  0  0  0
 14 25  2  0  0  0  0
 15 27  1  0  0  0  0
 16 28  1  0  0  0  0
 17 24  1  0  0  0  0
 17 26  1  0  0  0  0
 18 24  1  0  0  0  0
 18 28  1  0  0  0  0
 18 29  2  0  0  0  0
 19 21  1  0  0  0  0
 19 27  1  0  0  0  0
 20 22  1  0  0  0  0
 20 27  1  0  0  0  0
 21 30  1  0  0  0  0
 22 30  1  0  0  0  0
 23 28  1  0  0  0  0
 25 26  1  0  0  0  0
  1 32  1  0  0  0  0
  2 33  1  0  0  0  0
  3 34  1  0  0  0  0
  4 35  1  0  0  0  0
  5 36  1  0  0  0  0
  6 37  1  0  0  0  0
  7 38  1  0  0  0  0
  8 39  1  0  0  0  0
  9 40  1  0  0  0  0
 10 41  1  0  0  0  0
 11 42  1  0  0  0  0
 19 43  1  0  0  0  0
 19 44  1  0  0  0  0
 20 45  1  0  0  0  0
 20 46  1  0  0  0  0
 21 47  1  0  0  0  0
 21 48  1  0  0  0  0
 22 49  1  0  0  0  0
 22 50  1  0  0  0  0
 23 51  1  0  0  0  0
 23 52  1  0  0  0  0
 24 53  1  0  0  0  0
 24 54  1  0  0  0  0
 26 55  1  0  0  0  0
M  END
> <clash_score>
0

> <docking_score>
-8.340062141418457

> <overlap_score>
0.9791509509086609

$$$$
BENZO_420_1
  -OEChem-08222022203D

 49 52  0     0  0  0  0  0  0999 V2000
    9.0720   -1.1280   24.8640 C   0  0  0  0  0  0  0  0  0  0  0  0
    9.7200   -2.2600   22.8630 C   0  0  0  0  0  0  0  0  0  0  0  0
    8.9960   -2.3380   25.5320 C   0  0  0  0  0  0  0  0  0  0  0  0
    9.6730   -3.4710   23.5300 C   0  0  0  0  0  0  0  0  0  0  0  0
   12.2913    1.4279   22.6355 C   0  0  0  0  0  0  0  0  0  0  0  0
   13.6024    1.4662   23.0564 C   0  0  0  0  0  0  0  0  0  0  0  0
   12.0284    1.3764   24.9443 C   0  0  0  0  0  0  0  0  0  0  0  0
   11.3794    1.3761   23.7290 C   0  0  0  0  0  0  0  0  0  0  0  0
    9.3350   -1.0880   23.5010 C   0  0  0  0  0  0  0  0  0  0  0  0
    9.3070   -3.5340   24.8780 C   0  0  0  0  0  0  0  0  0  0  0  0
    6.1790    0.5730   19.9990 C   0  0  0  0  0  0  0  0  0  0  0  0
    7.3170   -0.1610   19.8550 C   0  0  0  0  0  0  0  0  0  0  0  0
    5.4210    0.9600   21.0930 C   0  0  0  0  0  0  0  0  0  0  0  0
    4.2750    1.7050   20.8490 C   0  0  0  0  0  0  0  0  0  0  0  0
    3.9160    2.0630   19.5520 C   0  0  0  0  0  0  0  0  0  0  0  0
    4.6890    1.6810   18.4640 C   0  0  0  0  0  0  0  0  0  0  0  0
    9.0420    0.3700   21.5280 C   0  0  0  0  0  0  0  0  0  0  0  0
    8.8742   -4.8064   26.9496 C   0  0  0  0  0  0  0  0  0  0  0  0
    9.5655   -5.9897   24.8591 C   0  0  0  0  0  0  0  0  0  0  0  0
    9.8870    1.3260   23.5730 C   0  0  0  0  0  0  0  0  0  0  0  0
    8.1890   -0.7180   20.8700 C   0  0  0  0  0  0  0  0  0  0  0  0
    7.6390   -0.2680   18.5410 N   0  0  0  0  0  0  0  0  0  0  0  0
    6.7580    0.3810   17.8350 N   0  0  0  0  0  0  0  0  0  0  0  0
    5.8300    0.9190   18.6970 N   0  0  0  0  0  0  0  0  0  0  0  0
    9.4560    0.1560   22.8130 N   0  0  0  0  0  0  0  0  0  0  0  0
    9.2543   -4.7552   25.5519 N   0  0  0  0  0  0  0  0  0  0  0  0
    9.2690    1.4140   20.9380 O   0  0  0  0  0  0  0  0  0  0  0  0
   13.7301    1.4394   24.7638 S   0  0  0  0  0  0  0  0  0  0  0  0
    8.9217   -0.1995   25.4232 H   0  0  0  0  0  0  0  0  0  0  0  0
   10.0643   -2.2341   21.8254 H   0  0  0  0  0  0  0  0  0  0  0  0
    8.6893   -2.3540   26.5808 H   0  0  0  0  0  0  0  0  0  0  0  0
    9.9257   -4.3898   22.9921 H   0  0  0  0  0  0  0  0  0  0  0  0
   12.0045    1.4365   21.5915 H   0  0  0  0  0  0  0  0  0  0  0  0
   14.4914    1.5078   22.4430 H   0  0  0  0  0  0  0  0  0  0  0  0
   11.5886    1.3416   25.9314 H   0  0  0  0  0  0  0  0  0  0  0  0
    5.6859    0.7081   22.1001 H   0  0  0  0  0  0  0  0  0  0  0  0
    3.6634    2.0033   21.6928 H   0  0  0  0  0  0  0  0  0  0  0  0
    3.0114    2.6564   19.3629 H   0  0  0  0  0  0  0  0  0  0  0  0
    4.4373    1.9516   17.4622 H   0  0  0  0  0  0  0  0  0  0  0  0
    8.8922   -5.8499   27.2971 H   0  0  0  0  0  0  0  0  0  0  0  0
    9.5819   -4.2099   27.5440 H   0  0  0  0  0  0  0  0  0  0  0  0
    7.8598   -4.3978   27.0688 H   0  0  0  0  0  0  0  0  0  0  0  0
    9.4683   -6.8360   25.5551 H   0  0  0  0  0  0  0  0  0  0  0  0
    8.8685   -6.1243   24.0189 H   0  0  0  0  0  0  0  0  0  0  0  0
   10.5962   -5.9459   24.4772 H   0  0  0  0  0  0  0  0  0  0  0  0
    9.3974    1.2912   24.5523 H   0  0  0  0  0  0  0  0  0  0  0  0
    9.5159    2.2168   23.0553 H   0  0  0  0  0  0  0  0  0  0  0  0
    7.6102   -1.2091   21.6640 H   0  0  0  0  0  0  0  0  0  0  0  0
    8.8741   -1.4657   20.4475 H   0  0  0  0  0  0  0  0  0  0  0  0
  1  3  2  0  0  0  0
  1  9  1  0  0  0  0
  2  4  1  0  0  0  0
  2  9  2  0  0  0  0
  3 10  1  0  0  0  0
  4 10  2  0  0  0  0
  5  6  2  0  0  0  0
  5  8  1  0  0  0  0
  6 28  1  0  0  0  0
  7  8  2  0  0  0  0
  7 28  1  0  0  0  0
  8 20  1  0  0  0  0
  9 25  1  0  0  0  0
 10 26  1  0  0  0  0
 11 12  2  0  0  0  0
 11 13  1  0  0  0  0
 11 24  1  0  0  0  0
 12 21  1  0  0  0  0
 12 22  1  0  0  0  0
 13 14  2  0  0  0  0
 14 15  1  0  0  0  0
 15 16  2  0  0  0  0
 16 24  1  0  0  0  0
 17 21  1  0  0  0  0
 17 25  1  0  0  0  0
 17 27  2  0  0  0  0
 18 26  1  0  0  0  0
 19 26  1  0  0  0  0
 20 25  1  0  0  0  0
 22 23  2  0  0  0  0
 23 24  1  0  0  0  0
  1 29  1  0  0  0  0
  2 30  1  0  0  0  0
  3 31  1  0  0  0  0
  4 32  1  0  0  0  0
  5 33  1  0  0  0  0
  6 34  1  0  0  0  0
  7 35  1  0  0  0  0
 13 36  1  0  0  0  0
 14 37  1  0  0  0  0
 15 38  1  0  0  0  0
 16 39  1  0  0  0  0
 18 40  1  0  0  0  0
 18 41  1  0  0  0  0
 18 42  1  0  0  0  0
 19 43  1  0  0  0  0
 19 44  1  0  0  0  0
 19 45  1  0  0  0  0
 20 46  1  0  0  0  0
 20 47  1  0  0  0  0
 21 48  1  0  0  0  0
 21 49  1  0  0  0  0
M  END
> <clash_score>
0

> <docking_score>
-9.618836402893066

> <overlap_score>
0.963939368724823

$$$$
BENZO_421_1
  -OEChem-08222022203D

 52 55  0     0  0  0  0  0  0999 V2000
   14.1526    1.4694   24.0176 C   0  0  0  0  0  0  0  0  0  0  0  0
   13.3741    0.8121   24.9701 C   0  0  0  0  0  0  0  0  0  0  0  0
   13.5446    2.0802   22.9208 C   0  0  0  0  0  0  0  0  0  0  0  0
   11.9875    0.7654   24.8258 C   0  0  0  0  0  0  0  0  0  0  0  0
   12.1580    2.0335   22.7765 C   0  0  0  0  0  0  0  0  0  0  0  0
    9.0720   -1.1280   24.8640 C   0  0  0  0  0  0  0  0  0  0  0  0
    9.7200   -2.2600   22.8630 C   0  0  0  0  0  0  0  0  0  0  0  0
    8.9960   -2.3380   25.5320 C   0  0  0  0  0  0  0  0  0  0  0  0
    9.6730   -3.4710   23.5300 C   0  0  0  0  0  0  0  0  0  0  0  0
   11.3794    1.3761   23.7290 C   0  0  0  0  0  0  0  0  0  0  0  0
    9.3350   -1.0880   23.5010 C   0  0  0  0  0  0  0  0  0  0  0  0
    9.3070   -3.5340   24.8780 C   0  0  0  0  0  0  0  0  0  0  0  0
    6.1790    0.5730   19.9990 C   0  0  0  0  0  0  0  0  0  0  0  0
    7.3170   -0.1610   19.8550 C   0  0  0  0  0  0  0  0  0  0  0  0
    5.4210    0.9600   21.0930 C   0  0  0  0  0  0  0  0  0  0  0  0
    4.2750    1.7050   20.8490 C   0  0  0  0  0  0  0  0  0  0  0  0
    3.9160    2.0630   19.5520 C   0  0  0  0  0  0  0  0  0  0  0  0
    4.6890    1.6810   18.4640 C   0  0  0  0  0  0  0  0  0  0  0  0
    9.0420    0.3700   21.5280 C   0  0  0  0  0  0  0  0  0  0  0  0
    8.0128   -5.2151   26.1416 C   0  0  0  0  0  0  0  0  0  0  0  0
   10.4372   -5.5860   25.6589 C   0  0  0  0  0  0  0  0  0  0  0  0
    9.8870    1.3260   23.5730 C   0  0  0  0  0  0  0  0  0  0  0  0
    8.1890   -0.7180   20.8700 C   0  0  0  0  0  0  0  0  0  0  0  0
    7.6390   -0.2680   18.5410 N   0  0  0  0  0  0  0  0  0  0  0  0
    6.7580    0.3810   17.8350 N   0  0  0  0  0  0  0  0  0  0  0  0
    5.8300    0.9190   18.6970 N   0  0  0  0  0  0  0  0  0  0  0  0
    9.4560    0.1560   22.8130 N   0  0  0  0  0  0  0  0  0  0  0  0
    9.2543   -4.7552   25.5519 N   0  0  0  0  0  0  0  0  0  0  0  0
    9.2690    1.4140   20.9380 O   0  0  0  0  0  0  0  0  0  0  0  0
   15.2322    1.5068   24.1308 H   0  0  0  0  0  0  0  0  0  0  0  0
   13.8473    0.3374   25.8248 H   0  0  0  0  0  0  0  0  0  0  0  0
   14.1503    2.5930   22.1795 H   0  0  0  0  0  0  0  0  0  0  0  0
   11.3889    0.2508   25.5729 H   0  0  0  0  0  0  0  0  0  0  0  0
   11.6930    2.5120   21.9187 H   0  0  0  0  0  0  0  0  0  0  0  0
    8.9217   -0.1995   25.4232 H   0  0  0  0  0  0  0  0  0  0  0  0
   10.0643   -2.2341   21.8254 H   0  0  0  0  0  0  0  0  0  0  0  0
    8.6893   -2.3540   26.5808 H   0  0  0  0  0  0  0  0  0  0  0  0
    9.9257   -4.3898   22.9921 H   0  0  0  0  0  0  0  0  0  0  0  0
    5.6859    0.7081   22.1001 H   0  0  0  0  0  0  0  0  0  0  0  0
    3.6634    2.0033   21.6928 H   0  0  0  0  0  0  0  0  0  0  0  0
    3.0114    2.6564   19.3629 H   0  0  0  0  0  0  0  0  0  0  0  0
    4.4373    1.9516   17.4622 H   0  0  0  0  0  0  0  0  0  0  0  0
    8.1744   -6.1904   26.6238 H   0  0  0  0  0  0  0  0  0  0  0  0
    7.6718   -4.4870   26.8924 H   0  0  0  0  0  0  0  0  0  0  0  0
    7.2494   -5.3166   25.3561 H   0  0  0  0  0  0  0  0  0  0  0  0
   10.1946   -6.4995   26.2216 H   0  0  0  0  0  0  0  0  0  0  0  0
   10.7865   -5.8577   24.6518 H   0  0  0  0  0  0  0  0  0  0  0  0
   11.2285   -5.0312   26.1842 H   0  0  0  0  0  0  0  0  0  0  0  0
    9.3974    1.2912   24.5523 H   0  0  0  0  0  0  0  0  0  0  0  0
    9.5159    2.2168   23.0553 H   0  0  0  0  0  0  0  0  0  0  0  0
    7.6102   -1.2091   21.6640 H   0  0  0  0  0  0  0  0  0  0  0  0
    8.8741   -1.4657   20.4475 H   0  0  0  0  0  0  0  0  0  0  0  0
  1  2  1  0  0  0  0
  1  3  2  0  0  0  0
  2  4  2  0  0  0  0
  3  5  1  0  0  0  0
  4 10  1  0  0  0  0
  5 10  2  0  0  0  0
  6  8  2  0  0  0  0
  6 11  1  0  0  0  0
  7  9  1  0  0  0  0
  7 11  2  0  0  0  0
  8 12  1  0  0  0  0
  9 12  2  0  0  0  0
 10 22  1  0  0  0  0
 11 27  1  0  0  0  0
 12 28  1  0  0  0  0
 13 14  2  0  0  0  0
 13 15  1  0  0  0  0
 13 26  1  0  0  0  0
 14 23  1  0  0  0  0
 14 24  1  0  0  0  0
 15 16  2  0  0  0  0
 16 17  1  0  0  0  0
 17 18  2  0  0  0  0
 18 26  1  0  0  0  0
 19 23  1  0  0  0  0
 19 27  1  0  0  0  0
 19 29  2  0  0  0  0
 20 28  1  0  0  0  0
 21 28  1  0  0  0  0
 22 27  1  0  0  0  0
 24 25  2  0  0  0  0
 25 26  1  0  0  0  0
  1 30  1  0  0  0  0
  2 31  1  0  0  0  0
  3 32  1  0  0  0  0
  4 33  1  0  0  0  0
  5 34  1  0  0  0  0
  6 35  1  0  0  0  0
  7 36  1  0  0  0  0
  8 37  1  0  0  0  0
  9 38  1  0  0  0  0
 15 39  1  0  0  0  0
 16 40  1  0  0  0  0
 17 41  1  0  0  0  0
 18 42  1  0  0  0  0
 20 43  1  0  0  0  0
 20 44  1  0  0  0  0
 20 45  1  0  0  0  0
 21 46  1  0  0  0  0
 21 47  1  0  0  0  0
 21 48  1  0  0  0  0
 22 49  1  0  0  0  0
 22 50  1  0  0  0  0
 23 51  1  0  0  0  0
 23 52  1  0  0  0  0
M  END
> <clash_score>
0

> <docking_score>
-9.861856460571289

> <overlap_score>
0.9780114889144897

$$$$
BENZO_418_1
  -OEChem-08222022203D

 58 62  0     0  0  0  0  0  0999 V2000
    4.2750    1.7050   20.8490 C   0  0  0  0  0  0  0  0  0  0  0  0
    3.9160    2.0630   19.5520 C   0  0  0  0  0  0  0  0  0  0  0  0
   13.4007    0.5725   24.7805 C   0  0  0  0  0  0  0  0  0  0  0  0
    5.4210    0.9600   21.0930 C   0  0  0  0  0  0  0  0  0  0  0  0
   12.0141    0.5273   24.6359 C   0  0  0  0  0  0  0  0  0  0  0  0
    4.6890    1.6810   18.4640 C   0  0  0  0  0  0  0  0  0  0  0  0
    8.9960   -2.3380   25.5320 C   0  0  0  0  0  0  0  0  0  0  0  0
    9.6730   -3.4710   23.5300 C   0  0  0  0  0  0  0  0  0  0  0  0
    9.0720   -1.1280   24.8640 C   0  0  0  0  0  0  0  0  0  0  0  0
    9.7200   -2.2600   22.8630 C   0  0  0  0  0  0  0  0  0  0  0  0
   14.1526    1.4666   24.0184 C   0  0  0  0  0  0  0  0  0  0  0  0
   12.1314    2.2702   22.9668 C   0  0  0  0  0  0  0  0  0  0  0  0
    6.1790    0.5730   19.9990 C   0  0  0  0  0  0  0  0  0  0  0  0
   11.3794    1.3761   23.7290 C   0  0  0  0  0  0  0  0  0  0  0  0
    5.8300    0.9190   18.6970 C   0  0  0  0  0  0  0  0  0  0  0  0
    9.3070   -3.5340   24.8780 C   0  0  0  0  0  0  0  0  0  0  0  0
    9.3350   -1.0880   23.5010 C   0  0  0  0  0  0  0  0  0  0  0  0
   13.5180    2.3154   23.1115 C   0  0  0  0  0  0  0  0  0  0  0  0
    7.3170   -0.1610   19.8550 C   0  0  0  0  0  0  0  0  0  0  0  0
    9.0420    0.3700   21.5280 C   0  0  0  0  0  0  0  0  0  0  0  0
   10.0771   -5.0255   26.7193 C   0  0  0  0  0  0  0  0  0  0  0  0
    8.0927   -5.6195   25.4071 C   0  0  0  0  0  0  0  0  0  0  0  0
    9.1933   -4.9427   27.9592 C   0  0  0  0  0  0  0  0  0  0  0  0
    7.2756   -5.5290   26.6967 C   0  0  0  0  0  0  0  0  0  0  0  0
    9.8870    1.3260   23.5730 C   0  0  0  0  0  0  0  0  0  0  0  0
    8.1890   -0.7180   20.8700 C   0  0  0  0  0  0  0  0  0  0  0  0
    6.7580    0.3810   17.8350 N   0  0  0  0  0  0  0  0  0  0  0  0
    7.6390   -0.2680   18.5410 N   0  0  0  0  0  0  0  0  0  0  0  0
    9.2563   -4.7368   25.5413 N   0  0  0  0  0  0  0  0  0  0  0  0
    9.4560    0.1560   22.8130 N   0  0  0  0  0  0  0  0  0  0  0  0
    9.2690    1.4140   20.9380 O   0  0  0  0  0  0  0  0  0  0  0  0
    8.0883   -5.8459   27.8325 O   0  0  0  0  0  0  0  0  0  0  0  0
   14.4463    3.4175   22.1707 Cl  0  0  0  0  0  0  0  0  0  0  0  0
    3.6562    2.0083   21.6780 H   0  0  0  0  0  0  0  0  0  0  0  0
    3.0225    2.6465   19.3867 H   0  0  0  0  0  0  0  0  0  0  0  0
   13.8945   -0.0888   25.4867 H   0  0  0  0  0  0  0  0  0  0  0  0
    5.7084    0.6884   22.1515 H   0  0  0  0  0  0  0  0  0  0  0  0
   11.4361   -0.1726   25.2338 H   0  0  0  0  0  0  0  0  0  0  0  0
    4.3943    1.9831   17.4240 H   0  0  0  0  0  0  0  0  0  0  0  0
    8.6905   -2.3533   26.5810 H   0  0  0  0  0  0  0  0  0  0  0  0
    9.9266   -4.3896   22.9917 H   0  0  0  0  0  0  0  0  0  0  0  0
    8.9233   -0.1992   25.4232 H   0  0  0  0  0  0  0  0  0  0  0  0
   10.0650   -2.2330   21.8256 H   0  0  0  0  0  0  0  0  0  0  0  0
   15.2326    1.4907   24.1414 H   0  0  0  0  0  0  0  0  0  0  0  0
   11.6318    2.9303   22.2615 H   0  0  0  0  0  0  0  0  0  0  0  0
   10.8985   -4.3115   26.8085 H   0  0  0  0  0  0  0  0  0  0  0  0
   10.4915   -6.0334   26.6323 H   0  0  0  0  0  0  0  0  0  0  0  0
    8.4327   -6.6456   25.2620 H   0  0  0  0  0  0  0  0  0  0  0  0
    7.4725   -5.3241   24.5619 H   0  0  0  0  0  0  0  0  0  0  0  0
    9.7636   -5.2398   28.8419 H   0  0  0  0  0  0  0  0  0  0  0  0
    8.8236   -3.9268   28.1248 H   0  0  0  0  0  0  0  0  0  0  0  0
    6.8339   -4.5337   26.8232 H   0  0  0  0  0  0  0  0  0  0  0  0
    6.4550   -6.2521   26.6643 H   0  0  0  0  0  0  0  0  0  0  0  0
    9.3974    1.2912   24.5523 H   0  0  0  0  0  0  0  0  0  0  0  0
    9.5159    2.2168   23.0554 H   0  0  0  0  0  0  0  0  0  0  0  0
    7.5972   -1.2056   21.6500 H   0  0  0  0  0  0  0  0  0  0  0  0
    8.8612   -1.4622   20.4334 H   0  0  0  0  0  0  0  0  0  0  0  0
    8.3933   -0.7388   18.1198 H   0  0  0  0  0  0  0  0  0  0  0  0
  1  2  1  0  0  0  0
  1  4  2  0  0  0  0
  2  6  2  0  0  0  0
  3  5  2  0  0  0  0
  3 11  1  0  0  0  0
  4 13  1  0  0  0  0
  5 14  1  0  0  0  0
  6 15  1  0  0  0  0
  7  9  2  0  0  0  0
  7 16  1  0  0  0  0
  8 10  1  0  0  0  0
  8 16  2  0  0  0  0
  9 17  1  0  0  0  0
 10 17  2  0  0  0  0
 11 18  2  0  0  0  0
 12 14  2  0  0  0  0
 12 18  1  0  0  0  0
 13 15  1  0  0  0  0
 13 19  2  0  0  0  0
 14 25  1  0  0  0  0
 15 27  2  0  0  0  0
 16 29  1  0  0  0  0
 17 30  1  0  0  0  0
 18 33  1  0  0  0  0
 19 26  1  0  0  0  0
 19 28  1  0  0  0  0
 20 26  1  0  0  0  0
 20 30  1  0  0  0  0
 20 31  2  0  0  0  0
 21 23  1  0  0  0  0
 21 29  1  0  0  0  0
 22 24  1  0  0  0  0
 22 29  1  0  0  0  0
 23 32  1  0  0  0  0
 24 32  1  0  0  0  0
 25 30  1  0  0  0  0
 27 28  1  0  0  0  0
  1 34  1  0  0  0  0
  2 35  1  0  0  0  0
  3 36  1  0  0  0  0
  4 37  1  0  0  0  0
  5 38  1  0  0  0  0
  6 39  1  0  0  0  0
  7 40  1  0  0  0  0
  8 41  1  0  0  0  0
  9 42  1  0  0  0  0
 10 43  1  0  0  0  0
 11 44  1  0  0  0  0
 12 45  1  0  0  0  0
 21 46  1  0  0  0  0
 21 47  1  0  0  0  0
 22 48  1  0  0  0  0
 22 49  1  0  0  0  0
 23 50  1  0  0  0  0
 23 51  1  0  0  0  0
 24 52  1  0  0  0  0
 24 53  1  0  0  0  0
 25 54  1  0  0  0  0
 25 55  1  0  0  0  0
 26 56  1  0  0  0  0
 26 57  1  0  0  0  0
 28 58  1  0  0  0  0
M  END
> <clash_score>
0

> <docking_score>
-8.24176025390625

> <overlap_score>
1.001425862312317

$$$$
BENZO_419_1
  -OEChem-08222022203D

 58 62  0     0  0  0  0  0  0999 V2000
    4.2750    1.7050   20.8490 C   0  0  0  0  0  0  0  0  0  0  0  0
    3.9160    2.0630   19.5520 C   0  0  0  0  0  0  0  0  0  0  0  0
    5.4210    0.9600   21.0930 C   0  0  0  0  0  0  0  0  0  0  0  0
    4.6890    1.6810   18.4640 C   0  0  0  0  0  0  0  0  0  0  0  0
    8.9960   -2.3380   25.5320 C   0  0  0  0  0  0  0  0  0  0  0  0
    9.6730   -3.4710   23.5300 C   0  0  0  0  0  0  0  0  0  0  0  0
    9.0720   -1.1280   24.8640 C   0  0  0  0  0  0  0  0  0  0  0  0
    9.7200   -2.2600   22.8630 C   0  0  0  0  0  0  0  0  0  0  0  0
   12.2914    2.2071   23.0512 C   0  0  0  0  0  0  0  0  0  0  0  0
   12.1614    0.6214   24.5689 C   0  0  0  0  0  0  0  0  0  0  0  0
    6.1790    0.5730   19.9990 C   0  0  0  0  0  0  0  0  0  0  0  0
   11.3794    1.3761   23.7290 C   0  0  0  0  0  0  0  0  0  0  0  0
    5.8300    0.9190   18.6970 C   0  0  0  0  0  0  0  0  0  0  0  0
    9.3070   -3.5340   24.8780 C   0  0  0  0  0  0  0  0  0  0  0  0
    9.3350   -1.0880   23.5010 C   0  0  0  0  0  0  0  0  0  0  0  0
    7.3170   -0.1610   19.8550 C   0  0  0  0  0  0  0  0  0  0  0  0
    9.0420    0.3700   21.5280 C   0  0  0  0  0  0  0  0  0  0  0  0
   10.0771   -5.0255   26.7193 C   0  0  0  0  0  0  0  0  0  0  0  0
    8.0927   -5.6195   25.4071 C   0  0  0  0  0  0  0  0  0  0  0  0
    9.1933   -4.9427   27.9592 C   0  0  0  0  0  0  0  0  0  0  0  0
    7.2756   -5.5290   26.6967 C   0  0  0  0  0  0  0  0  0  0  0  0
   14.6267    0.5248   25.0067 C   0  0  0  0  0  0  0  0  0  0  0  0
    9.8870    1.3260   23.5730 C   0  0  0  0  0  0  0  0  0  0  0  0
    8.1890   -0.7180   20.8700 C   0  0  0  0  0  0  0  0  0  0  0  0
   13.5560    2.0002   23.4280 N   0  0  0  0  0  0  0  0  0  0  0  0
    6.7580    0.3810   17.8350 N   0  0  0  0  0  0  0  0  0  0  0  0
    7.6390   -0.2680   18.5410 N   0  0  0  0  0  0  0  0  0  0  0  0
   13.4442    1.0306   24.3518 N   0  0  0  0  0  0  0  0  0  0  0  0
    9.2563   -4.7368   25.5413 N   0  0  0  0  0  0  0  0  0  0  0  0
    9.4560    0.1560   22.8130 N   0  0  0  0  0  0  0  0  0  0  0  0
    9.2690    1.4140   20.9380 O   0  0  0  0  0  0  0  0  0  0  0  0
    8.0883   -5.8459   27.8325 O   0  0  0  0  0  0  0  0  0  0  0  0
    3.6562    2.0083   21.6780 H   0  0  0  0  0  0  0  0  0  0  0  0
    3.0225    2.6465   19.3867 H   0  0  0  0  0  0  0  0  0  0  0  0
    5.7084    0.6884   22.1515 H   0  0  0  0  0  0  0  0  0  0  0  0
    4.3943    1.9831   17.4240 H   0  0  0  0  0  0  0  0  0  0  0  0
    8.6905   -2.3533   26.5810 H   0  0  0  0  0  0  0  0  0  0  0  0
    9.9266   -4.3896   22.9917 H   0  0  0  0  0  0  0  0  0  0  0  0
    8.9233   -0.1992   25.4232 H   0  0  0  0  0  0  0  0  0  0  0  0
   10.0650   -2.2330   21.8256 H   0  0  0  0  0  0  0  0  0  0  0  0
   12.0895    2.9562   22.2987 H   0  0  0  0  0  0  0  0  0  0  0  0
   11.9201   -0.1519   25.2857 H   0  0  0  0  0  0  0  0  0  0  0  0
   10.8985   -4.3115   26.8085 H   0  0  0  0  0  0  0  0  0  0  0  0
   10.4915   -6.0334   26.6323 H   0  0  0  0  0  0  0  0  0  0  0  0
    8.4327   -6.6456   25.2620 H   0  0  0  0  0  0  0  0  0  0  0  0
    7.4725   -5.3241   24.5619 H   0  0  0  0  0  0  0  0  0  0  0  0
    9.7636   -5.2398   28.8419 H   0  0  0  0  0  0  0  0  0  0  0  0
    8.8236   -3.9268   28.1248 H   0  0  0  0  0  0  0  0  0  0  0  0
    6.8339   -4.5337   26.8232 H   0  0  0  0  0  0  0  0  0  0  0  0
    6.4550   -6.2521   26.6643 H   0  0  0  0  0  0  0  0  0  0  0  0
   15.0068   -0.3132   24.4165 H   0  0  0  0  0  0  0  0  0  0  0  0
   15.3758    1.3189   25.0699 H   0  0  0  0  0  0  0  0  0  0  0  0
   14.3675    0.1958   26.0170 H   0  0  0  0  0  0  0  0  0  0  0  0
    9.3974    1.2912   24.5523 H   0  0  0  0  0  0  0  0  0  0  0  0
    9.5159    2.2168   23.0554 H   0  0  0  0  0  0  0  0  0  0  0  0
    7.5972   -1.2056   21.6500 H   0  0  0  0  0  0  0  0  0  0  0  0
    8.8612   -1.4622   20.4334 H   0  0  0  0  0  0  0  0  0  0  0  0
    8.3933   -0.7388   18.1198 H   0  0  0  0  0  0  0  0  0  0  0  0
  1  2  1  0  0  0  0
  1  3  2  0  0  0  0
  2  4  2  0  0  0  0
  3 11  1  0  0  0  0
  4 13  1  0  0  0  0
  5  7  2  0  0  0  0
  5 14  1  0  0  0  0
  6  8  1  0  0  0  0
  6 14  2  0  0  0  0
  7 15  1  0  0  0  0
  8 15  2  0  0  0  0
  9 12  1  0  0  0  0
  9 25  2  0  0  0  0
 10 12  2  0  0  0  0
 10 28  1  0  0  0  0
 11 13  1  0  0  0  0
 11 16  2  0  0  0  0
 12 23  1  0  0  0  0
 13 26  2  0  0  0  0
 14 29  1  0  0  0  0
 15 30  1  0  0  0  0
 16 24  1  0  0  0  0
 16 27  1  0  0  0  0
 17 24  1  0  0  0  0
 17 30  1  0  0  0  0
 17 31  2  0  0  0  0
 18 20  1  0  0  0  0
 18 29  1  0  0  0  0
 19 21  1  0  0  0  0
 19 29  1  0  0  0  0
 20 32  1  0  0  0  0
 21 32  1  0  0  0  0
 22 28  1  0  0  0  0
 23 30  1  0  0  0  0
 25 28  1  0  0  0  0
 26 27  1  0  0  0  0
  1 33  1  0  0  0  0
  2 34  1  0  0  0  0
  3 35  1  0  0  0  0
  4 36  1  0  0  0  0
  5 37  1  0  0  0  0
  6 38  1  0  0  0  0
  7 39  1  0  0  0  0
  8 40  1  0  0  0  0
  9 41  1  0  0  0  0
 10 42  1  0  0  0  0
 18 43  1  0  0  0  0
 18 44  1  0  0  0  0
 19 45  1  0  0  0  0
 19 46  1  0  0  0  0
 20 47  1  0  0  0  0
 20 48  1  0  0  0  0
 21 49  1  0  0  0  0
 21 50  1  0  0  0  0
 22 51  1  0  0  0  0
 22 52  1  0  0  0  0
 22 53  1  0  0  0  0
 23 54  1  0  0  0  0
 23 55  1  0  0  0  0
 24 56  1  0  0  0  0
 24 57  1  0  0  0  0
 27 58  1  0  0  0  0
M  END
> <clash_score>
0.6199393561457518

> <docking_score>
-8.787936210632324

> <overlap_score>
0.9891132116317749

$$$$
BENZO_423_1
  -OEChem-08222022203D

 52 55  0     0  0  0  0  0  0999 V2000
    9.0720   -1.1280   24.8640 C   0  0  0  0  0  0  0  0  0  0  0  0
    9.7200   -2.2600   22.8630 C   0  0  0  0  0  0  0  0  0  0  0  0
    8.9960   -2.3380   25.5320 C   0  0  0  0  0  0  0  0  0  0  0  0
    9.6730   -3.4710   23.5300 C   0  0  0  0  0  0  0  0  0  0  0  0
   12.2914    2.2071   23.0512 C   0  0  0  0  0  0  0  0  0  0  0  0
   12.1614    0.6214   24.5689 C   0  0  0  0  0  0  0  0  0  0  0  0
   11.3794    1.3761   23.7290 C   0  0  0  0  0  0  0  0  0  0  0  0
    9.3350   -1.0880   23.5010 C   0  0  0  0  0  0  0  0  0  0  0  0
    9.3070   -3.5340   24.8780 C   0  0  0  0  0  0  0  0  0  0  0  0
    6.1790    0.5730   19.9990 C   0  0  0  0  0  0  0  0  0  0  0  0
    7.3170   -0.1610   19.8550 C   0  0  0  0  0  0  0  0  0  0  0  0
    5.4210    0.9600   21.0930 C   0  0  0  0  0  0  0  0  0  0  0  0
    4.2750    1.7050   20.8490 C   0  0  0  0  0  0  0  0  0  0  0  0
    3.9160    2.0630   19.5520 C   0  0  0  0  0  0  0  0  0  0  0  0
    4.6890    1.6810   18.4640 C   0  0  0  0  0  0  0  0  0  0  0  0
    9.0420    0.3700   21.5280 C   0  0  0  0  0  0  0  0  0  0  0  0
   14.6267    0.5248   25.0067 C   0  0  0  0  0  0  0  0  0  0  0  0
    8.0128   -5.2151   26.1416 C   0  0  0  0  0  0  0  0  0  0  0  0
   10.4372   -5.5860   25.6589 C   0  0  0  0  0  0  0  0  0  0  0  0
    9.8870    1.3260   23.5730 C   0  0  0  0  0  0  0  0  0  0  0  0
    8.1890   -0.7180   20.8700 C   0  0  0  0  0  0  0  0  0  0  0  0
   13.5560    2.0002   23.4280 N   0  0  0  0  0  0  0  0  0  0  0  0
    7.6390   -0.2680   18.5410 N   0  0  0  0  0  0  0  0  0  0  0  0
    6.7580    0.3810   17.8350 N   0  0  0  0  0  0  0  0  0  0  0  0
   13.4442    1.0306   24.3518 N   0  0  0  0  0  0  0  0  0  0  0  0
    5.8300    0.9190   18.6970 N   0  0  0  0  0  0  0  0  0  0  0  0
    9.4560    0.1560   22.8130 N   0  0  0  0  0  0  0  0  0  0  0  0
    9.2543   -4.7552   25.5519 N   0  0  0  0  0  0  0  0  0  0  0  0
    9.2690    1.4140   20.9380 O   0  0  0  0  0  0  0  0  0  0  0  0
    8.9217   -0.1995   25.4232 H   0  0  0  0  0  0  0  0  0  0  0  0
   10.0643   -2.2341   21.8254 H   0  0  0  0  0  0  0  0  0  0  0  0
    8.6893   -2.3540   26.5808 H   0  0  0  0  0  0  0  0  0  0  0  0
    9.9257   -4.3898   22.9921 H   0  0  0  0  0  0  0  0  0  0  0  0
   12.0895    2.9562   22.2987 H   0  0  0  0  0  0  0  0  0  0  0  0
   11.9201   -0.1518   25.2857 H   0  0  0  0  0  0  0  0  0  0  0  0
    5.6859    0.7081   22.1001 H   0  0  0  0  0  0  0  0  0  0  0  0
    3.6634    2.0033   21.6928 H   0  0  0  0  0  0  0  0  0  0  0  0
    3.0114    2.6564   19.3629 H   0  0  0  0  0  0  0  0  0  0  0  0
    4.4373    1.9516   17.4622 H   0  0  0  0  0  0  0  0  0  0  0  0
   15.0068   -0.3132   24.4165 H   0  0  0  0  0  0  0  0  0  0  0  0
   15.3758    1.3189   25.0698 H   0  0  0  0  0  0  0  0  0  0  0  0
   14.3676    0.1958   26.0170 H   0  0  0  0  0  0  0  0  0  0  0  0
    8.1744   -6.1904   26.6238 H   0  0  0  0  0  0  0  0  0  0  0  0
    7.6718   -4.4870   26.8924 H   0  0  0  0  0  0  0  0  0  0  0  0
    7.2494   -5.3166   25.3561 H   0  0  0  0  0  0  0  0  0  0  0  0
   10.1946   -6.4995   26.2216 H   0  0  0  0  0  0  0  0  0  0  0  0
   10.7865   -5.8577   24.6518 H   0  0  0  0  0  0  0  0  0  0  0  0
   11.2285   -5.0312   26.1842 H   0  0  0  0  0  0  0  0  0  0  0  0
    9.3974    1.2912   24.5523 H   0  0  0  0  0  0  0  0  0  0  0  0
    9.5159    2.2168   23.0553 H   0  0  0  0  0  0  0  0  0  0  0  0
    7.6102   -1.2091   21.6640 H   0  0  0  0  0  0  0  0  0  0  0  0
    8.8741   -1.4657   20.4475 H   0  0  0  0  0  0  0  0  0  0  0  0
  1  3  2  0  0  0  0
  1  8  1  0  0  0  0
  2  4  1  0  0  0  0
  2  8  2  0  0  0  0
  3  9  1  0  0  0  0
  4  9  2  0  0  0  0
  5  7  1  0  0  0  0
  5 22  2  0  0  0  0
  6  7  2  0  0  0  0
  6 25  1  0  0  0  0
  7 20  1  0  0  0  0
  8 27  1  0  0  0  0
  9 28  1  0  0  0  0
 10 11  2  0  0  0  0
 10 12  1  0  0  0  0
 10 26  1  0  0  0  0
 11 21  1  0  0  0  0
 11 23  1  0  0  0  0
 12 13  2  0  0  0  0
 13 14  1  0  0  0  0
 14 15  2  0  0  0  0
 15 26  1  0  0  0  0
 16 21  1  0  0  0  0
 16 27  1  0  0  0  0
 16 29  2  0  0  0  0
 17 25  1  0  0  0  0
 18 28  1  0  0  0  0
 19 28  1  0  0  0  0
 20 27  1  0  0  0  0
 22 25  1  0  0  0  0
 23 24  2  0  0  0  0
 24 26  1  0  0  0  0
  1 30  1  0  0  0  0
  2 31  1  0  0  0  0
  3 32  1  0  0  0  0
  4 33  1  0  0  0  0
  5 34  1  0  0  0  0
  6 35  1  0  0  0  0
 12 36  1  0  0  0  0
 13 37  1  0  0  0  0
 14 38  1  0  0  0  0
 15 39  1  0  0  0  0
 17 40  1  0  0  0  0
 17 41  1  0  0  0  0
 17 42  1  0  0  0  0
 18 43  1  0  0  0  0
 18 44  1  0  0  0  0
 18 45  1  0  0  0  0
 19 46  1  0  0  0  0
 19 47  1  0  0  0  0
 19 48  1  0  0  0  0
 20 49  1  0  0  0  0
 20 50  1  0  0  0  0
 21 51  1  0  0  0  0
 21 52  1  0  0  0  0
M  END
> <clash_score>
0.6199410862451628

> <docking_score>
-9.569864273071289

> <overlap_score>
0.9767897725105286

$$$$
BENZO_422_1
  -OEChem-08222022203D

 52 55  0     0  0  0  0  0  0999 V2000
   13.4007    0.5725   24.7805 C   0  0  0  0  0  0  0  0  0  0  0  0
   12.0141    0.5273   24.6359 C   0  0  0  0  0  0  0  0  0  0  0  0
    9.0720   -1.1280   24.8640 C   0  0  0  0  0  0  0  0  0  0  0  0
    9.7200   -2.2600   22.8630 C   0  0  0  0  0  0  0  0  0  0  0  0
    8.9960   -2.3380   25.5320 C   0  0  0  0  0  0  0  0  0  0  0  0
    9.6730   -3.4710   23.5300 C   0  0  0  0  0  0  0  0  0  0  0  0
   14.1526    1.4666   24.0184 C   0  0  0  0  0  0  0  0  0  0  0  0
   12.1314    2.2702   22.9668 C   0  0  0  0  0  0  0  0  0  0  0  0
   11.3794    1.3761   23.7290 C   0  0  0  0  0  0  0  0  0  0  0  0
    9.3350   -1.0880   23.5010 C   0  0  0  0  0  0  0  0  0  0  0  0
    9.3070   -3.5340   24.8780 C   0  0  0  0  0  0  0  0  0  0  0  0
   13.5180    2.3154   23.1115 C   0  0  0  0  0  0  0  0  0  0  0  0
    6.1790    0.5730   19.9990 C   0  0  0  0  0  0  0  0  0  0  0  0
    7.3170   -0.1610   19.8550 C   0  0  0  0  0  0  0  0  0  0  0  0
    5.4210    0.9600   21.0930 C   0  0  0  0  0  0  0  0  0  0  0  0
    4.2750    1.7050   20.8490 C   0  0  0  0  0  0  0  0  0  0  0  0
    3.9160    2.0630   19.5520 C   0  0  0  0  0  0  0  0  0  0  0  0
    4.6890    1.6810   18.4640 C   0  0  0  0  0  0  0  0  0  0  0  0
    9.0420    0.3700   21.5280 C   0  0  0  0  0  0  0  0  0  0  0  0
    8.0128   -5.2151   26.1416 C   0  0  0  0  0  0  0  0  0  0  0  0
   10.4372   -5.5860   25.6589 C   0  0  0  0  0  0  0  0  0  0  0  0
    9.8870    1.3260   23.5730 C   0  0  0  0  0  0  0  0  0  0  0  0
    8.1890   -0.7180   20.8700 C   0  0  0  0  0  0  0  0  0  0  0  0
    7.6390   -0.2680   18.5410 N   0  0  0  0  0  0  0  0  0  0  0  0
    6.7580    0.3810   17.8350 N   0  0  0  0  0  0  0  0  0  0  0  0
    5.8300    0.9190   18.6970 N   0  0  0  0  0  0  0  0  0  0  0  0
    9.4560    0.1560   22.8130 N   0  0  0  0  0  0  0  0  0  0  0  0
    9.2543   -4.7552   25.5519 N   0  0  0  0  0  0  0  0  0  0  0  0
    9.2690    1.4140   20.9380 O   0  0  0  0  0  0  0  0  0  0  0  0
   14.4463    3.4175   22.1707 Cl  0  0  0  0  0  0  0  0  0  0  0  0
   13.8945   -0.0888   25.4867 H   0  0  0  0  0  0  0  0  0  0  0  0
   11.4361   -0.1726   25.2338 H   0  0  0  0  0  0  0  0  0  0  0  0
    8.9217   -0.1995   25.4232 H   0  0  0  0  0  0  0  0  0  0  0  0
   10.0643   -2.2341   21.8254 H   0  0  0  0  0  0  0  0  0  0  0  0
    8.6893   -2.3540   26.5808 H   0  0  0  0  0  0  0  0  0  0  0  0
    9.9257   -4.3898   22.9921 H   0  0  0  0  0  0  0  0  0  0  0  0
   15.2326    1.4907   24.1414 H   0  0  0  0  0  0  0  0  0  0  0  0
   11.6318    2.9303   22.2615 H   0  0  0  0  0  0  0  0  0  0  0  0
    5.6859    0.7081   22.1001 H   0  0  0  0  0  0  0  0  0  0  0  0
    3.6634    2.0033   21.6928 H   0  0  0  0  0  0  0  0  0  0  0  0
    3.0114    2.6564   19.3629 H   0  0  0  0  0  0  0  0  0  0  0  0
    4.4373    1.9516   17.4622 H   0  0  0  0  0  0  0  0  0  0  0  0
    8.1744   -6.1904   26.6238 H   0  0  0  0  0  0  0  0  0  0  0  0
    7.6718   -4.4870   26.8924 H   0  0  0  0  0  0  0  0  0  0  0  0
    7.2494   -5.3166   25.3561 H   0  0  0  0  0  0  0  0  0  0  0  0
   10.1946   -6.4995   26.2216 H   0  0  0  0  0  0  0  0  0  0  0  0
   10.7865   -5.8577   24.6518 H   0  0  0  0  0  0  0  0  0  0  0  0
   11.2285   -5.0312   26.1842 H   0  0  0  0  0  0  0  0  0  0  0  0
    9.3974    1.2912   24.5523 H   0  0  0  0  0  0  0  0  0  0  0  0
    9.5159    2.2168   23.0553 H   0  0  0  0  0  0  0  0  0  0  0  0
    7.6102   -1.2091   21.6640 H   0  0  0  0  0  0  0  0  0  0  0  0
    8.8741   -1.4657   20.4475 H   0  0  0  0  0  0  0  0  0  0  0  0
  1  2  2  0  0  0  0
  1  7  1  0  0  0  0
  2  9  1  0  0  0  0
  3  5  2  0  0  0  0
  3 10  1  0  0  0  0
  4  6  1  0  0  0  0
  4 10  2  0  0  0  0
  5 11  1  0  0  0  0
  6 11  2  0  0  0  0
  7 12  2  0  0  0  0
  8  9  2  0  0  0  0
  8 12  1  0  0  0  0
  9 22  1  0  0  0  0
 10 27  1  0  0  0  0
 11 28  1  0  0  0  0
 12 30  1  0  0  0  0
 13 14  2  0  0  0  0
 13 15  1  0  0  0  0
 13 26  1  0  0  0  0
 14 23  1  0  0  0  0
 14 24  1  0  0  0  0
 15 16  2  0  0  0  0
 16 17  1  0  0  0  0
 17 18  2  0  0  0  0
 18 26  1  0  0  0  0
 19 23  1  0  0  0  0
 19 27  1  0  0  0  0
 19 29  2  0  0  0  0
 20 28  1  0  0  0  0
 21 28  1  0  0  0  0
 22 27  1  0  0  0  0
 24 25  2  0  0  0  0
 25 26  1  0  0  0  0
  1 31  1  0  0  0  0
  2 32  1  0  0  0  0
  3 33  1  0  0  0  0
  4 34  1  0  0  0  0
  5 35  1  0  0  0  0
  6 36  1  0  0  0  0
  7 37  1  0  0  0  0
  8 38  1  0  0  0  0
 15 39  1  0  0  0  0
 16 40  1  0  0  0  0
 17 41  1  0  0  0  0
 18 42  1  0  0  0  0
 20 43  1  0  0  0  0
 20 44  1  0  0  0  0
 20 45  1  0  0  0  0
 21 46  1  0  0  0  0
 21 47  1  0  0  0  0
 21 48  1  0  0  0  0
 22 49  1  0  0  0  0
 22 50  1  0  0  0  0
 23 51  1  0  0  0  0
 23 52  1  0  0  0  0
M  END
> <clash_score>
0

> <docking_score>
-8.998834609985352

> <overlap_score>
0.9891859889030457

$$$$
BENZO_424_1
  -OEChem-08222022203D

 51 54  0     0  0  0  0  0  0999 V2000
    8.9960   -2.3380   25.5320 C   0  0  0  0  0  0  0  0  0  0  0  0
    9.6730   -3.4710   23.5300 C   0  0  0  0  0  0  0  0  0  0  0  0
    9.0720   -1.1280   24.8640 C   0  0  0  0  0  0  0  0  0  0  0  0
    9.7200   -2.2600   22.8630 C   0  0  0  0  0  0  0  0  0  0  0  0
   12.2111    0.2208   23.7905 C   0  0  0  0  0  0  0  0  0  0  0  0
   13.5412    0.5479   23.9363 C   0  0  0  0  0  0  0  0  0  0  0  0
   12.1057    2.5424   23.8305 C   0  0  0  0  0  0  0  0  0  0  0  0
   11.3794    1.3761   23.7290 C   0  0  0  0  0  0  0  0  0  0  0  0
    9.3070   -3.5340   24.8780 C   0  0  0  0  0  0  0  0  0  0  0  0
    9.3350   -1.0880   23.5010 C   0  0  0  0  0  0  0  0  0  0  0  0
    6.1790    0.5730   19.9990 C   0  0  0  0  0  0  0  0  0  0  0  0
    7.3170   -0.1610   19.8550 C   0  0  0  0  0  0  0  0  0  0  0  0
    5.4210    0.9600   21.0930 C   0  0  0  0  0  0  0  0  0  0  0  0
    4.2750    1.7050   20.8490 C   0  0  0  0  0  0  0  0  0  0  0  0
    3.9160    2.0630   19.5520 C   0  0  0  0  0  0  0  0  0  0  0  0
    4.6890    1.6810   18.4640 C   0  0  0  0  0  0  0  0  0  0  0  0
    9.0420    0.3700   21.5280 C   0  0  0  0  0  0  0  0  0  0  0  0
    9.5333   -6.0236   25.0413 C   0  0  0  0  0  0  0  0  0  0  0  0
   10.6330   -7.3747   26.8774 C   0  0  0  0  0  0  0  0  0  0  0  0
    9.8870    1.3260   23.5730 C   0  0  0  0  0  0  0  0  0  0  0  0
    8.1890   -0.7180   20.8700 C   0  0  0  0  0  0  0  0  0  0  0  0
    9.3523   -7.0865   26.1148 C   0  0  0  0  0  0  0  0  0  0  0  0
    7.6390   -0.2680   18.5410 N   0  0  0  0  0  0  0  0  0  0  0  0
    6.7580    0.3810   17.8350 N   0  0  0  0  0  0  0  0  0  0  0  0
    5.8300    0.9190   18.6970 N   0  0  0  0  0  0  0  0  0  0  0  0
    9.2546   -4.7422   25.5438 N   0  0  0  0  0  0  0  0  0  0  0  0
    9.4560    0.1560   22.8130 N   0  0  0  0  0  0  0  0  0  0  0  0
    9.2690    1.4140   20.9380 O   0  0  0  0  0  0  0  0  0  0  0  0
    9.8805   -6.3052   23.8991 O   0  0  0  0  0  0  0  0  0  0  0  0
   13.7831    2.2420   23.9988 S   0  0  0  0  0  0  0  0  0  0  0  0
    8.6895   -2.3529   26.5807 H   0  0  0  0  0  0  0  0  0  0  0  0
    9.9262   -4.3897   22.9916 H   0  0  0  0  0  0  0  0  0  0  0  0
    8.9224   -0.1998   25.4238 H   0  0  0  0  0  0  0  0  0  0  0  0
   10.0649   -2.2343   21.8258 H   0  0  0  0  0  0  0  0  0  0  0  0
   11.8558   -0.8003   23.7315 H   0  0  0  0  0  0  0  0  0  0  0  0
   14.3824   -0.1267   24.0100 H   0  0  0  0  0  0  0  0  0  0  0  0
   11.7354    3.5581   23.8155 H   0  0  0  0  0  0  0  0  0  0  0  0
    5.6859    0.7081   22.1001 H   0  0  0  0  0  0  0  0  0  0  0  0
    3.6634    2.0033   21.6928 H   0  0  0  0  0  0  0  0  0  0  0  0
    3.0114    2.6564   19.3629 H   0  0  0  0  0  0  0  0  0  0  0  0
    4.4373    1.9516   17.4622 H   0  0  0  0  0  0  0  0  0  0  0  0
   11.4241   -7.7171   26.2022 H   0  0  0  0  0  0  0  0  0  0  0  0
   10.4629   -8.1531   27.6275 H   0  0  0  0  0  0  0  0  0  0  0  0
   10.9950   -6.4780   27.3910 H   0  0  0  0  0  0  0  0  0  0  0  0
    9.3974    1.2912   24.5523 H   0  0  0  0  0  0  0  0  0  0  0  0
    9.5159    2.2168   23.0553 H   0  0  0  0  0  0  0  0  0  0  0  0
    7.6102   -1.2091   21.6640 H   0  0  0  0  0  0  0  0  0  0  0  0
    8.8741   -1.4657   20.4475 H   0  0  0  0  0  0  0  0  0  0  0  0
    8.5795   -6.7463   26.8137 H   0  0  0  0  0  0  0  0  0  0  0  0
    8.9966   -8.0064   25.6366 H   0  0  0  0  0  0  0  0  0  0  0  0
    8.9776   -4.7057   26.5317 H   0  0  0  0  0  0  0  0  0  0  0  0
  1  3  2  0  0  0  0
  1  9  1  0  0  0  0
  2  4  1  0  0  0  0
  2  9  2  0  0  0  0
  3 10  1  0  0  0  0
  4 10  2  0  0  0  0
  5  6  2  0  0  0  0
  5  8  1  0  0  0  0
  6 30  1  0  0  0  0
  7  8  2  0  0  0  0
  7 30  1  0  0  0  0
  8 20  1  0  0  0  0
  9 26  1  0  0  0  0
 10 27  1  0  0  0  0
 11 12  2  0  0  0  0
 11 13  1  0  0  0  0
 11 25  1  0  0  0  0
 12 21  1  0  0  0  0
 12 23  1  0  0  0  0
 13 14  2  0  0  0  0
 14 15  1  0  0  0  0
 15 16  2  0  0  0  0
 16 25  1  0  0  0  0
 17 21  1  0  0  0  0
 17 27  1  0  0  0  0
 17 28  2  0  0  0  0
 18 22  1  0  0  0  0
 18 26  1  0  0  0  0
 18 29  2  0  0  0  0
 19 22  1  0  0  0  0
 20 27  1  0  0  0  0
 23 24  2  0  0  0  0
 24 25  1  0  0  0  0
  1 31  1  0  0  0  0
  2 32  1  0  0  0  0
  3 33  1  0  0  0  0
  4 34  1  0  0  0  0
  5 35  1  0  0  0  0
  6 36  1  0  0  0  0
  7 37  1  0  0  0  0
 13 38  1  0  0  0  0
 14 39  1  0  0  0  0
 15 40  1  0  0  0  0
 16 41  1  0  0  0  0
 19 42  1  0  0  0  0
 19 43  1  0  0  0  0
 19 44  1  0  0  0  0
 20 45  1  0  0  0  0
 20 46  1  0  0  0  0
 21 47  1  0  0  0  0
 21 48  1  0  0  0  0
 22 49  1  0  0  0  0
 22 50  1  0  0  0  0
 26 51  1  0  0  0  0
M  END
> <clash_score>
1.4986045736624285

> <docking_score>
-5.9407172203063965

> <overlap_score>
0.9652436971664429

$$$$
BENZO_425_1
  -OEChem-08222022203D

 54 57  0     0  0  0  0  0  0999 V2000
   14.1526    1.4694   24.0176 C   0  0  0  0  0  0  0  0  0  0  0  0
   13.3741    0.8121   24.9701 C   0  0  0  0  0  0  0  0  0  0  0  0
   13.5446    2.0802   22.9208 C   0  0  0  0  0  0  0  0  0  0  0  0
   11.9875    0.7654   24.8258 C   0  0  0  0  0  0  0  0  0  0  0  0
   12.1580    2.0335   22.7765 C   0  0  0  0  0  0  0  0  0  0  0  0
    8.9960   -2.3380   25.5320 C   0  0  0  0  0  0  0  0  0  0  0  0
    9.6730   -3.4710   23.5300 C   0  0  0  0  0  0  0  0  0  0  0  0
    9.0720   -1.1280   24.8640 C   0  0  0  0  0  0  0  0  0  0  0  0
    9.7200   -2.2600   22.8630 C   0  0  0  0  0  0  0  0  0  0  0  0
   11.3794    1.3761   23.7290 C   0  0  0  0  0  0  0  0  0  0  0  0
    9.3070   -3.5340   24.8780 C   0  0  0  0  0  0  0  0  0  0  0  0
    9.3350   -1.0880   23.5010 C   0  0  0  0  0  0  0  0  0  0  0  0
    6.1790    0.5730   19.9990 C   0  0  0  0  0  0  0  0  0  0  0  0
    7.3170   -0.1610   19.8550 C   0  0  0  0  0  0  0  0  0  0  0  0
    5.4210    0.9600   21.0930 C   0  0  0  0  0  0  0  0  0  0  0  0
    4.2750    1.7050   20.8490 C   0  0  0  0  0  0  0  0  0  0  0  0
    3.9160    2.0630   19.5520 C   0  0  0  0  0  0  0  0  0  0  0  0
    4.6890    1.6810   18.4640 C   0  0  0  0  0  0  0  0  0  0  0  0
    9.0420    0.3700   21.5280 C   0  0  0  0  0  0  0  0  0  0  0  0
    9.5333   -6.0236   25.0413 C   0  0  0  0  0  0  0  0  0  0  0  0
   10.6330   -7.3747   26.8774 C   0  0  0  0  0  0  0  0  0  0  0  0
    9.8870    1.3260   23.5730 C   0  0  0  0  0  0  0  0  0  0  0  0
    8.1890   -0.7180   20.8700 C   0  0  0  0  0  0  0  0  0  0  0  0
    9.3523   -7.0865   26.1148 C   0  0  0  0  0  0  0  0  0  0  0  0
    7.6390   -0.2680   18.5410 N   0  0  0  0  0  0  0  0  0  0  0  0
    6.7580    0.3810   17.8350 N   0  0  0  0  0  0  0  0  0  0  0  0
    5.8300    0.9190   18.6970 N   0  0  0  0  0  0  0  0  0  0  0  0
    9.2546   -4.7422   25.5438 N   0  0  0  0  0  0  0  0  0  0  0  0
    9.4560    0.1560   22.8130 N   0  0  0  0  0  0  0  0  0  0  0  0
    9.2690    1.4140   20.9380 O   0  0  0  0  0  0  0  0  0  0  0  0
    9.8805   -6.3052   23.8991 O   0  0  0  0  0  0  0  0  0  0  0  0
   15.2322    1.5068   24.1308 H   0  0  0  0  0  0  0  0  0  0  0  0
   13.8473    0.3374   25.8248 H   0  0  0  0  0  0  0  0  0  0  0  0
   14.1503    2.5930   22.1795 H   0  0  0  0  0  0  0  0  0  0  0  0
   11.3889    0.2508   25.5729 H   0  0  0  0  0  0  0  0  0  0  0  0
   11.6930    2.5120   21.9187 H   0  0  0  0  0  0  0  0  0  0  0  0
    8.6895   -2.3529   26.5807 H   0  0  0  0  0  0  0  0  0  0  0  0
    9.9262   -4.3897   22.9916 H   0  0  0  0  0  0  0  0  0  0  0  0
    8.9224   -0.1998   25.4238 H   0  0  0  0  0  0  0  0  0  0  0  0
   10.0649   -2.2343   21.8258 H   0  0  0  0  0  0  0  0  0  0  0  0
    5.6859    0.7081   22.1001 H   0  0  0  0  0  0  0  0  0  0  0  0
    3.6634    2.0033   21.6928 H   0  0  0  0  0  0  0  0  0  0  0  0
    3.0114    2.6564   19.3629 H   0  0  0  0  0  0  0  0  0  0  0  0
    4.4373    1.9516   17.4622 H   0  0  0  0  0  0  0  0  0  0  0  0
   11.4241   -7.7171   26.2022 H   0  0  0  0  0  0  0  0  0  0  0  0
   10.4629   -8.1531   27.6275 H   0  0  0  0  0  0  0  0  0  0  0  0
   10.9950   -6.4780   27.3910 H   0  0  0  0  0  0  0  0  0  0  0  0
    9.3974    1.2912   24.5523 H   0  0  0  0  0  0  0  0  0  0  0  0
    9.5159    2.2168   23.0553 H   0  0  0  0  0  0  0  0  0  0  0  0
    7.6102   -1.2091   21.6640 H   0  0  0  0  0  0  0  0  0  0  0  0
    8.8741   -1.4657   20.4475 H   0  0  0  0  0  0  0  0  0  0  0  0
    8.5795   -6.7463   26.8137 H   0  0  0  0  0  0  0  0  0  0  0  0
    8.9966   -8.0064   25.6366 H   0  0  0  0  0  0  0  0  0  0  0  0
    8.9776   -4.7057   26.5317 H   0  0  0  0  0  0  0  0  0  0  0  0
  1  2  1  0  0  0  0
  1  3  2  0  0  0  0
  2  4  2  0  0  0  0
  3  5  1  0  0  0  0
  4 10  1  0  0  0  0
  5 10  2  0  0  0  0
  6  8  2  0  0  0  0
  6 11  1  0  0  0  0
  7  9  1  0  0  0  0
  7 11  2  0  0  0  0
  8 12  1  0  0  0  0
  9 12  2  0  0  0  0
 10 22  1  0  0  0  0
 11 28  1  0  0  0  0
 12 29  1  0  0  0  0
 13 14  2  0  0  0  0
 13 15  1  0  0  0  0
 13 27  1  0  0  0  0
 14 23  1  0  0  0  0
 14 25  1  0  0  0  0
 15 16  2  0  0  0  0
 16 17  1  0  0  0  0
 17 18  2  0  0  0  0
 18 27  1  0  0  0  0
 19 23  1  0  0  0  0
 19 29  1  0  0  0  0
 19 30  2  0  0  0  0
 20 24  1  0  0  0  0
 20 28  1  0  0  0  0
 20 31  2  0  0  0  0
 21 24  1  0  0  0  0
 22 29  1  0  0  0  0
 25 26  2  0  0  0  0
 26 27  1  0  0  0  0
  1 32  1  0  0  0  0
  2 33  1  0  0  0  0
  3 34  1  0  0  0  0
  4 35  1  0  0  0  0
  5 36  1  0  0  0  0
  6 37  1  0  0  0  0
  7 38  1  0  0  0  0
  8 39  1  0  0  0  0
  9 40  1  0  0  0  0
 15 41  1  0  0  0  0
 16 42  1  0  0  0  0
 17 43  1  0  0  0  0
 18 44  1  0  0  0  0
 21 45  1  0  0  0  0
 21 46  1  0  0  0  0
 21 47  1  0  0  0  0
 22 48  1  0  0  0  0
 22 49  1  0  0  0  0
 23 50  1  0  0  0  0
 23 51  1  0  0  0  0
 24 52  1  0  0  0  0
 24 53  1  0  0  0  0
 28 54  1  0  0  0  0
M  END
> <clash_score>
1.4986045736624285

> <docking_score>
-6.6675496101379395

> <overlap_score>
0.980229377746582

$$$$
BENZO_429_1
  -OEChem-08222022203D

 59 63  0     0  0  0  0  0  0999 V2000
   14.1526    1.4694   24.0176 C   0  0  0  0  0  0  0  0  0  0  0  0
   13.3741    0.8121   24.9701 C   0  0  0  0  0  0  0  0  0  0  0  0
   13.5446    2.0802   22.9208 C   0  0  0  0  0  0  0  0  0  0  0  0
   11.9875    0.7654   24.8258 C   0  0  0  0  0  0  0  0  0  0  0  0
   12.1580    2.0335   22.7765 C   0  0  0  0  0  0  0  0  0  0  0  0
    8.9960   -2.3380   25.5320 C   0  0  0  0  0  0  0  0  0  0  0  0
    9.6730   -3.4710   23.5300 C   0  0  0  0  0  0  0  0  0  0  0  0
    9.0720   -1.1280   24.8640 C   0  0  0  0  0  0  0  0  0  0  0  0
    9.7200   -2.2600   22.8630 C   0  0  0  0  0  0  0  0  0  0  0  0
   11.3794    1.3761   23.7290 C   0  0  0  0  0  0  0  0  0  0  0  0
    9.3070   -3.5340   24.8780 C   0  0  0  0  0  0  0  0  0  0  0  0
    9.3350   -1.0880   23.5010 C   0  0  0  0  0  0  0  0  0  0  0  0
    6.1790    0.5730   19.9990 C   0  0  0  0  0  0  0  0  0  0  0  0
    7.3170   -0.1610   19.8550 C   0  0  0  0  0  0  0  0  0  0  0  0
    5.4210    0.9600   21.0930 C   0  0  0  0  0  0  0  0  0  0  0  0
    4.2750    1.7050   20.8490 C   0  0  0  0  0  0  0  0  0  0  0  0
    3.9160    2.0630   19.5520 C   0  0  0  0  0  0  0  0  0  0  0  0
    4.6890    1.6810   18.4640 C   0  0  0  0  0  0  0  0  0  0  0  0
    9.0420    0.3700   21.5280 C   0  0  0  0  0  0  0  0  0  0  0  0
    7.3635   -6.1361   27.1888 C   0  0  0  0  0  0  0  0  0  0  0  0
    8.1961   -4.9735   27.7341 C   0  0  0  0  0  0  0  0  0  0  0  0
    7.1942   -6.0394   25.6709 C   0  0  0  0  0  0  0  0  0  0  0  0
    9.5196   -4.8490   26.9797 C   0  0  0  0  0  0  0  0  0  0  0  0
    8.5442   -5.8838   24.9639 C   0  0  0  0  0  0  0  0  0  0  0  0
    9.8870    1.3260   23.5730 C   0  0  0  0  0  0  0  0  0  0  0  0
    8.1890   -0.7180   20.8700 C   0  0  0  0  0  0  0  0  0  0  0  0
    7.6390   -0.2680   18.5410 N   0  0  0  0  0  0  0  0  0  0  0  0
    6.7580    0.3810   17.8350 N   0  0  0  0  0  0  0  0  0  0  0  0
    5.8300    0.9190   18.6970 N   0  0  0  0  0  0  0  0  0  0  0  0
    9.2562   -4.7384   25.5422 N   0  0  0  0  0  0  0  0  0  0  0  0
    9.4560    0.1560   22.8130 N   0  0  0  0  0  0  0  0  0  0  0  0
    9.2690    1.4140   20.9380 O   0  0  0  0  0  0  0  0  0  0  0  0
   15.2322    1.5068   24.1308 H   0  0  0  0  0  0  0  0  0  0  0  0
   13.8473    0.3374   25.8248 H   0  0  0  0  0  0  0  0  0  0  0  0
   14.1503    2.5930   22.1795 H   0  0  0  0  0  0  0  0  0  0  0  0
   11.3889    0.2508   25.5729 H   0  0  0  0  0  0  0  0  0  0  0  0
   11.6930    2.5120   21.9187 H   0  0  0  0  0  0  0  0  0  0  0  0
    8.6905   -2.3533   26.5810 H   0  0  0  0  0  0  0  0  0  0  0  0
    9.9266   -4.3896   22.9917 H   0  0  0  0  0  0  0  0  0  0  0  0
    8.9233   -0.1992   25.4231 H   0  0  0  0  0  0  0  0  0  0  0  0
   10.0650   -2.2330   21.8256 H   0  0  0  0  0  0  0  0  0  0  0  0
    5.6859    0.7081   22.1001 H   0  0  0  0  0  0  0  0  0  0  0  0
    3.6634    2.0033   21.6928 H   0  0  0  0  0  0  0  0  0  0  0  0
    3.0114    2.6564   19.3629 H   0  0  0  0  0  0  0  0  0  0  0  0
    4.4373    1.9516   17.4622 H   0  0  0  0  0  0  0  0  0  0  0  0
    7.8482   -7.0901   27.4469 H   0  0  0  0  0  0  0  0  0  0  0  0
    6.3760   -6.1438   27.6724 H   0  0  0  0  0  0  0  0  0  0  0  0
    7.6307   -4.0424   27.6403 H   0  0  0  0  0  0  0  0  0  0  0  0
    8.3915   -5.1310   28.7968 H   0  0  0  0  0  0  0  0  0  0  0  0
    6.6888   -6.9376   25.3010 H   0  0  0  0  0  0  0  0  0  0  0  0
    6.5515   -5.1859   25.4257 H   0  0  0  0  0  0  0  0  0  0  0  0
   10.0492   -3.9640   27.3414 H   0  0  0  0  0  0  0  0  0  0  0  0
   10.1431   -5.7254   27.1778 H   0  0  0  0  0  0  0  0  0  0  0  0
    9.1338   -6.7931   25.0868 H   0  0  0  0  0  0  0  0  0  0  0  0
    8.3656   -5.7264   23.8998 H   0  0  0  0  0  0  0  0  0  0  0  0
    9.3974    1.2912   24.5523 H   0  0  0  0  0  0  0  0  0  0  0  0
    9.5159    2.2168   23.0554 H   0  0  0  0  0  0  0  0  0  0  0  0
    7.5972   -1.2056   21.6500 H   0  0  0  0  0  0  0  0  0  0  0  0
    8.8612   -1.4622   20.4334 H   0  0  0  0  0  0  0  0  0  0  0  0
  1  2  1  0  0  0  0
  1  3  2  0  0  0  0
  2  4  2  0  0  0  0
  3  5  1  0  0  0  0
  4 10  1  0  0  0  0
  5 10  2  0  0  0  0
  6  8  2  0  0  0  0
  6 11  1  0  0  0  0
  7  9  1  0  0  0  0
  7 11  2  0  0  0  0
  8 12  1  0  0  0  0
  9 12  2  0  0  0  0
 10 25  1  0  0  0  0
 11 30  1  0  0  0  0
 12 31  1  0  0  0  0
 13 14  2  0  0  0  0
 13 15  1  0  0  0  0
 13 29  1  0  0  0  0
 14 26  1  0  0  0  0
 14 27  1  0  0  0  0
 15 16  2  0  0  0  0
 16 17  1  0  0  0  0
 17 18  2  0  0  0  0
 18 29  1  0  0  0  0
 19 26  1  0  0  0  0
 19 31  1  0  0  0  0
 19 32  2  0  0  0  0
 20 21  1  0  0  0  0
 20 22  1  0  0  0  0
 21 23  1  0  0  0  0
 22 24  1  0  0  0  0
 23 30  1  0  0  0  0
 24 30  1  0  0  0  0
 25 31  1  0  0  0  0
 27 28  2  0  0  0  0
 28 29  1  0  0  0  0
  1 33  1  0  0  0  0
  2 34  1  0  0  0  0
  3 35  1  0  0  0  0
  4 36  1  0  0  0  0
  5 37  1  0  0  0  0
  6 38  1  0  0  0  0
  7 39  1  0  0  0  0
  8 40  1  0  0  0  0
  9 41  1  0  0  0  0
 15 42  1  0  0  0  0
 16 43  1  0  0  0  0
 17 44  1  0  0  0  0
 18 45  1  0  0  0  0
 20 46  1  0  0  0  0
 20 47  1  0  0  0  0
 21 48  1  0  0  0  0
 21 49  1  0  0  0  0
 22 50  1  0  0  0  0
 22 51  1  0  0  0  0
 23 52  1  0  0  0  0
 23 53  1  0  0  0  0
 24 54  1  0  0  0  0
 24 55  1  0  0  0  0
 25 56  1  0  0  0  0
 25 57  1  0  0  0  0
 26 58  1  0  0  0  0
 26 59  1  0  0  0  0
M  END
> <clash_score>
0

> <docking_score>
-8.957620620727539

> <overlap_score>
0.9931821227073669

$$$$
BENZO_427_1
  -OEChem-08222022203D

 54 57  0     0  0  0  0  0  0999 V2000
    8.9960   -2.3380   25.5320 C   0  0  0  0  0  0  0  0  0  0  0  0
    9.6730   -3.4710   23.5300 C   0  0  0  0  0  0  0  0  0  0  0  0
    9.0720   -1.1280   24.8640 C   0  0  0  0  0  0  0  0  0  0  0  0
    9.7200   -2.2600   22.8630 C   0  0  0  0  0  0  0  0  0  0  0  0
   12.2914    2.2071   23.0512 C   0  0  0  0  0  0  0  0  0  0  0  0
   12.1614    0.6214   24.5689 C   0  0  0  0  0  0  0  0  0  0  0  0
   11.3794    1.3761   23.7290 C   0  0  0  0  0  0  0  0  0  0  0  0
    9.3070   -3.5340   24.8780 C   0  0  0  0  0  0  0  0  0  0  0  0
    9.3350   -1.0880   23.5010 C   0  0  0  0  0  0  0  0  0  0  0  0
    6.1790    0.5730   19.9990 C   0  0  0  0  0  0  0  0  0  0  0  0
    7.3170   -0.1610   19.8550 C   0  0  0  0  0  0  0  0  0  0  0  0
    5.4210    0.9600   21.0930 C   0  0  0  0  0  0  0  0  0  0  0  0
    4.2750    1.7050   20.8490 C   0  0  0  0  0  0  0  0  0  0  0  0
    3.9160    2.0630   19.5520 C   0  0  0  0  0  0  0  0  0  0  0  0
    4.6890    1.6810   18.4640 C   0  0  0  0  0  0  0  0  0  0  0  0
    9.0420    0.3700   21.5280 C   0  0  0  0  0  0  0  0  0  0  0  0
    9.5333   -6.0236   25.0413 C   0  0  0  0  0  0  0  0  0  0  0  0
   10.6330   -7.3747   26.8774 C   0  0  0  0  0  0  0  0  0  0  0  0
   14.6267    0.5248   25.0067 C   0  0  0  0  0  0  0  0  0  0  0  0
    9.8870    1.3260   23.5730 C   0  0  0  0  0  0  0  0  0  0  0  0
    8.1890   -0.7180   20.8700 C   0  0  0  0  0  0  0  0  0  0  0  0
    9.3523   -7.0865   26.1148 C   0  0  0  0  0  0  0  0  0  0  0  0
   13.5560    2.0002   23.4280 N   0  0  0  0  0  0  0  0  0  0  0  0
    7.6390   -0.2680   18.5410 N   0  0  0  0  0  0  0  0  0  0  0  0
    6.7580    0.3810   17.8350 N   0  0  0  0  0  0  0  0  0  0  0  0
   13.4442    1.0306   24.3518 N   0  0  0  0  0  0  0  0  0  0  0  0
    5.8300    0.9190   18.6970 N   0  0  0  0  0  0  0  0  0  0  0  0
    9.2546   -4.7422   25.5438 N   0  0  0  0  0  0  0  0  0  0  0  0
    9.4560    0.1560   22.8130 N   0  0  0  0  0  0  0  0  0  0  0  0
    9.2690    1.4140   20.9380 O   0  0  0  0  0  0  0  0  0  0  0  0
    9.8805   -6.3052   23.8991 O   0  0  0  0  0  0  0  0  0  0  0  0
    8.6895   -2.3529   26.5807 H   0  0  0  0  0  0  0  0  0  0  0  0
    9.9262   -4.3897   22.9916 H   0  0  0  0  0  0  0  0  0  0  0  0
    8.9224   -0.1998   25.4238 H   0  0  0  0  0  0  0  0  0  0  0  0
   10.0649   -2.2343   21.8258 H   0  0  0  0  0  0  0  0  0  0  0  0
   12.0895    2.9562   22.2987 H   0  0  0  0  0  0  0  0  0  0  0  0
   11.9201   -0.1518   25.2857 H   0  0  0  0  0  0  0  0  0  0  0  0
    5.6859    0.7081   22.1001 H   0  0  0  0  0  0  0  0  0  0  0  0
    3.6634    2.0033   21.6928 H   0  0  0  0  0  0  0  0  0  0  0  0
    3.0114    2.6564   19.3629 H   0  0  0  0  0  0  0  0  0  0  0  0
    4.4373    1.9516   17.4622 H   0  0  0  0  0  0  0  0  0  0  0  0
   11.4241   -7.7171   26.2022 H   0  0  0  0  0  0  0  0  0  0  0  0
   10.4629   -8.1531   27.6275 H   0  0  0  0  0  0  0  0  0  0  0  0
   10.9950   -6.4780   27.3910 H   0  0  0  0  0  0  0  0  0  0  0  0
   15.0068   -0.3132   24.4165 H   0  0  0  0  0  0  0  0  0  0  0  0
   15.3758    1.3189   25.0698 H   0  0  0  0  0  0  0  0  0  0  0  0
   14.3676    0.1958   26.0170 H   0  0  0  0  0  0  0  0  0  0  0  0
    9.3974    1.2912   24.5523 H   0  0  0  0  0  0  0  0  0  0  0  0
    9.5159    2.2168   23.0553 H   0  0  0  0  0  0  0  0  0  0  0  0
    7.6102   -1.2091   21.6640 H   0  0  0  0  0  0  0  0  0  0  0  0
    8.8741   -1.4657   20.4475 H   0  0  0  0  0  0  0  0  0  0  0  0
    8.5795   -6.7463   26.8137 H   0  0  0  0  0  0  0  0  0  0  0  0
    8.9966   -8.0064   25.6366 H   0  0  0  0  0  0  0  0  0  0  0  0
    8.9776   -4.7057   26.5317 H   0  0  0  0  0  0  0  0  0  0  0  0
  1  3  2  0  0  0  0
  1  8  1  0  0  0  0
  2  4  1  0  0  0  0
  2  8  2  0  0  0  0
  3  9  1  0  0  0  0
  4  9  2  0  0  0  0
  5  7  1  0  0  0  0
  5 23  2  0  0  0  0
  6  7  2  0  0  0  0
  6 26  1  0  0  0  0
  7 20  1  0  0  0  0
  8 28  1  0  0  0  0
  9 29  1  0  0  0  0
 10 11  2  0  0  0  0
 10 12  1  0  0  0  0
 10 27  1  0  0  0  0
 11 21  1  0  0  0  0
 11 24  1  0  0  0  0
 12 13  2  0  0  0  0
 13 14  1  0  0  0  0
 14 15  2  0  0  0  0
 15 27  1  0  0  0  0
 16 21  1  0  0  0  0
 16 29  1  0  0  0  0
 16 30  2  0  0  0  0
 17 22  1  0  0  0  0
 17 28  1  0  0  0  0
 17 31  2  0  0  0  0
 18 22  1  0  0  0  0
 19 26  1  0  0  0  0
 20 29  1  0  0  0  0
 23 26  1  0  0  0  0
 24 25  2  0  0  0  0
 25 27  1  0  0  0  0
  1 32  1  0  0  0  0
  2 33  1  0  0  0  0
  3 34  1  0  0  0  0
  4 35  1  0  0  0  0
  5 36  1  0  0  0  0
  6 37  1  0  0  0  0
 12 38  1  0  0  0  0
 13 39  1  0  0  0  0
 14 40  1  0  0  0  0
 15 41  1  0  0  0  0
 18 42  1  0  0  0  0
 18 43  1  0  0  0  0
 18 44  1  0  0  0  0
 19 45  1  0  0  0  0
 19 46  1  0  0  0  0
 19 47  1  0  0  0  0
 20 48  1  0  0  0  0
 20 49  1  0  0  0  0
 21 50  1  0  0  0  0
 21 51  1  0  0  0  0
 22 52  1  0  0  0  0
 22 53  1  0  0  0  0
 28 54  1  0  0  0  0
M  END
> <clash_score>
2.1185456599075914

> <docking_score>
-6.375558853149414

> <overlap_score>
0.9790109992027283

$$$$
BENZO_426_1
  -OEChem-08222022203D

 54 57  0     0  0  0  0  0  0999 V2000
   13.4007    0.5725   24.7805 C   0  0  0  0  0  0  0  0  0  0  0  0
   12.0141    0.5273   24.6359 C   0  0  0  0  0  0  0  0  0  0  0  0
    8.9960   -2.3380   25.5320 C   0  0  0  0  0  0  0  0  0  0  0  0
    9.6730   -3.4710   23.5300 C   0  0  0  0  0  0  0  0  0  0  0  0
    9.0720   -1.1280   24.8640 C   0  0  0  0  0  0  0  0  0  0  0  0
    9.7200   -2.2600   22.8630 C   0  0  0  0  0  0  0  0  0  0  0  0
   14.1526    1.4666   24.0184 C   0  0  0  0  0  0  0  0  0  0  0  0
   12.1314    2.2702   22.9668 C   0  0  0  0  0  0  0  0  0  0  0  0
   11.3794    1.3761   23.7290 C   0  0  0  0  0  0  0  0  0  0  0  0
    9.3070   -3.5340   24.8780 C   0  0  0  0  0  0  0  0  0  0  0  0
    9.3350   -1.0880   23.5010 C   0  0  0  0  0  0  0  0  0  0  0  0
   13.5180    2.3154   23.1115 C   0  0  0  0  0  0  0  0  0  0  0  0
    6.1790    0.5730   19.9990 C   0  0  0  0  0  0  0  0  0  0  0  0
    7.3170   -0.1610   19.8550 C   0  0  0  0  0  0  0  0  0  0  0  0
    5.4210    0.9600   21.0930 C   0  0  0  0  0  0  0  0  0  0  0  0
    4.2750    1.7050   20.8490 C   0  0  0  0  0  0  0  0  0  0  0  0
    3.9160    2.0630   19.5520 C   0  0  0  0  0  0  0  0  0  0  0  0
    4.6890    1.6810   18.4640 C   0  0  0  0  0  0  0  0  0  0  0  0
    9.0420    0.3700   21.5280 C   0  0  0  0  0  0  0  0  0  0  0  0
    9.5333   -6.0236   25.0413 C   0  0  0  0  0  0  0  0  0  0  0  0
   10.6330   -7.3747   26.8774 C   0  0  0  0  0  0  0  0  0  0  0  0
    9.8870    1.3260   23.5730 C   0  0  0  0  0  0  0  0  0  0  0  0
    8.1890   -0.7180   20.8700 C   0  0  0  0  0  0  0  0  0  0  0  0
    9.3523   -7.0865   26.1148 C   0  0  0  0  0  0  0  0  0  0  0  0
    7.6390   -0.2680   18.5410 N   0  0  0  0  0  0  0  0  0  0  0  0
    6.7580    0.3810   17.8350 N   0  0  0  0  0  0  0  0  0  0  0  0
    5.8300    0.9190   18.6970 N   0  0  0  0  0  0  0  0  0  0  0  0
    9.2546   -4.7422   25.5438 N   0  0  0  0  0  0  0  0  0  0  0  0
    9.4560    0.1560   22.8130 N   0  0  0  0  0  0  0  0  0  0  0  0
    9.2690    1.4140   20.9380 O   0  0  0  0  0  0  0  0  0  0  0  0
    9.8805   -6.3052   23.8991 O   0  0  0  0  0  0  0  0  0  0  0  0
   14.4463    3.4175   22.1707 Cl  0  0  0  0  0  0  0  0  0  0  0  0
   13.8945   -0.0888   25.4867 H   0  0  0  0  0  0  0  0  0  0  0  0
   11.4361   -0.1726   25.2338 H   0  0  0  0  0  0  0  0  0  0  0  0
    8.6895   -2.3529   26.5807 H   0  0  0  0  0  0  0  0  0  0  0  0
    9.9262   -4.3897   22.9916 H   0  0  0  0  0  0  0  0  0  0  0  0
    8.9224   -0.1998   25.4238 H   0  0  0  0  0  0  0  0  0  0  0  0
   10.0649   -2.2343   21.8258 H   0  0  0  0  0  0  0  0  0  0  0  0
   15.2326    1.4907   24.1414 H   0  0  0  0  0  0  0  0  0  0  0  0
   11.6318    2.9303   22.2615 H   0  0  0  0  0  0  0  0  0  0  0  0
    5.6859    0.7081   22.1001 H   0  0  0  0  0  0  0  0  0  0  0  0
    3.6634    2.0033   21.6928 H   0  0  0  0  0  0  0  0  0  0  0  0
    3.0114    2.6564   19.3629 H   0  0  0  0  0  0  0  0  0  0  0  0
    4.4373    1.9516   17.4622 H   0  0  0  0  0  0  0  0  0  0  0  0
   11.4241   -7.7171   26.2022 H   0  0  0  0  0  0  0  0  0  0  0  0
   10.4629   -8.1531   27.6275 H   0  0  0  0  0  0  0  0  0  0  0  0
   10.9950   -6.4780   27.3910 H   0  0  0  0  0  0  0  0  0  0  0  0
    9.3974    1.2912   24.5523 H   0  0  0  0  0  0  0  0  0  0  0  0
    9.5159    2.2168   23.0553 H   0  0  0  0  0  0  0  0  0  0  0  0
    7.6102   -1.2091   21.6640 H   0  0  0  0  0  0  0  0  0  0  0  0
    8.8741   -1.4657   20.4475 H   0  0  0  0  0  0  0  0  0  0  0  0
    8.5795   -6.7463   26.8137 H   0  0  0  0  0  0  0  0  0  0  0  0
    8.9966   -8.0064   25.6366 H   0  0  0  0  0  0  0  0  0  0  0  0
    8.9776   -4.7057   26.5317 H   0  0  0  0  0  0  0  0  0  0  0  0
  1  2  2  0  0  0  0
  1  7  1  0  0  0  0
  2  9  1  0  0  0  0
  3  5  2  0  0  0  0
  3 10  1  0  0  0  0
  4  6  1  0  0  0  0
  4 10  2  0  0  0  0
  5 11  1  0  0  0  0
  6 11  2  0  0  0  0
  7 12  2  0  0  0  0
  8  9  2  0  0  0  0
  8 12  1  0  0  0  0
  9 22  1  0  0  0  0
 10 28  1  0  0  0  0
 11 29  1  0  0  0  0
 12 32  1  0  0  0  0
 13 14  2  0  0  0  0
 13 15  1  0  0  0  0
 13 27  1  0  0  0  0
 14 23  1  0  0  0  0
 14 25  1  0  0  0  0
 15 16  2  0  0  0  0
 16 17  1  0  0  0  0
 17 18  2  0  0  0  0
 18 27  1  0  0  0  0
 19 23  1  0  0  0  0
 19 29  1  0  0  0  0
 19 30  2  0  0  0  0
 20 24  1  0  0  0  0
 20 28  1  0  0  0  0
 20 31  2  0  0  0  0
 21 24  1  0  0  0  0
 22 29  1  0  0  0  0
 25 26  2  0  0  0  0
 26 27  1  0  0  0  0
  1 33  1  0  0  0  0
  2 34  1  0  0  0  0
  3 35  1  0  0  0  0
  4 36  1  0  0  0  0
  5 37  1  0  0  0  0
  6 38  1  0  0  0  0
  7 39  1  0  0  0  0
  8 40  1  0  0  0  0
 15 41  1  0  0  0  0
 16 42  1  0  0  0  0
 17 43  1  0  0  0  0
 18 44  1  0  0  0  0
 21 45  1  0  0  0  0
 21 46  1  0  0  0  0
 21 47  1  0  0  0  0
 22 48  1  0  0  0  0
 22 49  1  0  0  0  0
 23 50  1  0  0  0  0
 23 51  1  0  0  0  0
 24 52  1  0  0  0  0
 24 53  1  0  0  0  0
 28 54  1  0  0  0  0
M  END
> <clash_score>
1.4986045736624285

> <docking_score>
-5.804528713226318

> <overlap_score>
0.9913632869720459

$$$$
BENZO_428_1
  -OEChem-08222022203D

 56 60  0     0  0  0  0  0  0999 V2000
    8.9960   -2.3380   25.5320 C   0  0  0  0  0  0  0  0  0  0  0  0
    9.6730   -3.4710   23.5300 C   0  0  0  0  0  0  0  0  0  0  0  0
    9.0720   -1.1280   24.8640 C   0  0  0  0  0  0  0  0  0  0  0  0
    9.7200   -2.2600   22.8630 C   0  0  0  0  0  0  0  0  0  0  0  0
   12.2913    1.4279   22.6355 C   0  0  0  0  0  0  0  0  0  0  0  0
   13.6024    1.4662   23.0564 C   0  0  0  0  0  0  0  0  0  0  0  0
   12.0284    1.3764   24.9443 C   0  0  0  0  0  0  0  0  0  0  0  0
   11.3794    1.3761   23.7290 C   0  0  0  0  0  0  0  0  0  0  0  0
    9.3070   -3.5340   24.8780 C   0  0  0  0  0  0  0  0  0  0  0  0
    9.3350   -1.0880   23.5010 C   0  0  0  0  0  0  0  0  0  0  0  0
    6.1790    0.5730   19.9990 C   0  0  0  0  0  0  0  0  0  0  0  0
    7.3170   -0.1610   19.8550 C   0  0  0  0  0  0  0  0  0  0  0  0
    5.4210    0.9600   21.0930 C   0  0  0  0  0  0  0  0  0  0  0  0
    4.2750    1.7050   20.8490 C   0  0  0  0  0  0  0  0  0  0  0  0
    3.9160    2.0630   19.5520 C   0  0  0  0  0  0  0  0  0  0  0  0
    4.6890    1.6810   18.4640 C   0  0  0  0  0  0  0  0  0  0  0  0
    9.0420    0.3700   21.5280 C   0  0  0  0  0  0  0  0  0  0  0  0
    7.2235   -6.6199   26.3009 C   0  0  0  0  0  0  0  0  0  0  0  0
    7.4293   -5.3101   27.0652 C   0  0  0  0  0  0  0  0  0  0  0  0
    7.7217   -6.5099   24.8580 C   0  0  0  0  0  0  0  0  0  0  0  0
    8.8782   -4.8357   26.9548 C   0  0  0  0  0  0  0  0  0  0  0  0
    9.1652   -6.0007   24.7995 C   0  0  0  0  0  0  0  0  0  0  0  0
    9.8870    1.3260   23.5730 C   0  0  0  0  0  0  0  0  0  0  0  0
    8.1890   -0.7180   20.8700 C   0  0  0  0  0  0  0  0  0  0  0  0
    7.6390   -0.2680   18.5410 N   0  0  0  0  0  0  0  0  0  0  0  0
    6.7580    0.3810   17.8350 N   0  0  0  0  0  0  0  0  0  0  0  0
    5.8300    0.9190   18.6970 N   0  0  0  0  0  0  0  0  0  0  0  0
    9.2562   -4.7384   25.5422 N   0  0  0  0  0  0  0  0  0  0  0  0
    9.4560    0.1560   22.8130 N   0  0  0  0  0  0  0  0  0  0  0  0
    9.2690    1.4140   20.9380 O   0  0  0  0  0  0  0  0  0  0  0  0
   13.7301    1.4394   24.7638 S   0  0  0  0  0  0  0  0  0  0  0  0
    8.6905   -2.3533   26.5810 H   0  0  0  0  0  0  0  0  0  0  0  0
    9.9266   -4.3896   22.9917 H   0  0  0  0  0  0  0  0  0  0  0  0
    8.9233   -0.1992   25.4231 H   0  0  0  0  0  0  0  0  0  0  0  0
   10.0650   -2.2330   21.8256 H   0  0  0  0  0  0  0  0  0  0  0  0
   12.0045    1.4365   21.5915 H   0  0  0  0  0  0  0  0  0  0  0  0
   14.4914    1.5078   22.4431 H   0  0  0  0  0  0  0  0  0  0  0  0
   11.5886    1.3416   25.9314 H   0  0  0  0  0  0  0  0  0  0  0  0
    5.6859    0.7081   22.1001 H   0  0  0  0  0  0  0  0  0  0  0  0
    3.6634    2.0033   21.6928 H   0  0  0  0  0  0  0  0  0  0  0  0
    3.0114    2.6564   19.3629 H   0  0  0  0  0  0  0  0  0  0  0  0
    4.4373    1.9516   17.4622 H   0  0  0  0  0  0  0  0  0  0  0  0
    7.7559   -7.4347   26.8149 H   0  0  0  0  0  0  0  0  0  0  0  0
    6.1572   -6.8883   26.3055 H   0  0  0  0  0  0  0  0  0  0  0  0
    6.7602   -4.5435   26.6651 H   0  0  0  0  0  0  0  0  0  0  0  0
    7.1684   -5.4551   28.1155 H   0  0  0  0  0  0  0  0  0  0  0  0
    7.6595   -7.4899   24.3736 H   0  0  0  0  0  0  0  0  0  0  0  0
    7.0706   -5.8317   24.2943 H   0  0  0  0  0  0  0  0  0  0  0  0
    8.9681   -3.8621   27.4435 H   0  0  0  0  0  0  0  0  0  0  0  0
    9.5387   -5.5390   27.4697 H   0  0  0  0  0  0  0  0  0  0  0  0
    9.8374   -6.7413   25.2344 H   0  0  0  0  0  0  0  0  0  0  0  0
    9.4414   -5.8515   23.7552 H   0  0  0  0  0  0  0  0  0  0  0  0
    9.3974    1.2912   24.5523 H   0  0  0  0  0  0  0  0  0  0  0  0
    9.5159    2.2168   23.0554 H   0  0  0  0  0  0  0  0  0  0  0  0
    7.5972   -1.2056   21.6500 H   0  0  0  0  0  0  0  0  0  0  0  0
    8.8612   -1.4622   20.4334 H   0  0  0  0  0  0  0  0  0  0  0  0
  1  3  2  0  0  0  0
  1  9  1  0  0  0  0
  2  4  1  0  0  0  0
  2  9  2  0  0  0  0
  3 10  1  0  0  0  0
  4 10  2  0  0  0  0
  5  6  2  0  0  0  0
  5  8  1  0  0  0  0
  6 31  1  0  0  0  0
  7  8  2  0  0  0  0
  7 31  1  0  0  0  0
  8 23  1  0  0  0  0
  9 28  1  0  0  0  0
 10 29  1  0  0  0  0
 11 12  2  0  0  0  0
 11 13  1  0  0  0  0
 11 27  1  0  0  0  0
 12 24  1  0  0  0  0
 12 25  1  0  0  0  0
 13 14  2  0  0  0  0
 14 15  1  0  0  0  0
 15 16  2  0  0  0  0
 16 27  1  0  0  0  0
 17 24  1  0  0  0  0
 17 29  1  0  0  0  0
 17 30  2  0  0  0  0
 18 19  1  0  0  0  0
 18 20  1  0  0  0  0
 19 21  1  0  0  0  0
 20 22  1  0  0  0  0
 21 28  1  0  0  0  0
 22 28  1  0  0  0  0
 23 29  1  0  0  0  0
 25 26  2  0  0  0  0
 26 27  1  0  0  0  0
  1 32  1  0  0  0  0
  2 33  1  0  0  0  0
  3 34  1  0  0  0  0
  4 35  1  0  0  0  0
  5 36  1  0  0  0  0
  6 37  1  0  0  0  0
  7 38  1  0  0  0  0
 13 39  1  0  0  0  0
 14 40  1  0  0  0  0
 15 41  1  0  0  0  0
 16 42  1  0  0  0  0
 18 43  1  0  0  0  0
 18 44  1  0  0  0  0
 19 45  1  0  0  0  0
 19 46  1  0  0  0  0
 20 47  1  0  0  0  0
 20 48  1  0  0  0  0
 21 49  1  0  0  0  0
 21 50  1  0  0  0  0
 22 51  1  0  0  0  0
 22 52  1  0  0  0  0
 23 53  1  0  0  0  0
 23 54  1  0  0  0  0
 24 55  1  0  0  0  0
 24 56  1  0  0  0  0
M  END
> <clash_score>
0

> <docking_score>
-8.860107421875

> <overlap_score>
0.9782362580299377

$$$$
BENZO_433_1
  -OEChem-08222022203D

 47 50  0     0  0  0  0  0  0999 V2000
   14.1526    1.4694   24.0176 C   0  0  0  0  0  0  0  0  0  0  0  0
   13.3741    0.8121   24.9701 C   0  0  0  0  0  0  0  0  0  0  0  0
   13.5446    2.0802   22.9208 C   0  0  0  0  0  0  0  0  0  0  0  0
   11.9875    0.7654   24.8258 C   0  0  0  0  0  0  0  0  0  0  0  0
   12.1580    2.0335   22.7765 C   0  0  0  0  0  0  0  0  0  0  0  0
    8.9960   -2.3380   25.5320 C   0  0  0  0  0  0  0  0  0  0  0  0
    9.6730   -3.4710   23.5300 C   0  0  0  0  0  0  0  0  0  0  0  0
    9.0720   -1.1280   24.8640 C   0  0  0  0  0  0  0  0  0  0  0  0
    9.7200   -2.2600   22.8630 C   0  0  0  0  0  0  0  0  0  0  0  0
    9.3070   -3.5340   24.8780 C   0  0  0  0  0  0  0  0  0  0  0  0
   11.3794    1.3761   23.7290 C   0  0  0  0  0  0  0  0  0  0  0  0
    9.3350   -1.0880   23.5010 C   0  0  0  0  0  0  0  0  0  0  0  0
    6.1790    0.5730   19.9990 C   0  0  0  0  0  0  0  0  0  0  0  0
    7.3170   -0.1610   19.8550 C   0  0  0  0  0  0  0  0  0  0  0  0
    5.4210    0.9600   21.0930 C   0  0  0  0  0  0  0  0  0  0  0  0
    4.2750    1.7050   20.8490 C   0  0  0  0  0  0  0  0  0  0  0  0
    3.9160    2.0630   19.5520 C   0  0  0  0  0  0  0  0  0  0  0  0
    4.6890    1.6810   18.4640 C   0  0  0  0  0  0  0  0  0  0  0  0
    9.0420    0.3700   21.5280 C   0  0  0  0  0  0  0  0  0  0  0  0
    9.2505   -4.8264   25.5904 C   0  0  0  0  0  0  0  0  0  0  0  0
    9.8870    1.3260   23.5730 C   0  0  0  0  0  0  0  0  0  0  0  0
    8.1890   -0.7180   20.8700 C   0  0  0  0  0  0  0  0  0  0  0  0
    7.6390   -0.2680   18.5410 N   0  0  0  0  0  0  0  0  0  0  0  0
    6.7580    0.3810   17.8350 N   0  0  0  0  0  0  0  0  0  0  0  0
    5.8300    0.9190   18.6970 N   0  0  0  0  0  0  0  0  0  0  0  0
    9.4560    0.1560   22.8130 N   0  0  0  0  0  0  0  0  0  0  0  0
    9.2690    1.4140   20.9380 O   0  0  0  0  0  0  0  0  0  0  0  0
   15.2322    1.5068   24.1308 H   0  0  0  0  0  0  0  0  0  0  0  0
   13.8473    0.3374   25.8248 H   0  0  0  0  0  0  0  0  0  0  0  0
   14.1503    2.5930   22.1795 H   0  0  0  0  0  0  0  0  0  0  0  0
   11.3889    0.2508   25.5729 H   0  0  0  0  0  0  0  0  0  0  0  0
   11.6930    2.5120   21.9187 H   0  0  0  0  0  0  0  0  0  0  0  0
    8.6919   -2.3557   26.5813 H   0  0  0  0  0  0  0  0  0  0  0  0
    9.9267   -4.3907   22.9939 H   0  0  0  0  0  0  0  0  0  0  0  0
    8.9217   -0.1995   25.4231 H   0  0  0  0  0  0  0  0  0  0  0  0
   10.0653   -2.2339   21.8256 H   0  0  0  0  0  0  0  0  0  0  0  0
    5.6859    0.7081   22.1001 H   0  0  0  0  0  0  0  0  0  0  0  0
    3.6634    2.0033   21.6928 H   0  0  0  0  0  0  0  0  0  0  0  0
    3.0114    2.6564   19.3629 H   0  0  0  0  0  0  0  0  0  0  0  0
    4.4373    1.9516   17.4622 H   0  0  0  0  0  0  0  0  0  0  0  0
    8.2503   -5.2678   25.5020 H   0  0  0  0  0  0  0  0  0  0  0  0
    9.9817   -5.5374   25.1845 H   0  0  0  0  0  0  0  0  0  0  0  0
    9.4841   -4.7043   26.6562 H   0  0  0  0  0  0  0  0  0  0  0  0
    9.3974    1.2912   24.5523 H   0  0  0  0  0  0  0  0  0  0  0  0
    9.5159    2.2168   23.0553 H   0  0  0  0  0  0  0  0  0  0  0  0
    7.6102   -1.2091   21.6640 H   0  0  0  0  0  0  0  0  0  0  0  0
    8.8741   -1.4657   20.4475 H   0  0  0  0  0  0  0  0  0  0  0  0
  1  2  1  0  0  0  0
  1  3  2  0  0  0  0
  2  4  2  0  0  0  0
  3  5  1  0  0  0  0
  4 11  1  0  0  0  0
  5 11  2  0  0  0  0
  6  8  2  0  0  0  0
  6 10  1  0  0  0  0
  7  9  1  0  0  0  0
  7 10  2  0  0  0  0
  8 12  1  0  0  0  0
  9 12  2  0  0  0  0
 10 20  1  0  0  0  0
 11 21  1  0  0  0  0
 12 26  1  0  0  0  0
 13 14  2  0  0  0  0
 13 15  1  0  0  0  0
 13 25  1  0  0  0  0
 14 22  1  0  0  0  0
 14 23  1  0  0  0  0
 15 16  2  0  0  0  0
 16 17  1  0  0  0  0
 17 18  2  0  0  0  0
 18 25  1  0  0  0  0
 19 22  1  0  0  0  0
 19 26  1  0  0  0  0
 19 27  2  0  0  0  0
 21 26  1  0  0  0  0
 23 24  2  0  0  0  0
 24 25  1  0  0  0  0
  1 28  1  0  0  0  0
  2 29  1  0  0  0  0
  3 30  1  0  0  0  0
  4 31  1  0  0  0  0
  5 32  1  0  0  0  0
  6 33  1  0  0  0  0
  7 34  1  0  0  0  0
  8 35  1  0  0  0  0
  9 36  1  0  0  0  0
 15 37  1  0  0  0  0
 16 38  1  0  0  0  0
 17 39  1  0  0  0  0
 18 40  1  0  0  0  0
 20 41  1  0  0  0  0
 20 42  1  0  0  0  0
 20 43  1  0  0  0  0
 21 44  1  0  0  0  0
 21 45  1  0  0  0  0
 22 46  1  0  0  0  0
 22 47  1  0  0  0  0
M  END
> <clash_score>
0

> <docking_score>
-9.202653884887695

> <overlap_score>
0.939452588558197

$$$$
BENZO_432_1
  -OEChem-08222022203D

 44 47  0     0  0  0  0  0  0999 V2000
    8.9960   -2.3380   25.5320 C   0  0  0  0  0  0  0  0  0  0  0  0
    9.6730   -3.4710   23.5300 C   0  0  0  0  0  0  0  0  0  0  0  0
    9.0720   -1.1280   24.8640 C   0  0  0  0  0  0  0  0  0  0  0  0
    9.7200   -2.2600   22.8630 C   0  0  0  0  0  0  0  0  0  0  0  0
   12.2111    0.2208   23.7905 C   0  0  0  0  0  0  0  0  0  0  0  0
   13.5412    0.5479   23.9363 C   0  0  0  0  0  0  0  0  0  0  0  0
   12.1057    2.5424   23.8305 C   0  0  0  0  0  0  0  0  0  0  0  0
    9.3070   -3.5340   24.8780 C   0  0  0  0  0  0  0  0  0  0  0  0
   11.3794    1.3761   23.7290 C   0  0  0  0  0  0  0  0  0  0  0  0
    9.3350   -1.0880   23.5010 C   0  0  0  0  0  0  0  0  0  0  0  0
    6.1790    0.5730   19.9990 C   0  0  0  0  0  0  0  0  0  0  0  0
    7.3170   -0.1610   19.8550 C   0  0  0  0  0  0  0  0  0  0  0  0
    5.4210    0.9600   21.0930 C   0  0  0  0  0  0  0  0  0  0  0  0
    4.2750    1.7050   20.8490 C   0  0  0  0  0  0  0  0  0  0  0  0
    3.9160    2.0630   19.5520 C   0  0  0  0  0  0  0  0  0  0  0  0
    4.6890    1.6810   18.4640 C   0  0  0  0  0  0  0  0  0  0  0  0
    9.0420    0.3700   21.5280 C   0  0  0  0  0  0  0  0  0  0  0  0
    9.2505   -4.8264   25.5904 C   0  0  0  0  0  0  0  0  0  0  0  0
    9.8870    1.3260   23.5730 C   0  0  0  0  0  0  0  0  0  0  0  0
    8.1890   -0.7180   20.8700 C   0  0  0  0  0  0  0  0  0  0  0  0
    7.6390   -0.2680   18.5410 N   0  0  0  0  0  0  0  0  0  0  0  0
    6.7580    0.3810   17.8350 N   0  0  0  0  0  0  0  0  0  0  0  0
    5.8300    0.9190   18.6970 N   0  0  0  0  0  0  0  0  0  0  0  0
    9.4560    0.1560   22.8130 N   0  0  0  0  0  0  0  0  0  0  0  0
    9.2690    1.4140   20.9380 O   0  0  0  0  0  0  0  0  0  0  0  0
   13.7831    2.2420   23.9988 S   0  0  0  0  0  0  0  0  0  0  0  0
    8.6919   -2.3557   26.5813 H   0  0  0  0  0  0  0  0  0  0  0  0
    9.9267   -4.3907   22.9939 H   0  0  0  0  0  0  0  0  0  0  0  0
    8.9217   -0.1995   25.4231 H   0  0  0  0  0  0  0  0  0  0  0  0
   10.0653   -2.2339   21.8256 H   0  0  0  0  0  0  0  0  0  0  0  0
   11.8558   -0.8003   23.7315 H   0  0  0  0  0  0  0  0  0  0  0  0
   14.3824   -0.1267   24.0100 H   0  0  0  0  0  0  0  0  0  0  0  0
   11.7354    3.5581   23.8155 H   0  0  0  0  0  0  0  0  0  0  0  0
    5.6859    0.7081   22.1001 H   0  0  0  0  0  0  0  0  0  0  0  0
    3.6634    2.0033   21.6928 H   0  0  0  0  0  0  0  0  0  0  0  0
    3.0114    2.6564   19.3629 H   0  0  0  0  0  0  0  0  0  0  0  0
    4.4373    1.9516   17.4622 H   0  0  0  0  0  0  0  0  0  0  0  0
    8.2503   -5.2678   25.5020 H   0  0  0  0  0  0  0  0  0  0  0  0
    9.9817   -5.5374   25.1845 H   0  0  0  0  0  0  0  0  0  0  0  0
    9.4841   -4.7043   26.6562 H   0  0  0  0  0  0  0  0  0  0  0  0
    9.3974    1.2912   24.5523 H   0  0  0  0  0  0  0  0  0  0  0  0
    9.5159    2.2168   23.0553 H   0  0  0  0  0  0  0  0  0  0  0  0
    7.6102   -1.2091   21.6640 H   0  0  0  0  0  0  0  0  0  0  0  0
    8.8741   -1.4657   20.4475 H   0  0  0  0  0  0  0  0  0  0  0  0
  1  3  2  0  0  0  0
  1  8  1  0  0  0  0
  2  4  1  0  0  0  0
  2  8  2  0  0  0  0
  3 10  1  0  0  0  0
  4 10  2  0  0  0  0
  5  6  2  0  0  0  0
  5  9  1  0  0  0  0
  6 26  1  0  0  0  0
  7  9  2  0  0  0  0
  7 26  1  0  0  0  0
  8 18  1  0  0  0  0
  9 19  1  0  0  0  0
 10 24  1  0  0  0  0
 11 12  2  0  0  0  0
 11 13  1  0  0  0  0
 11 23  1  0  0  0  0
 12 20  1  0  0  0  0
 12 21  1  0  0  0  0
 13 14  2  0  0  0  0
 14 15  1  0  0  0  0
 15 16  2  0  0  0  0
 16 23  1  0  0  0  0
 17 20  1  0  0  0  0
 17 24  1  0  0  0  0
 17 25  2  0  0  0  0
 19 24  1  0  0  0  0
 21 22  2  0  0  0  0
 22 23  1  0  0  0  0
  1 27  1  0  0  0  0
  2 28  1  0  0  0  0
  3 29  1  0  0  0  0
  4 30  1  0  0  0  0
  5 31  1  0  0  0  0
  6 32  1  0  0  0  0
  7 33  1  0  0  0  0
 13 34  1  0  0  0  0
 14 35  1  0  0  0  0
 15 36  1  0  0  0  0
 16 37  1  0  0  0  0
 18 38  1  0  0  0  0
 18 39  1  0  0  0  0
 18 40  1  0  0  0  0
 19 41  1  0  0  0  0
 19 42  1  0  0  0  0
 20 43  1  0  0  0  0
 20 44  1  0  0  0  0
M  END
> <clash_score>
0

> <docking_score>
-8.475825309753418

> <overlap_score>
0.924271285533905

$$$$
BENZO_430_1
  -OEChem-08222022203D

 59 63  0     0  0  0  0  0  0999 V2000
   13.4006    0.5725   24.7805 C   0  0  0  0  0  0  0  0  0  0  0  0
   12.0141    0.5273   24.6359 C   0  0  0  0  0  0  0  0  0  0  0  0
    8.9960   -2.3380   25.5320 C   0  0  0  0  0  0  0  0  0  0  0  0
    9.6730   -3.4710   23.5300 C   0  0  0  0  0  0  0  0  0  0  0  0
    9.0720   -1.1280   24.8640 C   0  0  0  0  0  0  0  0  0  0  0  0
    9.7200   -2.2600   22.8630 C   0  0  0  0  0  0  0  0  0  0  0  0
   14.1526    1.4666   24.0184 C   0  0  0  0  0  0  0  0  0  0  0  0
   12.1314    2.2702   22.9668 C   0  0  0  0  0  0  0  0  0  0  0  0
   11.3794    1.3761   23.7290 C   0  0  0  0  0  0  0  0  0  0  0  0
    9.3070   -3.5340   24.8780 C   0  0  0  0  0  0  0  0  0  0  0  0
    9.3350   -1.0880   23.5010 C   0  0  0  0  0  0  0  0  0  0  0  0
   13.5180    2.3154   23.1115 C   0  0  0  0  0  0  0  0  0  0  0  0
    6.1790    0.5730   19.9990 C   0  0  0  0  0  0  0  0  0  0  0  0
    7.3170   -0.1610   19.8550 C   0  0  0  0  0  0  0  0  0  0  0  0
    5.4210    0.9600   21.0930 C   0  0  0  0  0  0  0  0  0  0  0  0
    4.2750    1.7050   20.8490 C   0  0  0  0  0  0  0  0  0  0  0  0
    3.9160    2.0630   19.5520 C   0  0  0  0  0  0  0  0  0  0  0  0
    4.6890    1.6810   18.4640 C   0  0  0  0  0  0  0  0  0  0  0  0
    9.0420    0.3700   21.5280 C   0  0  0  0  0  0  0  0  0  0  0  0
    7.3635   -6.1361   27.1888 C   0  0  0  0  0  0  0  0  0  0  0  0
    8.1961   -4.9735   27.7341 C   0  0  0  0  0  0  0  0  0  0  0  0
    7.1942   -6.0394   25.6709 C   0  0  0  0  0  0  0  0  0  0  0  0
    9.5196   -4.8490   26.9797 C   0  0  0  0  0  0  0  0  0  0  0  0
    8.5442   -5.8838   24.9639 C   0  0  0  0  0  0  0  0  0  0  0  0
    9.8870    1.3260   23.5730 C   0  0  0  0  0  0  0  0  0  0  0  0
    8.1890   -0.7180   20.8700 C   0  0  0  0  0  0  0  0  0  0  0  0
    7.6390   -0.2680   18.5410 N   0  0  0  0  0  0  0  0  0  0  0  0
    6.7580    0.3810   17.8350 N   0  0  0  0  0  0  0  0  0  0  0  0
    5.8300    0.9190   18.6970 N   0  0  0  0  0  0  0  0  0  0  0  0
    9.2562   -4.7384   25.5422 N   0  0  0  0  0  0  0  0  0  0  0  0
    9.4560    0.1560   22.8130 N   0  0  0  0  0  0  0  0  0  0  0  0
    9.2690    1.4140   20.9380 O   0  0  0  0  0  0  0  0  0  0  0  0
   14.4463    3.4175   22.1707 Cl  0  0  0  0  0  0  0  0  0  0  0  0
   13.8945   -0.0888   25.4867 H   0  0  0  0  0  0  0  0  0  0  0  0
   11.4361   -0.1726   25.2338 H   0  0  0  0  0  0  0  0  0  0  0  0
    8.6905   -2.3533   26.5810 H   0  0  0  0  0  0  0  0  0  0  0  0
    9.9266   -4.3896   22.9917 H   0  0  0  0  0  0  0  0  0  0  0  0
    8.9233   -0.1992   25.4231 H   0  0  0  0  0  0  0  0  0  0  0  0
   10.0650   -2.2330   21.8256 H   0  0  0  0  0  0  0  0  0  0  0  0
   15.2326    1.4907   24.1414 H   0  0  0  0  0  0  0  0  0  0  0  0
   11.6318    2.9303   22.2615 H   0  0  0  0  0  0  0  0  0  0  0  0
    5.6859    0.7081   22.1001 H   0  0  0  0  0  0  0  0  0  0  0  0
    3.6634    2.0033   21.6928 H   0  0  0  0  0  0  0  0  0  0  0  0
    3.0114    2.6564   19.3629 H   0  0  0  0  0  0  0  0  0  0  0  0
    4.4373    1.9516   17.4622 H   0  0  0  0  0  0  0  0  0  0  0  0
    7.8482   -7.0901   27.4469 H   0  0  0  0  0  0  0  0  0  0  0  0
    6.3760   -6.1438   27.6724 H   0  0  0  0  0  0  0  0  0  0  0  0
    7.6307   -4.0424   27.6403 H   0  0  0  0  0  0  0  0  0  0  0  0
    8.3915   -5.1310   28.7968 H   0  0  0  0  0  0  0  0  0  0  0  0
    6.6888   -6.9376   25.3010 H   0  0  0  0  0  0  0  0  0  0  0  0
    6.5515   -5.1859   25.4257 H   0  0  0  0  0  0  0  0  0  0  0  0
   10.0492   -3.9640   27.3414 H   0  0  0  0  0  0  0  0  0  0  0  0
   10.1431   -5.7254   27.1778 H   0  0  0  0  0  0  0  0  0  0  0  0
    9.1338   -6.7931   25.0868 H   0  0  0  0  0  0  0  0  0  0  0  0
    8.3656   -5.7264   23.8998 H   0  0  0  0  0  0  0  0  0  0  0  0
    9.3974    1.2912   24.5523 H   0  0  0  0  0  0  0  0  0  0  0  0
    9.5159    2.2168   23.0554 H   0  0  0  0  0  0  0  0  0  0  0  0
    7.5972   -1.2056   21.6500 H   0  0  0  0  0  0  0  0  0  0  0  0
    8.8612   -1.4622   20.4334 H   0  0  0  0  0  0  0  0  0  0  0  0
  1  2  2  0  0  0  0
  1  7  1  0  0  0  0
  2  9  1  0  0  0  0
  3  5  2  0  0  0  0
  3 10  1  0  0  0  0
  4  6  1  0  0  0  0
  4 10  2  0  0  0  0
  5 11  1  0  0  0  0
  6 11  2  0  0  0  0
  7 12  2  0  0  0  0
  8  9  2  0  0  0  0
  8 12  1  0  0  0  0
  9 25  1  0  0  0  0
 10 30  1  0  0  0  0
 11 31  1  0  0  0  0
 12 33  1  0  0  0  0
 13 14  2  0  0  0  0
 13 15  1  0  0  0  0
 13 29  1  0  0  0  0
 14 26  1  0  0  0  0
 14 27  1  0  0  0  0
 15 16  2  0  0  0  0
 16 17  1  0  0  0  0
 17 18  2  0  0  0  0
 18 29  1  0  0  0  0
 19 26  1  0  0  0  0
 19 31  1  0  0  0  0
 19 32  2  0  0  0  0
 20 21  1  0  0  0  0
 20 22  1  0  0  0  0
 21 23  1  0  0  0  0
 22 24  1  0  0  0  0
 23 30  1  0  0  0  0
 24 30  1  0  0  0  0
 25 31  1  0  0  0  0
 27 28  2  0  0  0  0
 28 29  1  0  0  0  0
  1 34  1  0  0  0  0
  2 35  1  0  0  0  0
  3 36  1  0  0  0  0
  4 37  1  0  0  0  0
  5 38  1  0  0  0  0
  6 39  1  0  0  0  0
  7 40  1  0  0  0  0
  8 41  1  0  0  0  0
 15 42  1  0  0  0  0
 16 43  1  0  0  0  0
 17 44  1  0  0  0  0
 18 45  1  0  0  0  0
 20 46  1  0  0  0  0
 20 47  1  0  0  0  0
 21 48  1  0  0  0  0
 21 49  1  0  0  0  0
 22 50  1  0  0  0  0
 22 51  1  0  0  0  0
 23 52  1  0  0  0  0
 23 53  1  0  0  0  0
 24 54  1  0  0  0  0
 24 55  1  0  0  0  0
 25 56  1  0  0  0  0
 25 57  1  0  0  0  0
 26 58  1  0  0  0  0
 26 59  1  0  0  0  0
M  END
> <clash_score>
0

> <docking_score>
-8.094606399536133

> <overlap_score>
1.0042747259140015

$$$$
BENZO_431_1
  -OEChem-08222022203D

 59 63  0     0  0  0  0  0  0999 V2000
    8.9960   -2.3380   25.5320 C   0  0  0  0  0  0  0  0  0  0  0  0
    9.6730   -3.4710   23.5300 C   0  0  0  0  0  0  0  0  0  0  0  0
    9.0720   -1.1280   24.8640 C   0  0  0  0  0  0  0  0  0  0  0  0
    9.7200   -2.2600   22.8630 C   0  0  0  0  0  0  0  0  0  0  0  0
   12.1233    1.3811   24.9242 C   0  0  0  0  0  0  0  0  0  0  0  0
   12.3261    1.4247   22.7351 C   0  0  0  0  0  0  0  0  0  0  0  0
   11.3794    1.3761   23.7290 C   0  0  0  0  0  0  0  0  0  0  0  0
    9.3070   -3.5340   24.8780 C   0  0  0  0  0  0  0  0  0  0  0  0
    9.3350   -1.0880   23.5010 C   0  0  0  0  0  0  0  0  0  0  0  0
    6.1790    0.5730   19.9990 C   0  0  0  0  0  0  0  0  0  0  0  0
    7.3170   -0.1610   19.8550 C   0  0  0  0  0  0  0  0  0  0  0  0
    5.4210    0.9600   21.0930 C   0  0  0  0  0  0  0  0  0  0  0  0
    4.2750    1.7050   20.8490 C   0  0  0  0  0  0  0  0  0  0  0  0
    3.9160    2.0630   19.5520 C   0  0  0  0  0  0  0  0  0  0  0  0
    4.6890    1.6810   18.4640 C   0  0  0  0  0  0  0  0  0  0  0  0
    9.0420    0.3700   21.5280 C   0  0  0  0  0  0  0  0  0  0  0  0
    7.3635   -6.1361   27.1888 C   0  0  0  0  0  0  0  0  0  0  0  0
    8.1961   -4.9735   27.7341 C   0  0  0  0  0  0  0  0  0  0  0  0
    7.1942   -6.0394   25.6709 C   0  0  0  0  0  0  0  0  0  0  0  0
    9.5196   -4.8490   26.9797 C   0  0  0  0  0  0  0  0  0  0  0  0
    8.5442   -5.8838   24.9639 C   0  0  0  0  0  0  0  0  0  0  0  0
   14.8305    1.5084   22.7418 C   0  0  0  0  0  0  0  0  0  0  0  0
    9.8870    1.3260   23.5730 C   0  0  0  0  0  0  0  0  0  0  0  0
    8.1890   -0.7180   20.8700 C   0  0  0  0  0  0  0  0  0  0  0  0
   13.4410    1.4289   24.7112 N   0  0  0  0  0  0  0  0  0  0  0  0
    7.6390   -0.2680   18.5410 N   0  0  0  0  0  0  0  0  0  0  0  0
    6.7580    0.3810   17.8350 N   0  0  0  0  0  0  0  0  0  0  0  0
   13.5326    1.4543   23.3706 N   0  0  0  0  0  0  0  0  0  0  0  0
    5.8300    0.9190   18.6970 N   0  0  0  0  0  0  0  0  0  0  0  0
    9.2562   -4.7384   25.5422 N   0  0  0  0  0  0  0  0  0  0  0  0
    9.4560    0.1560   22.8130 N   0  0  0  0  0  0  0  0  0  0  0  0
    9.2690    1.4140   20.9380 O   0  0  0  0  0  0  0  0  0  0  0  0
    8.6905   -2.3533   26.5810 H   0  0  0  0  0  0  0  0  0  0  0  0
    9.9266   -4.3896   22.9917 H   0  0  0  0  0  0  0  0  0  0  0  0
    8.9233   -0.1992   25.4231 H   0  0  0  0  0  0  0  0  0  0  0  0
   10.0650   -2.2330   21.8256 H   0  0  0  0  0  0  0  0  0  0  0  0
   11.7624    1.3510   25.9426 H   0  0  0  0  0  0  0  0  0  0  0  0
   12.2462    1.4390   21.6566 H   0  0  0  0  0  0  0  0  0  0  0  0
    5.6859    0.7081   22.1001 H   0  0  0  0  0  0  0  0  0  0  0  0
    3.6634    2.0033   21.6928 H   0  0  0  0  0  0  0  0  0  0  0  0
    3.0114    2.6564   19.3629 H   0  0  0  0  0  0  0  0  0  0  0  0
    4.4373    1.9516   17.4622 H   0  0  0  0  0  0  0  0  0  0  0  0
    7.8482   -7.0901   27.4469 H   0  0  0  0  0  0  0  0  0  0  0  0
    6.3760   -6.1438   27.6724 H   0  0  0  0  0  0  0  0  0  0  0  0
    7.6307   -4.0424   27.6403 H   0  0  0  0  0  0  0  0  0  0  0  0
    8.3915   -5.1310   28.7968 H   0  0  0  0  0  0  0  0  0  0  0  0
    6.6888   -6.9376   25.3010 H   0  0  0  0  0  0  0  0  0  0  0  0
    6.5515   -5.1859   25.4257 H   0  0  0  0  0  0  0  0  0  0  0  0
   10.0492   -3.9640   27.3414 H   0  0  0  0  0  0  0  0  0  0  0  0
   10.1431   -5.7254   27.1778 H   0  0  0  0  0  0  0  0  0  0  0  0
    9.1338   -6.7931   25.0868 H   0  0  0  0  0  0  0  0  0  0  0  0
    8.3656   -5.7264   23.8998 H   0  0  0  0  0  0  0  0  0  0  0  0
   15.0990    2.5601   22.6124 H   0  0  0  0  0  0  0  0  0  0  0  0
   15.5636    1.0018   23.3756 H   0  0  0  0  0  0  0  0  0  0  0  0
   14.7841    1.0025   21.7733 H   0  0  0  0  0  0  0  0  0  0  0  0
    9.3974    1.2912   24.5523 H   0  0  0  0  0  0  0  0  0  0  0  0
    9.5159    2.2168   23.0554 H   0  0  0  0  0  0  0  0  0  0  0  0
    7.5972   -1.2056   21.6500 H   0  0  0  0  0  0  0  0  0  0  0  0
    8.8612   -1.4622   20.4334 H   0  0  0  0  0  0  0  0  0  0  0  0
  1  3  2  0  0  0  0
  1  8  1  0  0  0  0
  2  4  1  0  0  0  0
  2  8  2  0  0  0  0
  3  9  1  0  0  0  0
  4  9  2  0  0  0  0
  5  7  1  0  0  0  0
  5 25  2  0  0  0  0
  6  7  2  0  0  0  0
  6 28  1  0  0  0  0
  7 23  1  0  0  0  0
  8 30  1  0  0  0  0
  9 31  1  0  0  0  0
 10 11  2  0  0  0  0
 10 12  1  0  0  0  0
 10 29  1  0  0  0  0
 11 24  1  0  0  0  0
 11 26  1  0  0  0  0
 12 13  2  0  0  0  0
 13 14  1  0  0  0  0
 14 15  2  0  0  0  0
 15 29  1  0  0  0  0
 16 24  1  0  0  0  0
 16 31  1  0  0  0  0
 16 32  2  0  0  0  0
 17 18  1  0  0  0  0
 17 19  1  0  0  0  0
 18 20  1  0  0  0  0
 19 21  1  0  0  0  0
 20 30  1  0  0  0  0
 21 30  1  0  0  0  0
 22 28  1  0  0  0  0
 23 31  1  0  0  0  0
 25 28  1  0  0  0  0
 26 27  2  0  0  0  0
 27 29  1  0  0  0  0
  1 33  1  0  0  0  0
  2 34  1  0  0  0  0
  3 35  1  0  0  0  0
  4 36  1  0  0  0  0
  5 37  1  0  0  0  0
  6 38  1  0  0  0  0
 12 39  1  0  0  0  0
 13 40  1  0  0  0  0
 14 41  1  0  0  0  0
 15 42  1  0  0  0  0
 17 43  1  0  0  0  0
 17 44  1  0  0  0  0
 18 45  1  0  0  0  0
 18 46  1  0  0  0  0
 19 47  1  0  0  0  0
 19 48  1  0  0  0  0
 20 49  1  0  0  0  0
 20 50  1  0  0  0  0
 21 51  1  0  0  0  0
 21 52  1  0  0  0  0
 22 53  1  0  0  0  0
 22 54  1  0  0  0  0
 22 55  1  0  0  0  0
 23 56  1  0  0  0  0
 23 57  1  0  0  0  0
 24 58  1  0  0  0  0
 24 59  1  0  0  0  0
M  END
> <clash_score>
0

> <docking_score>
-8.67375373840332

> <overlap_score>
0.9881091713905334

$$$$
BENZO_435_1
  -OEChem-08222022203D

 47 50  0     0  0  0  0  0  0999 V2000
    8.9960   -2.3380   25.5320 C   0  0  0  0  0  0  0  0  0  0  0  0
    9.6730   -3.4710   23.5300 C   0  0  0  0  0  0  0  0  0  0  0  0
    9.0720   -1.1280   24.8640 C   0  0  0  0  0  0  0  0  0  0  0  0
    9.7200   -2.2600   22.8630 C   0  0  0  0  0  0  0  0  0  0  0  0
   12.2914    2.2071   23.0512 C   0  0  0  0  0  0  0  0  0  0  0  0
   12.1614    0.6214   24.5689 C   0  0  0  0  0  0  0  0  0  0  0  0
    9.3070   -3.5340   24.8780 C   0  0  0  0  0  0  0  0  0  0  0  0
   11.3794    1.3761   23.7290 C   0  0  0  0  0  0  0  0  0  0  0  0
    9.3350   -1.0880   23.5010 C   0  0  0  0  0  0  0  0  0  0  0  0
    6.1790    0.5730   19.9990 C   0  0  0  0  0  0  0  0  0  0  0  0
    7.3170   -0.1610   19.8550 C   0  0  0  0  0  0  0  0  0  0  0  0
    5.4210    0.9600   21.0930 C   0  0  0  0  0  0  0  0  0  0  0  0
    4.2750    1.7050   20.8490 C   0  0  0  0  0  0  0  0  0  0  0  0
    3.9160    2.0630   19.5520 C   0  0  0  0  0  0  0  0  0  0  0  0
    4.6890    1.6810   18.4640 C   0  0  0  0  0  0  0  0  0  0  0  0
    9.0420    0.3700   21.5280 C   0  0  0  0  0  0  0  0  0  0  0  0
    9.2505   -4.8264   25.5904 C   0  0  0  0  0  0  0  0  0  0  0  0
   14.6267    0.5248   25.0067 C   0  0  0  0  0  0  0  0  0  0  0  0
    9.8870    1.3260   23.5730 C   0  0  0  0  0  0  0  0  0  0  0  0
    8.1890   -0.7180   20.8700 C   0  0  0  0  0  0  0  0  0  0  0  0
   13.5560    2.0002   23.4280 N   0  0  0  0  0  0  0  0  0  0  0  0
    7.6390   -0.2680   18.5410 N   0  0  0  0  0  0  0  0  0  0  0  0
    6.7580    0.3810   17.8350 N   0  0  0  0  0  0  0  0  0  0  0  0
   13.4442    1.0306   24.3518 N   0  0  0  0  0  0  0  0  0  0  0  0
    5.8300    0.9190   18.6970 N   0  0  0  0  0  0  0  0  0  0  0  0
    9.4560    0.1560   22.8130 N   0  0  0  0  0  0  0  0  0  0  0  0
    9.2690    1.4140   20.9380 O   0  0  0  0  0  0  0  0  0  0  0  0
    8.6919   -2.3557   26.5813 H   0  0  0  0  0  0  0  0  0  0  0  0
    9.9267   -4.3907   22.9939 H   0  0  0  0  0  0  0  0  0  0  0  0
    8.9217   -0.1995   25.4231 H   0  0  0  0  0  0  0  0  0  0  0  0
   10.0653   -2.2339   21.8256 H   0  0  0  0  0  0  0  0  0  0  0  0
   12.0895    2.9562   22.2987 H   0  0  0  0  0  0  0  0  0  0  0  0
   11.9201   -0.1518   25.2857 H   0  0  0  0  0  0  0  0  0  0  0  0
    5.6859    0.7081   22.1001 H   0  0  0  0  0  0  0  0  0  0  0  0
    3.6634    2.0033   21.6928 H   0  0  0  0  0  0  0  0  0  0  0  0
    3.0114    2.6564   19.3629 H   0  0  0  0  0  0  0  0  0  0  0  0
    4.4373    1.9516   17.4622 H   0  0  0  0  0  0  0  0  0  0  0  0
    8.2503   -5.2678   25.5020 H   0  0  0  0  0  0  0  0  0  0  0  0
    9.9817   -5.5374   25.1845 H   0  0  0  0  0  0  0  0  0  0  0  0
    9.4841   -4.7043   26.6562 H   0  0  0  0  0  0  0  0  0  0  0  0
   15.0068   -0.3132   24.4165 H   0  0  0  0  0  0  0  0  0  0  0  0
   15.3758    1.3189   25.0698 H   0  0  0  0  0  0  0  0  0  0  0  0
   14.3676    0.1958   26.0170 H   0  0  0  0  0  0  0  0  0  0  0  0
    9.3974    1.2912   24.5523 H   0  0  0  0  0  0  0  0  0  0  0  0
    9.5159    2.2168   23.0553 H   0  0  0  0  0  0  0  0  0  0  0  0
    7.6102   -1.2091   21.6640 H   0  0  0  0  0  0  0  0  0  0  0  0
    8.8741   -1.4657   20.4475 H   0  0  0  0  0  0  0  0  0  0  0  0
  1  3  2  0  0  0  0
  1  7  1  0  0  0  0
  2  4  1  0  0  0  0
  2  7  2  0  0  0  0
  3  9  1  0  0  0  0
  4  9  2  0  0  0  0
  5  8  1  0  0  0  0
  5 21  2  0  0  0  0
  6  8  2  0  0  0  0
  6 24  1  0  0  0  0
  7 17  1  0  0  0  0
  8 19  1  0  0  0  0
  9 26  1  0  0  0  0
 10 11  2  0  0  0  0
 10 12  1  0  0  0  0
 10 25  1  0  0  0  0
 11 20  1  0  0  0  0
 11 22  1  0  0  0  0
 12 13  2  0  0  0  0
 13 14  1  0  0  0  0
 14 15  2  0  0  0  0
 15 25  1  0  0  0  0
 16 20  1  0  0  0  0
 16 26  1  0  0  0  0
 16 27  2  0  0  0  0
 18 24  1  0  0  0  0
 19 26  1  0  0  0  0
 21 24  1  0  0  0  0
 22 23  2  0  0  0  0
 23 25  1  0  0  0  0
  1 28  1  0  0  0  0
  2 29  1  0  0  0  0
  3 30  1  0  0  0  0
  4 31  1  0  0  0  0
  5 32  1  0  0  0  0
  6 33  1  0  0  0  0
 12 34  1  0  0  0  0
 13 35  1  0  0  0  0
 14 36  1  0  0  0  0
 15 37  1  0  0  0  0
 17 38  1  0  0  0  0
 17 39  1  0  0  0  0
 17 40  1  0  0  0  0
 18 41  1  0  0  0  0
 18 42  1  0  0  0  0
 18 43  1  0  0  0  0
 19 44  1  0  0  0  0
 19 45  1  0  0  0  0
 20 46  1  0  0  0  0
 20 47  1  0  0  0  0
M  END
> <clash_score>
0.6199410862451628

> <docking_score>
-8.910659790039062

> <overlap_score>
0.9382389187812805

$$$$
BENZO_434_1
  -OEChem-08222022203D

 47 50  0     0  0  0  0  0  0999 V2000
   13.4007    0.5725   24.7805 C   0  0  0  0  0  0  0  0  0  0  0  0
   12.0141    0.5273   24.6359 C   0  0  0  0  0  0  0  0  0  0  0  0
    8.9960   -2.3380   25.5320 C   0  0  0  0  0  0  0  0  0  0  0  0
    9.6730   -3.4710   23.5300 C   0  0  0  0  0  0  0  0  0  0  0  0
    9.0720   -1.1280   24.8640 C   0  0  0  0  0  0  0  0  0  0  0  0
    9.7200   -2.2600   22.8630 C   0  0  0  0  0  0  0  0  0  0  0  0
   14.1526    1.4666   24.0184 C   0  0  0  0  0  0  0  0  0  0  0  0
   12.1314    2.2702   22.9668 C   0  0  0  0  0  0  0  0  0  0  0  0
    9.3070   -3.5340   24.8780 C   0  0  0  0  0  0  0  0  0  0  0  0
   11.3794    1.3761   23.7290 C   0  0  0  0  0  0  0  0  0  0  0  0
    9.3350   -1.0880   23.5010 C   0  0  0  0  0  0  0  0  0  0  0  0
   13.5180    2.3154   23.1115 C   0  0  0  0  0  0  0  0  0  0  0  0
    6.1790    0.5730   19.9990 C   0  0  0  0  0  0  0  0  0  0  0  0
    7.3170   -0.1610   19.8550 C   0  0  0  0  0  0  0  0  0  0  0  0
    5.4210    0.9600   21.0930 C   0  0  0  0  0  0  0  0  0  0  0  0
    4.2750    1.7050   20.8490 C   0  0  0  0  0  0  0  0  0  0  0  0
    3.9160    2.0630   19.5520 C   0  0  0  0  0  0  0  0  0  0  0  0
    4.6890    1.6810   18.4640 C   0  0  0  0  0  0  0  0  0  0  0  0
    9.0420    0.3700   21.5280 C   0  0  0  0  0  0  0  0  0  0  0  0
    9.2505   -4.8264   25.5904 C   0  0  0  0  0  0  0  0  0  0  0  0
    9.8870    1.3260   23.5730 C   0  0  0  0  0  0  0  0  0  0  0  0
    8.1890   -0.7180   20.8700 C   0  0  0  0  0  0  0  0  0  0  0  0
    7.6390   -0.2680   18.5410 N   0  0  0  0  0  0  0  0  0  0  0  0
    6.7580    0.3810   17.8350 N   0  0  0  0  0  0  0  0  0  0  0  0
    5.8300    0.9190   18.6970 N   0  0  0  0  0  0  0  0  0  0  0  0
    9.4560    0.1560   22.8130 N   0  0  0  0  0  0  0  0  0  0  0  0
    9.2690    1.4140   20.9380 O   0  0  0  0  0  0  0  0  0  0  0  0
   14.4463    3.4175   22.1707 Cl  0  0  0  0  0  0  0  0  0  0  0  0
   13.8945   -0.0888   25.4867 H   0  0  0  0  0  0  0  0  0  0  0  0
   11.4361   -0.1726   25.2338 H   0  0  0  0  0  0  0  0  0  0  0  0
    8.6919   -2.3557   26.5813 H   0  0  0  0  0  0  0  0  0  0  0  0
    9.9267   -4.3907   22.9939 H   0  0  0  0  0  0  0  0  0  0  0  0
    8.9217   -0.1995   25.4231 H   0  0  0  0  0  0  0  0  0  0  0  0
   10.0653   -2.2339   21.8256 H   0  0  0  0  0  0  0  0  0  0  0  0
   15.2326    1.4907   24.1414 H   0  0  0  0  0  0  0  0  0  0  0  0
   11.6318    2.9303   22.2615 H   0  0  0  0  0  0  0  0  0  0  0  0
    5.6859    0.7081   22.1001 H   0  0  0  0  0  0  0  0  0  0  0  0
    3.6634    2.0033   21.6928 H   0  0  0  0  0  0  0  0  0  0  0  0
    3.0114    2.6564   19.3629 H   0  0  0  0  0  0  0  0  0  0  0  0
    4.4373    1.9516   17.4622 H   0  0  0  0  0  0  0  0  0  0  0  0
    8.2503   -5.2678   25.5020 H   0  0  0  0  0  0  0  0  0  0  0  0
    9.9817   -5.5374   25.1845 H   0  0  0  0  0  0  0  0  0  0  0  0
    9.4841   -4.7043   26.6562 H   0  0  0  0  0  0  0  0  0  0  0  0
    9.3974    1.2912   24.5523 H   0  0  0  0  0  0  0  0  0  0  0  0
    9.5159    2.2168   23.0553 H   0  0  0  0  0  0  0  0  0  0  0  0
    7.6102   -1.2091   21.6640 H   0  0  0  0  0  0  0  0  0  0  0  0
    8.8741   -1.4657   20.4475 H   0  0  0  0  0  0  0  0  0  0  0  0
  1  2  2  0  0  0  0
  1  7  1  0  0  0  0
  2 10  1  0  0  0  0
  3  5  2  0  0  0  0
  3  9  1  0  0  0  0
  4  6  1  0  0  0  0
  4  9  2  0  0  0  0
  5 11  1  0  0  0  0
  6 11  2  0  0  0  0
  7 12  2  0  0  0  0
  8 10  2  0  0  0  0
  8 12  1  0  0  0  0
  9 20  1  0  0  0  0
 10 21  1  0  0  0  0
 11 26  1  0  0  0  0
 12 28  1  0  0  0  0
 13 14  2  0  0  0  0
 13 15  1  0  0  0  0
 13 25  1  0  0  0  0
 14 22  1  0  0  0  0
 14 23  1  0  0  0  0
 15 16  2  0  0  0  0
 16 17  1  0  0  0  0
 17 18  2  0  0  0  0
 18 25  1  0  0  0  0
 19 22  1  0  0  0  0
 19 26  1  0  0  0  0
 19 27  2  0  0  0  0
 21 26  1  0  0  0  0
 23 24  2  0  0  0  0
 24 25  1  0  0  0  0
  1 29  1  0  0  0  0
  2 30  1  0  0  0  0
  3 31  1  0  0  0  0
  4 32  1  0  0  0  0
  5 33  1  0  0  0  0
  6 34  1  0  0  0  0
  7 35  1  0  0  0  0
  8 36  1  0  0  0  0
 15 37  1  0  0  0  0
 16 38  1  0  0  0  0
 17 39  1  0  0  0  0
 18 40  1  0  0  0  0
 20 41  1  0  0  0  0
 20 42  1  0  0  0  0
 20 43  1  0  0  0  0
 21 44  1  0  0  0  0
 21 45  1  0  0  0  0
 22 46  1  0  0  0  0
 22 47  1  0  0  0  0
M  END
> <clash_score>
0

> <docking_score>
-8.33963394165039

> <overlap_score>
0.9507186412811279

$$$$
BENZO_437_1
  -OEChem-08222022203D

 48 51  0     0  0  0  0  0  0999 V2000
   14.1526    1.4694   24.0176 C   0  0  0  0  0  0  0  0  0  0  0  0
   13.3741    0.8121   24.9701 C   0  0  0  0  0  0  0  0  0  0  0  0
   13.5446    2.0802   22.9208 C   0  0  0  0  0  0  0  0  0  0  0  0
   11.9875    0.7654   24.8258 C   0  0  0  0  0  0  0  0  0  0  0  0
   12.1580    2.0335   22.7765 C   0  0  0  0  0  0  0  0  0  0  0  0
    9.0720   -1.1280   24.8640 C   0  0  0  0  0  0  0  0  0  0  0  0
    9.7200   -2.2600   22.8630 C   0  0  0  0  0  0  0  0  0  0  0  0
    8.9960   -2.3380   25.5320 C   0  0  0  0  0  0  0  0  0  0  0  0
    9.6730   -3.4710   23.5300 C   0  0  0  0  0  0  0  0  0  0  0  0
   11.3794    1.3761   23.7290 C   0  0  0  0  0  0  0  0  0  0  0  0
    9.3350   -1.0880   23.5010 C   0  0  0  0  0  0  0  0  0  0  0  0
    9.3070   -3.5340   24.8780 C   0  0  0  0  0  0  0  0  0  0  0  0
    6.1790    0.5730   19.9990 C   0  0  0  0  0  0  0  0  0  0  0  0
    7.3170   -0.1610   19.8550 C   0  0  0  0  0  0  0  0  0  0  0  0
    5.4210    0.9600   21.0930 C   0  0  0  0  0  0  0  0  0  0  0  0
    4.2750    1.7050   20.8490 C   0  0  0  0  0  0  0  0  0  0  0  0
    3.9160    2.0630   19.5520 C   0  0  0  0  0  0  0  0  0  0  0  0
    4.6890    1.6810   18.4640 C   0  0  0  0  0  0  0  0  0  0  0  0
    9.0420    0.3700   21.5280 C   0  0  0  0  0  0  0  0  0  0  0  0
    9.5894   -5.8809   24.7798 C   0  0  0  0  0  0  0  0  0  0  0  0
    9.8870    1.3260   23.5730 C   0  0  0  0  0  0  0  0  0  0  0  0
    8.1890   -0.7180   20.8700 C   0  0  0  0  0  0  0  0  0  0  0  0
    7.6390   -0.2680   18.5410 N   0  0  0  0  0  0  0  0  0  0  0  0
    6.7580    0.3810   17.8350 N   0  0  0  0  0  0  0  0  0  0  0  0
    5.8300    0.9190   18.6970 N   0  0  0  0  0  0  0  0  0  0  0  0
    9.4560    0.1560   22.8130 N   0  0  0  0  0  0  0  0  0  0  0  0
    9.2690    1.4140   20.9380 O   0  0  0  0  0  0  0  0  0  0  0  0
    9.2555   -4.7124   25.5274 O   0  0  0  0  0  0  0  0  0  0  0  0
   15.2322    1.5068   24.1308 H   0  0  0  0  0  0  0  0  0  0  0  0
   13.8473    0.3374   25.8248 H   0  0  0  0  0  0  0  0  0  0  0  0
   14.1503    2.5930   22.1795 H   0  0  0  0  0  0  0  0  0  0  0  0
   11.3889    0.2508   25.5729 H   0  0  0  0  0  0  0  0  0  0  0  0
   11.6930    2.5120   21.9187 H   0  0  0  0  0  0  0  0  0  0  0  0
    8.9221   -0.1995   25.4231 H   0  0  0  0  0  0  0  0  0  0  0  0
   10.0642   -2.2347   21.8253 H   0  0  0  0  0  0  0  0  0  0  0  0
    8.6902   -2.3588   26.5805 H   0  0  0  0  0  0  0  0  0  0  0  0
    9.9254   -4.3921   22.9961 H   0  0  0  0  0  0  0  0  0  0  0  0
    5.6859    0.7081   22.1001 H   0  0  0  0  0  0  0  0  0  0  0  0
    3.6634    2.0033   21.6928 H   0  0  0  0  0  0  0  0  0  0  0  0
    3.0114    2.6564   19.3629 H   0  0  0  0  0  0  0  0  0  0  0  0
    4.4373    1.9516   17.4622 H   0  0  0  0  0  0  0  0  0  0  0  0
    9.5074   -6.7611   25.4222 H   0  0  0  0  0  0  0  0  0  0  0  0
   10.6088   -5.7902   24.3963 H   0  0  0  0  0  0  0  0  0  0  0  0
    8.8944   -5.9778   23.9424 H   0  0  0  0  0  0  0  0  0  0  0  0
    9.3974    1.2912   24.5523 H   0  0  0  0  0  0  0  0  0  0  0  0
    9.5159    2.2168   23.0553 H   0  0  0  0  0  0  0  0  0  0  0  0
    7.6102   -1.2091   21.6640 H   0  0  0  0  0  0  0  0  0  0  0  0
    8.8741   -1.4657   20.4475 H   0  0  0  0  0  0  0  0  0  0  0  0
  1  2  1  0  0  0  0
  1  3  2  0  0  0  0
  2  4  2  0  0  0  0
  3  5  1  0  0  0  0
  4 10  1  0  0  0  0
  5 10  2  0  0  0  0
  6  8  2  0  0  0  0
  6 11  1  0  0  0  0
  7  9  1  0  0  0  0
  7 11  2  0  0  0  0
  8 12  1  0  0  0  0
  9 12  2  0  0  0  0
 10 21  1  0  0  0  0
 11 26  1  0  0  0  0
 12 28  1  0  0  0  0
 13 14  2  0  0  0  0
 13 15  1  0  0  0  0
 13 25  1  0  0  0  0
 14 22  1  0  0  0  0
 14 23  1  0  0  0  0
 15 16  2  0  0  0  0
 16 17  1  0  0  0  0
 17 18  2  0  0  0  0
 18 25  1  0  0  0  0
 19 22  1  0  0  0  0
 19 26  1  0  0  0  0
 19 27  2  0  0  0  0
 20 28  1  0  0  0  0
 21 26  1  0  0  0  0
 23 24  2  0  0  0  0
 24 25  1  0  0  0  0
  1 29  1  0  0  0  0
  2 30  1  0  0  0  0
  3 31  1  0  0  0  0
  4 32  1  0  0  0  0
  5 33  1  0  0  0  0
  6 34  1  0  0  0  0
  7 35  1  0  0  0  0
  8 36  1  0  0  0  0
  9 37  1  0  0  0  0
 15 38  1  0  0  0  0
 16 39  1  0  0  0  0
 17 40  1  0  0  0  0
 18 41  1  0  0  0  0
 20 42  1  0  0  0  0
 20 43  1  0  0  0  0
 20 44  1  0  0  0  0
 21 45  1  0  0  0  0
 21 46  1  0  0  0  0
 22 47  1  0  0  0  0
 22 48  1  0  0  0  0
M  END
> <clash_score>
0

> <docking_score>
-8.908769607543945

> <overlap_score>
0.96425461769104

$$$$
BENZO_436_1
  -OEChem-08222022203D

 45 48  0     0  0  0  0  0  0999 V2000
    9.0720   -1.1280   24.8640 C   0  0  0  0  0  0  0  0  0  0  0  0
    9.7200   -2.2600   22.8630 C   0  0  0  0  0  0  0  0  0  0  0  0
    8.9960   -2.3380   25.5320 C   0  0  0  0  0  0  0  0  0  0  0  0
    9.6730   -3.4710   23.5300 C   0  0  0  0  0  0  0  0  0  0  0  0
   12.2111    0.2208   23.7905 C   0  0  0  0  0  0  0  0  0  0  0  0
   13.5412    0.5479   23.9363 C   0  0  0  0  0  0  0  0  0  0  0  0
   12.1057    2.5424   23.8305 C   0  0  0  0  0  0  0  0  0  0  0  0
   11.3794    1.3761   23.7290 C   0  0  0  0  0  0  0  0  0  0  0  0
    9.3350   -1.0880   23.5010 C   0  0  0  0  0  0  0  0  0  0  0  0
    9.3070   -3.5340   24.8780 C   0  0  0  0  0  0  0  0  0  0  0  0
    6.1790    0.5730   19.9990 C   0  0  0  0  0  0  0  0  0  0  0  0
    7.3170   -0.1610   19.8550 C   0  0  0  0  0  0  0  0  0  0  0  0
    5.4210    0.9600   21.0930 C   0  0  0  0  0  0  0  0  0  0  0  0
    4.2750    1.7050   20.8490 C   0  0  0  0  0  0  0  0  0  0  0  0
    3.9160    2.0630   19.5520 C   0  0  0  0  0  0  0  0  0  0  0  0
    4.6890    1.6810   18.4640 C   0  0  0  0  0  0  0  0  0  0  0  0
    9.0420    0.3700   21.5280 C   0  0  0  0  0  0  0  0  0  0  0  0
    9.5894   -5.8809   24.7798 C   0  0  0  0  0  0  0  0  0  0  0  0
    9.8870    1.3260   23.5730 C   0  0  0  0  0  0  0  0  0  0  0  0
    8.1890   -0.7180   20.8700 C   0  0  0  0  0  0  0  0  0  0  0  0
    7.6390   -0.2680   18.5410 N   0  0  0  0  0  0  0  0  0  0  0  0
    6.7580    0.3810   17.8350 N   0  0  0  0  0  0  0  0  0  0  0  0
    5.8300    0.9190   18.6970 N   0  0  0  0  0  0  0  0  0  0  0  0
    9.4560    0.1560   22.8130 N   0  0  0  0  0  0  0  0  0  0  0  0
    9.2690    1.4140   20.9380 O   0  0  0  0  0  0  0  0  0  0  0  0
    9.2555   -4.7124   25.5274 O   0  0  0  0  0  0  0  0  0  0  0  0
   13.7831    2.2420   23.9988 S   0  0  0  0  0  0  0  0  0  0  0  0
    8.9221   -0.1995   25.4231 H   0  0  0  0  0  0  0  0  0  0  0  0
   10.0642   -2.2347   21.8253 H   0  0  0  0  0  0  0  0  0  0  0  0
    8.6902   -2.3588   26.5805 H   0  0  0  0  0  0  0  0  0  0  0  0
    9.9254   -4.3921   22.9961 H   0  0  0  0  0  0  0  0  0  0  0  0
   11.8558   -0.8003   23.7315 H   0  0  0  0  0  0  0  0  0  0  0  0
   14.3824   -0.1267   24.0100 H   0  0  0  0  0  0  0  0  0  0  0  0
   11.7354    3.5581   23.8155 H   0  0  0  0  0  0  0  0  0  0  0  0
    5.6859    0.7081   22.1001 H   0  0  0  0  0  0  0  0  0  0  0  0
    3.6634    2.0033   21.6928 H   0  0  0  0  0  0  0  0  0  0  0  0
    3.0114    2.6564   19.3629 H   0  0  0  0  0  0  0  0  0  0  0  0
    4.4373    1.9516   17.4622 H   0  0  0  0  0  0  0  0  0  0  0  0
    9.5074   -6.7611   25.4222 H   0  0  0  0  0  0  0  0  0  0  0  0
   10.6088   -5.7902   24.3963 H   0  0  0  0  0  0  0  0  0  0  0  0
    8.8944   -5.9778   23.9424 H   0  0  0  0  0  0  0  0  0  0  0  0
    9.3974    1.2912   24.5523 H   0  0  0  0  0  0  0  0  0  0  0  0
    9.5159    2.2168   23.0553 H   0  0  0  0  0  0  0  0  0  0  0  0
    7.6102   -1.2091   21.6640 H   0  0  0  0  0  0  0  0  0  0  0  0
    8.8741   -1.4657   20.4475 H   0  0  0  0  0  0  0  0  0  0  0  0
  1  3  2  0  0  0  0
  1  9  1  0  0  0  0
  2  4  1  0  0  0  0
  2  9  2  0  0  0  0
  3 10  1  0  0  0  0
  4 10  2  0  0  0  0
  5  6  2  0  0  0  0
  5  8  1  0  0  0  0
  6 27  1  0  0  0  0
  7  8  2  0  0  0  0
  7 27  1  0  0  0  0
  8 19  1  0  0  0  0
  9 24  1  0  0  0  0
 10 26  1  0  0  0  0
 11 12  2  0  0  0  0
 11 13  1  0  0  0  0
 11 23  1  0  0  0  0
 12 20  1  0  0  0  0
 12 21  1  0  0  0  0
 13 14  2  0  0  0  0
 14 15  1  0  0  0  0
 15 16  2  0  0  0  0
 16 23  1  0  0  0  0
 17 20  1  0  0  0  0
 17 24  1  0  0  0  0
 17 25  2  0  0  0  0
 18 26  1  0  0  0  0
 19 24  1  0  0  0  0
 21 22  2  0  0  0  0
 22 23  1  0  0  0  0
  1 28  1  0  0  0  0
  2 29  1  0  0  0  0
  3 30  1  0  0  0  0
  4 31  1  0  0  0  0
  5 32  1  0  0  0  0
  6 33  1  0  0  0  0
  7 34  1  0  0  0  0
 13 35  1  0  0  0  0
 14 36  1  0  0  0  0
 15 37  1  0  0  0  0
 16 38  1  0  0  0  0
 18 39  1  0  0  0  0
 18 40  1  0  0  0  0
 18 41  1  0  0  0  0
 19 42  1  0  0  0  0
 19 43  1  0  0  0  0
 20 44  1  0  0  0  0
 20 45  1  0  0  0  0
M  END
> <clash_score>
0

> <docking_score>
-8.181938171386719

> <overlap_score>
0.9491583704948425

$$$$
BENZO_439_1
  -OEChem-08222022203D

 48 51  0     0  0  0  0  0  0999 V2000
    9.0720   -1.1280   24.8640 C   0  0  0  0  0  0  0  0  0  0  0  0
    9.7200   -2.2600   22.8630 C   0  0  0  0  0  0  0  0  0  0  0  0
    8.9960   -2.3380   25.5320 C   0  0  0  0  0  0  0  0  0  0  0  0
    9.6730   -3.4710   23.5300 C   0  0  0  0  0  0  0  0  0  0  0  0
   12.2914    2.2071   23.0512 C   0  0  0  0  0  0  0  0  0  0  0  0
   12.1614    0.6214   24.5689 C   0  0  0  0  0  0  0  0  0  0  0  0
   11.3794    1.3761   23.7290 C   0  0  0  0  0  0  0  0  0  0  0  0
    9.3350   -1.0880   23.5010 C   0  0  0  0  0  0  0  0  0  0  0  0
    9.3070   -3.5340   24.8780 C   0  0  0  0  0  0  0  0  0  0  0  0
    6.1790    0.5730   19.9990 C   0  0  0  0  0  0  0  0  0  0  0  0
    7.3170   -0.1610   19.8550 C   0  0  0  0  0  0  0  0  0  0  0  0
    5.4210    0.9600   21.0930 C   0  0  0  0  0  0  0  0  0  0  0  0
    4.2750    1.7050   20.8490 C   0  0  0  0  0  0  0  0  0  0  0  0
    3.9160    2.0630   19.5520 C   0  0  0  0  0  0  0  0  0  0  0  0
    4.6890    1.6810   18.4640 C   0  0  0  0  0  0  0  0  0  0  0  0
    9.0420    0.3700   21.5280 C   0  0  0  0  0  0  0  0  0  0  0  0
   14.6267    0.5248   25.0067 C   0  0  0  0  0  0  0  0  0  0  0  0
    8.8720   -4.6805   26.9013 C   0  0  0  0  0  0  0  0  0  0  0  0
    9.8870    1.3260   23.5730 C   0  0  0  0  0  0  0  0  0  0  0  0
    8.1890   -0.7180   20.8700 C   0  0  0  0  0  0  0  0  0  0  0  0
   13.5560    2.0002   23.4280 N   0  0  0  0  0  0  0  0  0  0  0  0
    7.6390   -0.2680   18.5410 N   0  0  0  0  0  0  0  0  0  0  0  0
    6.7580    0.3810   17.8350 N   0  0  0  0  0  0  0  0  0  0  0  0
   13.4442    1.0306   24.3518 N   0  0  0  0  0  0  0  0  0  0  0  0
    5.8300    0.9190   18.6970 N   0  0  0  0  0  0  0  0  0  0  0  0
    9.4560    0.1560   22.8130 N   0  0  0  0  0  0  0  0  0  0  0  0
    9.2690    1.4140   20.9380 O   0  0  0  0  0  0  0  0  0  0  0  0
    9.2555   -4.7124   25.5274 O   0  0  0  0  0  0  0  0  0  0  0  0
    8.9221   -0.1995   25.4231 H   0  0  0  0  0  0  0  0  0  0  0  0
   10.0642   -2.2347   21.8253 H   0  0  0  0  0  0  0  0  0  0  0  0
    8.6902   -2.3588   26.5805 H   0  0  0  0  0  0  0  0  0  0  0  0
    9.9254   -4.3921   22.9961 H   0  0  0  0  0  0  0  0  0  0  0  0
   12.0895    2.9562   22.2987 H   0  0  0  0  0  0  0  0  0  0  0  0
   11.9201   -0.1518   25.2857 H   0  0  0  0  0  0  0  0  0  0  0  0
    5.6859    0.7081   22.1001 H   0  0  0  0  0  0  0  0  0  0  0  0
    3.6634    2.0033   21.6928 H   0  0  0  0  0  0  0  0  0  0  0  0
    3.0114    2.6564   19.3629 H   0  0  0  0  0  0  0  0  0  0  0  0
    4.4373    1.9516   17.4622 H   0  0  0  0  0  0  0  0  0  0  0  0
   15.0068   -0.3132   24.4165 H   0  0  0  0  0  0  0  0  0  0  0  0
   15.3758    1.3189   25.0698 H   0  0  0  0  0  0  0  0  0  0  0  0
   14.3676    0.1958   26.0170 H   0  0  0  0  0  0  0  0  0  0  0  0
    8.8711   -5.6964   27.3038 H   0  0  0  0  0  0  0  0  0  0  0  0
    7.8758   -4.2402   26.9923 H   0  0  0  0  0  0  0  0  0  0  0  0
    9.5894   -4.0716   27.4566 H   0  0  0  0  0  0  0  0  0  0  0  0
    9.3974    1.2912   24.5523 H   0  0  0  0  0  0  0  0  0  0  0  0
    9.5159    2.2168   23.0553 H   0  0  0  0  0  0  0  0  0  0  0  0
    7.6102   -1.2091   21.6640 H   0  0  0  0  0  0  0  0  0  0  0  0
    8.8741   -1.4657   20.4475 H   0  0  0  0  0  0  0  0  0  0  0  0
  1  3  2  0  0  0  0
  1  8  1  0  0  0  0
  2  4  1  0  0  0  0
  2  8  2  0  0  0  0
  3  9  1  0  0  0  0
  4  9  2  0  0  0  0
  5  7  1  0  0  0  0
  5 21  2  0  0  0  0
  6  7  2  0  0  0  0
  6 24  1  0  0  0  0
  7 19  1  0  0  0  0
  8 26  1  0  0  0  0
  9 28  1  0  0  0  0
 10 11  2  0  0  0  0
 10 12  1  0  0  0  0
 10 25  1  0  0  0  0
 11 20  1  0  0  0  0
 11 22  1  0  0  0  0
 12 13  2  0  0  0  0
 13 14  1  0  0  0  0
 14 15  2  0  0  0  0
 15 25  1  0  0  0  0
 16 20  1  0  0  0  0
 16 26  1  0  0  0  0
 16 27  2  0  0  0  0
 17 24  1  0  0  0  0
 18 28  1  0  0  0  0
 19 26  1  0  0  0  0
 21 24  1  0  0  0  0
 22 23  2  0  0  0  0
 23 25  1  0  0  0  0
  1 29  1  0  0  0  0
  2 30  1  0  0  0  0
  3 31  1  0  0  0  0
  4 32  1  0  0  0  0
  5 33  1  0  0  0  0
  6 34  1  0  0  0  0
 12 35  1  0  0  0  0
 13 36  1  0  0  0  0
 14 37  1  0  0  0  0
 15 38  1  0  0  0  0
 17 39  1  0  0  0  0
 17 40  1  0  0  0  0
 17 41  1  0  0  0  0
 18 42  1  0  0  0  0
 18 43  1  0  0  0  0
 18 44  1  0  0  0  0
 19 45  1  0  0  0  0
 19 46  1  0  0  0  0
 20 47  1  0  0  0  0
 20 48  1  0  0  0  0
M  END
> <clash_score>
0.6199410862451628

> <docking_score>
-8.646964073181152

> <overlap_score>
0.9605907797813416

$$$$
BENZO_438_1
  -OEChem-08222022203D

 48 51  0     0  0  0  0  0  0999 V2000
   13.4007    0.5725   24.7805 C   0  0  0  0  0  0  0  0  0  0  0  0
   12.0141    0.5273   24.6359 C   0  0  0  0  0  0  0  0  0  0  0  0
    9.0720   -1.1280   24.8640 C   0  0  0  0  0  0  0  0  0  0  0  0
    9.7200   -2.2600   22.8630 C   0  0  0  0  0  0  0  0  0  0  0  0
    8.9960   -2.3380   25.5320 C   0  0  0  0  0  0  0  0  0  0  0  0
    9.6730   -3.4710   23.5300 C   0  0  0  0  0  0  0  0  0  0  0  0
   14.1526    1.4666   24.0184 C   0  0  0  0  0  0  0  0  0  0  0  0
   12.1314    2.2702   22.9668 C   0  0  0  0  0  0  0  0  0  0  0  0
   11.3794    1.3761   23.7290 C   0  0  0  0  0  0  0  0  0  0  0  0
    9.3350   -1.0880   23.5010 C   0  0  0  0  0  0  0  0  0  0  0  0
    9.3070   -3.5340   24.8780 C   0  0  0  0  0  0  0  0  0  0  0  0
   13.5180    2.3154   23.1115 C   0  0  0  0  0  0  0  0  0  0  0  0
    6.1790    0.5730   19.9990 C   0  0  0  0  0  0  0  0  0  0  0  0
    7.3170   -0.1610   19.8550 C   0  0  0  0  0  0  0  0  0  0  0  0
    5.4210    0.9600   21.0930 C   0  0  0  0  0  0  0  0  0  0  0  0
    4.2750    1.7050   20.8490 C   0  0  0  0  0  0  0  0  0  0  0  0
    3.9160    2.0630   19.5520 C   0  0  0  0  0  0  0  0  0  0  0  0
    4.6890    1.6810   18.4640 C   0  0  0  0  0  0  0  0  0  0  0  0
    9.0420    0.3700   21.5280 C   0  0  0  0  0  0  0  0  0  0  0  0
    8.8720   -4.6805   26.9013 C   0  0  0  0  0  0  0  0  0  0  0  0
    9.8870    1.3260   23.5730 C   0  0  0  0  0  0  0  0  0  0  0  0
    8.1890   -0.7180   20.8700 C   0  0  0  0  0  0  0  0  0  0  0  0
    7.6390   -0.2680   18.5410 N   0  0  0  0  0  0  0  0  0  0  0  0
    6.7580    0.3810   17.8350 N   0  0  0  0  0  0  0  0  0  0  0  0
    5.8300    0.9190   18.6970 N   0  0  0  0  0  0  0  0  0  0  0  0
    9.4560    0.1560   22.8130 N   0  0  0  0  0  0  0  0  0  0  0  0
    9.2690    1.4140   20.9380 O   0  0  0  0  0  0  0  0  0  0  0  0
    9.2555   -4.7124   25.5274 O   0  0  0  0  0  0  0  0  0  0  0  0
   14.4463    3.4175   22.1707 Cl  0  0  0  0  0  0  0  0  0  0  0  0
   13.8945   -0.0888   25.4867 H   0  0  0  0  0  0  0  0  0  0  0  0
   11.4361   -0.1726   25.2338 H   0  0  0  0  0  0  0  0  0  0  0  0
    8.9221   -0.1995   25.4231 H   0  0  0  0  0  0  0  0  0  0  0  0
   10.0642   -2.2347   21.8253 H   0  0  0  0  0  0  0  0  0  0  0  0
    8.6902   -2.3588   26.5805 H   0  0  0  0  0  0  0  0  0  0  0  0
    9.9254   -4.3921   22.9961 H   0  0  0  0  0  0  0  0  0  0  0  0
   15.2326    1.4907   24.1414 H   0  0  0  0  0  0  0  0  0  0  0  0
   11.6318    2.9303   22.2615 H   0  0  0  0  0  0  0  0  0  0  0  0
    5.6859    0.7081   22.1001 H   0  0  0  0  0  0  0  0  0  0  0  0
    3.6634    2.0033   21.6928 H   0  0  0  0  0  0  0  0  0  0  0  0
    3.0114    2.6564   19.3629 H   0  0  0  0  0  0  0  0  0  0  0  0
    4.4373    1.9516   17.4622 H   0  0  0  0  0  0  0  0  0  0  0  0
    8.8711   -5.6964   27.3038 H   0  0  0  0  0  0  0  0  0  0  0  0
    7.8758   -4.2402   26.9923 H   0  0  0  0  0  0  0  0  0  0  0  0
    9.5894   -4.0716   27.4566 H   0  0  0  0  0  0  0  0  0  0  0  0
    9.3974    1.2912   24.5523 H   0  0  0  0  0  0  0  0  0  0  0  0
    9.5159    2.2168   23.0553 H   0  0  0  0  0  0  0  0  0  0  0  0
    7.6102   -1.2091   21.6640 H   0  0  0  0  0  0  0  0  0  0  0  0
    8.8741   -1.4657   20.4475 H   0  0  0  0  0  0  0  0  0  0  0  0
  1  2  2  0  0  0  0
  1  7  1  0  0  0  0
  2  9  1  0  0  0  0
  3  5  2  0  0  0  0
  3 10  1  0  0  0  0
  4  6  1  0  0  0  0
  4 10  2  0  0  0  0
  5 11  1  0  0  0  0
  6 11  2  0  0  0  0
  7 12  2  0  0  0  0
  8  9  2  0  0  0  0
  8 12  1  0  0  0  0
  9 21  1  0  0  0  0
 10 26  1  0  0  0  0
 11 28  1  0  0  0  0
 12 29  1  0  0  0  0
 13 14  2  0  0  0  0
 13 15  1  0  0  0  0
 13 25  1  0  0  0  0
 14 22  1  0  0  0  0
 14 23  1  0  0  0  0
 15 16  2  0  0  0  0
 16 17  1  0  0  0  0
 17 18  2  0  0  0  0
 18 25  1  0  0  0  0
 19 22  1  0  0  0  0
 19 26  1  0  0  0  0
 19 27  2  0  0  0  0
 20 28  1  0  0  0  0
 21 26  1  0  0  0  0
 23 24  2  0  0  0  0
 24 25  1  0  0  0  0
  1 30  1  0  0  0  0
  2 31  1  0  0  0  0
  3 32  1  0  0  0  0
  4 33  1  0  0  0  0
  5 34  1  0  0  0  0
  6 35  1  0  0  0  0
  7 36  1  0  0  0  0
  8 37  1  0  0  0  0
 15 38  1  0  0  0  0
 16 39  1  0  0  0  0
 17 40  1  0  0  0  0
 18 41  1  0  0  0  0
 20 42  1  0  0  0  0
 20 43  1  0  0  0  0
 20 44  1  0  0  0  0
 21 45  1  0  0  0  0
 21 46  1  0  0  0  0
 22 47  1  0  0  0  0
 22 48  1  0  0  0  0
M  END
> <clash_score>
0

> <docking_score>
-8.07593822479248

> <overlap_score>
0.9730234742164612

$$$$
BENZO_441_1
  -OEChem-08222022203D

 58 62  0     0  0  0  0  0  0999 V2000
   14.1526    1.4694   24.0176 C   0  0  0  0  0  0  0  0  0  0  0  0
   13.3741    0.8121   24.9701 C   0  0  0  0  0  0  0  0  0  0  0  0
   13.5446    2.0802   22.9208 C   0  0  0  0  0  0  0  0  0  0  0  0
   11.9875    0.7654   24.8258 C   0  0  0  0  0  0  0  0  0  0  0  0
   12.1580    2.0335   22.7765 C   0  0  0  0  0  0  0  0  0  0  0  0
    8.9960   -2.3380   25.5320 C   0  0  0  0  0  0  0  0  0  0  0  0
    9.6730   -3.4710   23.5300 C   0  0  0  0  0  0  0  0  0  0  0  0
    9.0720   -1.1280   24.8640 C   0  0  0  0  0  0  0  0  0  0  0  0
    9.7200   -2.2600   22.8630 C   0  0  0  0  0  0  0  0  0  0  0  0
   11.3794    1.3761   23.7290 C   0  0  0  0  0  0  0  0  0  0  0  0
    9.3070   -3.5340   24.8780 C   0  0  0  0  0  0  0  0  0  0  0  0
    9.3350   -1.0880   23.5010 C   0  0  0  0  0  0  0  0  0  0  0  0
    6.1790    0.5730   19.9990 C   0  0  0  0  0  0  0  0  0  0  0  0
    7.3170   -0.1610   19.8550 C   0  0  0  0  0  0  0  0  0  0  0  0
    5.4210    0.9600   21.0930 C   0  0  0  0  0  0  0  0  0  0  0  0
    4.2750    1.7050   20.8490 C   0  0  0  0  0  0  0  0  0  0  0  0
    3.9160    2.0630   19.5520 C   0  0  0  0  0  0  0  0  0  0  0  0
    4.6890    1.6810   18.4640 C   0  0  0  0  0  0  0  0  0  0  0  0
    8.3597   -5.0073   26.6307 C   0  0  0  0  0  0  0  0  0  0  0  0
    9.0420    0.3700   21.5280 C   0  0  0  0  0  0  0  0  0  0  0  0
    8.4720   -6.3981   27.2296 C   0  0  0  0  0  0  0  0  0  0  0  0
    9.9252   -6.7605   27.4803 C   0  0  0  0  0  0  0  0  0  0  0  0
   10.7833   -6.6094   26.2282 C   0  0  0  0  0  0  0  0  0  0  0  0
   10.0539   -5.9099   25.0823 C   0  0  0  0  0  0  0  0  0  0  0  0
    9.8870    1.3260   23.5730 C   0  0  0  0  0  0  0  0  0  0  0  0
    8.1890   -0.7180   20.8700 C   0  0  0  0  0  0  0  0  0  0  0  0
    7.6390   -0.2680   18.5410 N   0  0  0  0  0  0  0  0  0  0  0  0
    6.7580    0.3810   17.8350 N   0  0  0  0  0  0  0  0  0  0  0  0
    5.8300    0.9190   18.6970 N   0  0  0  0  0  0  0  0  0  0  0  0
    9.2529   -4.7797   25.5644 N   0  0  0  0  0  0  0  0  0  0  0  0
    9.4560    0.1560   22.8130 N   0  0  0  0  0  0  0  0  0  0  0  0
    7.4954   -4.2356   27.0449 O   0  0  0  0  0  0  0  0  0  0  0  0
    9.2690    1.4140   20.9380 O   0  0  0  0  0  0  0  0  0  0  0  0
   15.2322    1.5068   24.1308 H   0  0  0  0  0  0  0  0  0  0  0  0
   13.8473    0.3374   25.8248 H   0  0  0  0  0  0  0  0  0  0  0  0
   14.1503    2.5930   22.1795 H   0  0  0  0  0  0  0  0  0  0  0  0
   11.3889    0.2508   25.5729 H   0  0  0  0  0  0  0  0  0  0  0  0
   11.6930    2.5120   21.9187 H   0  0  0  0  0  0  0  0  0  0  0  0
    8.6895   -2.3529   26.5807 H   0  0  0  0  0  0  0  0  0  0  0  0
    9.9262   -4.3897   22.9916 H   0  0  0  0  0  0  0  0  0  0  0  0
    8.9224   -0.1998   25.4238 H   0  0  0  0  0  0  0  0  0  0  0  0
   10.0649   -2.2343   21.8258 H   0  0  0  0  0  0  0  0  0  0  0  0
    5.6859    0.7081   22.1001 H   0  0  0  0  0  0  0  0  0  0  0  0
    3.6634    2.0033   21.6928 H   0  0  0  0  0  0  0  0  0  0  0  0
    3.0114    2.6564   19.3629 H   0  0  0  0  0  0  0  0  0  0  0  0
    4.4373    1.9516   17.4622 H   0  0  0  0  0  0  0  0  0  0  0  0
    7.9325   -6.4148   28.1641 H   0  0  0  0  0  0  0  0  0  0  0  0
    8.0254   -7.0920   26.5333 H   0  0  0  0  0  0  0  0  0  0  0  0
   10.3387   -6.1267   28.2923 H   0  0  0  0  0  0  0  0  0  0  0  0
    9.9904   -7.8023   27.8537 H   0  0  0  0  0  0  0  0  0  0  0  0
   11.7037   -6.0404   26.4771 H   0  0  0  0  0  0  0  0  0  0  0  0
   11.1411   -7.6068   25.8918 H   0  0  0  0  0  0  0  0  0  0  0  0
   10.7782   -5.5162   24.3756 H   0  0  0  0  0  0  0  0  0  0  0  0
    9.4042   -6.6189   24.5807 H   0  0  0  0  0  0  0  0  0  0  0  0
    9.3974    1.2912   24.5523 H   0  0  0  0  0  0  0  0  0  0  0  0
    9.5159    2.2168   23.0554 H   0  0  0  0  0  0  0  0  0  0  0  0
    7.5972   -1.2056   21.6500 H   0  0  0  0  0  0  0  0  0  0  0  0
    8.8612   -1.4622   20.4334 H   0  0  0  0  0  0  0  0  0  0  0  0
  1  2  1  0  0  0  0
  1  3  2  0  0  0  0
  2  4  2  0  0  0  0
  3  5  1  0  0  0  0
  4 10  1  0  0  0  0
  5 10  2  0  0  0  0
  6  8  2  0  0  0  0
  6 11  1  0  0  0  0
  7  9  1  0  0  0  0
  7 11  2  0  0  0  0
  8 12  1  0  0  0  0
  9 12  2  0  0  0  0
 10 25  1  0  0  0  0
 11 30  1  0  0  0  0
 12 31  1  0  0  0  0
 13 14  2  0  0  0  0
 13 15  1  0  0  0  0
 13 29  1  0  0  0  0
 14 26  1  0  0  0  0
 14 27  1  0  0  0  0
 15 16  2  0  0  0  0
 16 17  1  0  0  0  0
 17 18  2  0  0  0  0
 18 29  1  0  0  0  0
 19 21  1  0  0  0  0
 19 30  1  0  0  0  0
 19 32  2  0  0  0  0
 20 26  1  0  0  0  0
 20 31  1  0  0  0  0
 20 33  2  0  0  0  0
 21 22  1  0  0  0  0
 22 23  1  0  0  0  0
 23 24  1  0  0  0  0
 24 30  1  0  0  0  0
 25 31  1  0  0  0  0
 27 28  2  0  0  0  0
 28 29  1  0  0  0  0
  1 34  1  0  0  0  0
  2 35  1  0  0  0  0
  3 36  1  0  0  0  0
  4 37  1  0  0  0  0
  5 38  1  0  0  0  0
  6 39  1  0  0  0  0
  7 40  1  0  0  0  0
  8 41  1  0  0  0  0
  9 42  1  0  0  0  0
 15 43  1  0  0  0  0
 16 44  1  0  0  0  0
 17 45  1  0  0  0  0
 18 46  1  0  0  0  0
 21 47  1  0  0  0  0
 21 48  1  0  0  0  0
 22 49  1  0  0  0  0
 22 50  1  0  0  0  0
 23 51  1  0  0  0  0
 23 52  1  0  0  0  0
 24 53  1  0  0  0  0
 24 54  1  0  0  0  0
 25 55  1  0  0  0  0
 25 56  1  0  0  0  0
 26 57  1  0  0  0  0
 26 58  1  0  0  0  0
M  END
> <clash_score>
0.7790751876189459

> <docking_score>
-8.29859447479248

> <overlap_score>
1.0041024684906006

$$$$
BENZO_440_1
  -OEChem-08222022203D

 55 59  0     0  0  0  0  0  0999 V2000
    8.9960   -2.3380   25.5320 C   0  0  0  0  0  0  0  0  0  0  0  0
    9.6730   -3.4710   23.5300 C   0  0  0  0  0  0  0  0  0  0  0  0
    9.0720   -1.1280   24.8640 C   0  0  0  0  0  0  0  0  0  0  0  0
    9.7200   -2.2600   22.8630 C   0  0  0  0  0  0  0  0  0  0  0  0
   12.2913    1.4279   22.6355 C   0  0  0  0  0  0  0  0  0  0  0  0
   13.6024    1.4662   23.0564 C   0  0  0  0  0  0  0  0  0  0  0  0
   12.0284    1.3764   24.9443 C   0  0  0  0  0  0  0  0  0  0  0  0
   11.3794    1.3761   23.7290 C   0  0  0  0  0  0  0  0  0  0  0  0
    9.3070   -3.5340   24.8780 C   0  0  0  0  0  0  0  0  0  0  0  0
    9.3350   -1.0880   23.5010 C   0  0  0  0  0  0  0  0  0  0  0  0
    6.1790    0.5730   19.9990 C   0  0  0  0  0  0  0  0  0  0  0  0
    7.3170   -0.1610   19.8550 C   0  0  0  0  0  0  0  0  0  0  0  0
    5.4210    0.9600   21.0930 C   0  0  0  0  0  0  0  0  0  0  0  0
    4.2750    1.7050   20.8490 C   0  0  0  0  0  0  0  0  0  0  0  0
    3.9160    2.0630   19.5520 C   0  0  0  0  0  0  0  0  0  0  0  0
    4.6890    1.6810   18.4640 C   0  0  0  0  0  0  0  0  0  0  0  0
    8.3596   -5.0074   26.6308 C   0  0  0  0  0  0  0  0  0  0  0  0
    9.0420    0.3700   21.5280 C   0  0  0  0  0  0  0  0  0  0  0  0
    8.4579   -6.4047   27.2169 C   0  0  0  0  0  0  0  0  0  0  0  0
    8.4717   -7.4504   26.1159 C   0  0  0  0  0  0  0  0  0  0  0  0
    9.5645   -7.1893   25.0842 C   0  0  0  0  0  0  0  0  0  0  0  0
   10.2327   -5.8252   25.2501 C   0  0  0  0  0  0  0  0  0  0  0  0
    9.8870    1.3260   23.5730 C   0  0  0  0  0  0  0  0  0  0  0  0
    8.1890   -0.7180   20.8700 C   0  0  0  0  0  0  0  0  0  0  0  0
    7.6390   -0.2680   18.5410 N   0  0  0  0  0  0  0  0  0  0  0  0
    6.7580    0.3810   17.8350 N   0  0  0  0  0  0  0  0  0  0  0  0
    5.8300    0.9190   18.6970 N   0  0  0  0  0  0  0  0  0  0  0  0
    9.2529   -4.7798   25.5645 N   0  0  0  0  0  0  0  0  0  0  0  0
    9.4560    0.1560   22.8130 N   0  0  0  0  0  0  0  0  0  0  0  0
    7.5990   -4.1865   27.1424 O   0  0  0  0  0  0  0  0  0  0  0  0
    9.2690    1.4140   20.9380 O   0  0  0  0  0  0  0  0  0  0  0  0
   13.7301    1.4394   24.7638 S   0  0  0  0  0  0  0  0  0  0  0  0
    8.6895   -2.3529   26.5807 H   0  0  0  0  0  0  0  0  0  0  0  0
    9.9262   -4.3897   22.9916 H   0  0  0  0  0  0  0  0  0  0  0  0
    8.9224   -0.1998   25.4238 H   0  0  0  0  0  0  0  0  0  0  0  0
   10.0649   -2.2343   21.8258 H   0  0  0  0  0  0  0  0  0  0  0  0
   12.0045    1.4365   21.5915 H   0  0  0  0  0  0  0  0  0  0  0  0
   14.4914    1.5078   22.4431 H   0  0  0  0  0  0  0  0  0  0  0  0
   11.5886    1.3416   25.9314 H   0  0  0  0  0  0  0  0  0  0  0  0
    5.6859    0.7081   22.1001 H   0  0  0  0  0  0  0  0  0  0  0  0
    3.6634    2.0033   21.6928 H   0  0  0  0  0  0  0  0  0  0  0  0
    3.0114    2.6564   19.3629 H   0  0  0  0  0  0  0  0  0  0  0  0
    4.4373    1.9516   17.4622 H   0  0  0  0  0  0  0  0  0  0  0  0
    9.3706   -6.4745   27.7885 H   0  0  0  0  0  0  0  0  0  0  0  0
    7.6055   -6.5497   27.8636 H   0  0  0  0  0  0  0  0  0  0  0  0
    8.6095   -8.4604   26.5550 H   0  0  0  0  0  0  0  0  0  0  0  0
    7.4835   -7.4763   25.6142 H   0  0  0  0  0  0  0  0  0  0  0  0
   10.3359   -7.9850   25.1531 H   0  0  0  0  0  0  0  0  0  0  0  0
    9.1458   -7.2796   24.0582 H   0  0  0  0  0  0  0  0  0  0  0  0
   10.9408   -5.8640   26.0725 H   0  0  0  0  0  0  0  0  0  0  0  0
   10.7521   -5.5631   24.3347 H   0  0  0  0  0  0  0  0  0  0  0  0
    9.3974    1.2912   24.5523 H   0  0  0  0  0  0  0  0  0  0  0  0
    9.5159    2.2168   23.0554 H   0  0  0  0  0  0  0  0  0  0  0  0
    7.5972   -1.2056   21.6500 H   0  0  0  0  0  0  0  0  0  0  0  0
    8.8612   -1.4622   20.4334 H   0  0  0  0  0  0  0  0  0  0  0  0
  1  3  2  0  0  0  0
  1  9  1  0  0  0  0
  2  4  1  0  0  0  0
  2  9  2  0  0  0  0
  3 10  1  0  0  0  0
  4 10  2  0  0  0  0
  5  6  2  0  0  0  0
  5  8  1  0  0  0  0
  6 32  1  0  0  0  0
  7  8  2  0  0  0  0
  7 32  1  0  0  0  0
  8 23  1  0  0  0  0
  9 28  1  0  0  0  0
 10 29  1  0  0  0  0
 11 12  2  0  0  0  0
 11 13  1  0  0  0  0
 11 27  1  0  0  0  0
 12 24  1  0  0  0  0
 12 25  1  0  0  0  0
 13 14  2  0  0  0  0
 14 15  1  0  0  0  0
 15 16  2  0  0  0  0
 16 27  1  0  0  0  0
 17 19  1  0  0  0  0
 17 28  1  0  0  0  0
 17 30  2  0  0  0  0
 18 24  1  0  0  0  0
 18 29  1  0  0  0  0
 18 31  2  0  0  0  0
 19 20  1  0  0  0  0
 20 21  1  0  0  0  0
 21 22  1  0  0  0  0
 22 28  1  0  0  0  0
 23 29  1  0  0  0  0
 25 26  2  0  0  0  0
 26 27  1  0  0  0  0
  1 33  1  0  0  0  0
  2 34  1  0  0  0  0
  3 35  1  0  0  0  0
  4 36  1  0  0  0  0
  5 37  1  0  0  0  0
  6 38  1  0  0  0  0
  7 39  1  0  0  0  0
 13 40  1  0  0  0  0
 14 41  1  0  0  0  0
 15 42  1  0  0  0  0
 16 43  1  0  0  0  0
 19 44  1  0  0  0  0
 19 45  1  0  0  0  0
 20 46  1  0  0  0  0
 20 47  1  0  0  0  0
 21 48  1  0  0  0  0
 21 49  1  0  0  0  0
 22 50  1  0  0  0  0
 22 51  1  0  0  0  0
 23 52  1  0  0  0  0
 23 53  1  0  0  0  0
 24 54  1  0  0  0  0
 24 55  1  0  0  0  0
M  END
> <clash_score>
0.6354466317061015

> <docking_score>
-8.21389389038086

> <overlap_score>
0.9878003001213074

$$$$
BENZO_445_1
  -OEChem-08222022203D

 57 61  0     0  0  0  0  0  0999 V2000
   14.1526    1.4694   24.0176 C   0  0  0  0  0  0  0  0  0  0  0  0
   13.3741    0.8121   24.9701 C   0  0  0  0  0  0  0  0  0  0  0  0
   13.5446    2.0802   22.9208 C   0  0  0  0  0  0  0  0  0  0  0  0
   11.9875    0.7654   24.8258 C   0  0  0  0  0  0  0  0  0  0  0  0
   12.1580    2.0335   22.7765 C   0  0  0  0  0  0  0  0  0  0  0  0
    8.9960   -2.3380   25.5320 C   0  0  0  0  0  0  0  0  0  0  0  0
    9.6730   -3.4710   23.5300 C   0  0  0  0  0  0  0  0  0  0  0  0
    9.0720   -1.1280   24.8640 C   0  0  0  0  0  0  0  0  0  0  0  0
    9.7200   -2.2600   22.8630 C   0  0  0  0  0  0  0  0  0  0  0  0
   11.3794    1.3761   23.7290 C   0  0  0  0  0  0  0  0  0  0  0  0
    9.3070   -3.5340   24.8780 C   0  0  0  0  0  0  0  0  0  0  0  0
    9.3350   -1.0880   23.5010 C   0  0  0  0  0  0  0  0  0  0  0  0
    6.1790    0.5730   19.9990 C   0  0  0  0  0  0  0  0  0  0  0  0
    7.3170   -0.1610   19.8550 C   0  0  0  0  0  0  0  0  0  0  0  0
    5.4210    0.9600   21.0930 C   0  0  0  0  0  0  0  0  0  0  0  0
    4.2750    1.7050   20.8490 C   0  0  0  0  0  0  0  0  0  0  0  0
    3.9160    2.0630   19.5520 C   0  0  0  0  0  0  0  0  0  0  0  0
    4.6890    1.6810   18.4640 C   0  0  0  0  0  0  0  0  0  0  0  0
    9.0420    0.3700   21.5280 C   0  0  0  0  0  0  0  0  0  0  0  0
   10.0771   -5.0255   26.7193 C   0  0  0  0  0  0  0  0  0  0  0  0
    8.0927   -5.6195   25.4071 C   0  0  0  0  0  0  0  0  0  0  0  0
    9.1933   -4.9427   27.9592 C   0  0  0  0  0  0  0  0  0  0  0  0
    7.2756   -5.5290   26.6967 C   0  0  0  0  0  0  0  0  0  0  0  0
    9.8870    1.3260   23.5730 C   0  0  0  0  0  0  0  0  0  0  0  0
    8.1890   -0.7180   20.8700 C   0  0  0  0  0  0  0  0  0  0  0  0
    7.6390   -0.2680   18.5410 N   0  0  0  0  0  0  0  0  0  0  0  0
    6.7580    0.3810   17.8350 N   0  0  0  0  0  0  0  0  0  0  0  0
    5.8300    0.9190   18.6970 N   0  0  0  0  0  0  0  0  0  0  0  0
    9.2563   -4.7368   25.5413 N   0  0  0  0  0  0  0  0  0  0  0  0
    9.4560    0.1560   22.8130 N   0  0  0  0  0  0  0  0  0  0  0  0
    9.2690    1.4140   20.9380 O   0  0  0  0  0  0  0  0  0  0  0  0
    8.0883   -5.8459   27.8325 O   0  0  0  0  0  0  0  0  0  0  0  0
   15.2322    1.5068   24.1308 H   0  0  0  0  0  0  0  0  0  0  0  0
   13.8473    0.3374   25.8248 H   0  0  0  0  0  0  0  0  0  0  0  0
   14.1503    2.5930   22.1795 H   0  0  0  0  0  0  0  0  0  0  0  0
   11.3889    0.2508   25.5729 H   0  0  0  0  0  0  0  0  0  0  0  0
   11.6930    2.5120   21.9187 H   0  0  0  0  0  0  0  0  0  0  0  0
    8.6905   -2.3533   26.5810 H   0  0  0  0  0  0  0  0  0  0  0  0
    9.9266   -4.3896   22.9917 H   0  0  0  0  0  0  0  0  0  0  0  0
    8.9233   -0.1992   25.4232 H   0  0  0  0  0  0  0  0  0  0  0  0
   10.0650   -2.2330   21.8256 H   0  0  0  0  0  0  0  0  0  0  0  0
    5.6859    0.7081   22.1001 H   0  0  0  0  0  0  0  0  0  0  0  0
    3.6634    2.0033   21.6928 H   0  0  0  0  0  0  0  0  0  0  0  0
    3.0114    2.6564   19.3629 H   0  0  0  0  0  0  0  0  0  0  0  0
    4.4373    1.9516   17.4622 H   0  0  0  0  0  0  0  0  0  0  0  0
   10.8985   -4.3115   26.8085 H   0  0  0  0  0  0  0  0  0  0  0  0
   10.4915   -6.0334   26.6323 H   0  0  0  0  0  0  0  0  0  0  0  0
    8.4327   -6.6456   25.2620 H   0  0  0  0  0  0  0  0  0  0  0  0
    7.4725   -5.3241   24.5619 H   0  0  0  0  0  0  0  0  0  0  0  0
    9.7636   -5.2398   28.8419 H   0  0  0  0  0  0  0  0  0  0  0  0
    8.8236   -3.9268   28.1248 H   0  0  0  0  0  0  0  0  0  0  0  0
    6.8339   -4.5337   26.8232 H   0  0  0  0  0  0  0  0  0  0  0  0
    6.4550   -6.2521   26.6643 H   0  0  0  0  0  0  0  0  0  0  0  0
    9.3974    1.2912   24.5523 H   0  0  0  0  0  0  0  0  0  0  0  0
    9.5159    2.2168   23.0554 H   0  0  0  0  0  0  0  0  0  0  0  0
    7.5972   -1.2056   21.6500 H   0  0  0  0  0  0  0  0  0  0  0  0
    8.8612   -1.4622   20.4334 H   0  0  0  0  0  0  0  0  0  0  0  0
  1  2  1  0  0  0  0
  1  3  2  0  0  0  0
  2  4  2  0  0  0  0
  3  5  1  0  0  0  0
  4 10  1  0  0  0  0
  5 10  2  0  0  0  0
  6  8  2  0  0  0  0
  6 11  1  0  0  0  0
  7  9  1  0  0  0  0
  7 11  2  0  0  0  0
  8 12  1  0  0  0  0
  9 12  2  0  0  0  0
 10 24  1  0  0  0  0
 11 29  1  0  0  0  0
 12 30  1  0  0  0  0
 13 14  2  0  0  0  0
 13 15  1  0  0  0  0
 13 28  1  0  0  0  0
 14 25  1  0  0  0  0
 14 26  1  0  0  0  0
 15 16  2  0  0  0  0
 16 17  1  0  0  0  0
 17 18  2  0  0  0  0
 18 28  1  0  0  0  0
 19 25  1  0  0  0  0
 19 30  1  0  0  0  0
 19 31  2  0  0  0  0
 20 22  1  0  0  0  0
 20 29  1  0  0  0  0
 21 23  1  0  0  0  0
 21 29  1  0  0  0  0
 22 32  1  0  0  0  0
 23 32  1  0  0  0  0
 24 30  1  0  0  0  0
 26 27  2  0  0  0  0
 27 28  1  0  0  0  0
  1 33  1  0  0  0  0
  2 34  1  0  0  0  0
  3 35  1  0  0  0  0
  4 36  1  0  0  0  0
  5 37  1  0  0  0  0
  6 38  1  0  0  0  0
  7 39  1  0  0  0  0
  8 40  1  0  0  0  0
  9 41  1  0  0  0  0
 15 42  1  0  0  0  0
 16 43  1  0  0  0  0
 17 44  1  0  0  0  0
 18 45  1  0  0  0  0
 20 46  1  0  0  0  0
 20 47  1  0  0  0  0
 21 48  1  0  0  0  0
 21 49  1  0  0  0  0
 22 50  1  0  0  0  0
 22 51  1  0  0  0  0
 23 52  1  0  0  0  0
 23 53  1  0  0  0  0
 24 54  1  0  0  0  0
 24 55  1  0  0  0  0
 25 56  1  0  0  0  0
 25 57  1  0  0  0  0
M  END
> <clash_score>
0

> <docking_score>
-9.279705047607422

> <overlap_score>
0.9903321862220764

$$$$
BENZO_443_1
  -OEChem-08222022203D

 58 62  0     0  0  0  0  0  0999 V2000
    8.9960   -2.3380   25.5320 C   0  0  0  0  0  0  0  0  0  0  0  0
    9.6730   -3.4710   23.5300 C   0  0  0  0  0  0  0  0  0  0  0  0
    9.0720   -1.1280   24.8640 C   0  0  0  0  0  0  0  0  0  0  0  0
    9.7200   -2.2600   22.8630 C   0  0  0  0  0  0  0  0  0  0  0  0
   12.1233    1.3811   24.9242 C   0  0  0  0  0  0  0  0  0  0  0  0
   12.3262    1.4247   22.7351 C   0  0  0  0  0  0  0  0  0  0  0  0
   11.3794    1.3761   23.7290 C   0  0  0  0  0  0  0  0  0  0  0  0
    9.3070   -3.5340   24.8780 C   0  0  0  0  0  0  0  0  0  0  0  0
    9.3350   -1.0880   23.5010 C   0  0  0  0  0  0  0  0  0  0  0  0
    6.1790    0.5730   19.9990 C   0  0  0  0  0  0  0  0  0  0  0  0
    7.3170   -0.1610   19.8550 C   0  0  0  0  0  0  0  0  0  0  0  0
    5.4210    0.9600   21.0930 C   0  0  0  0  0  0  0  0  0  0  0  0
    4.2750    1.7050   20.8490 C   0  0  0  0  0  0  0  0  0  0  0  0
    3.9160    2.0630   19.5520 C   0  0  0  0  0  0  0  0  0  0  0  0
    4.6890    1.6810   18.4640 C   0  0  0  0  0  0  0  0  0  0  0  0
    8.3597   -5.0073   26.6307 C   0  0  0  0  0  0  0  0  0  0  0  0
    9.0420    0.3700   21.5280 C   0  0  0  0  0  0  0  0  0  0  0  0
    8.4720   -6.3981   27.2296 C   0  0  0  0  0  0  0  0  0  0  0  0
    9.9252   -6.7605   27.4803 C   0  0  0  0  0  0  0  0  0  0  0  0
   10.7833   -6.6094   26.2282 C   0  0  0  0  0  0  0  0  0  0  0  0
   10.0539   -5.9099   25.0823 C   0  0  0  0  0  0  0  0  0  0  0  0
   14.8305    1.5084   22.7418 C   0  0  0  0  0  0  0  0  0  0  0  0
    9.8870    1.3260   23.5730 C   0  0  0  0  0  0  0  0  0  0  0  0
    8.1890   -0.7180   20.8700 C   0  0  0  0  0  0  0  0  0  0  0  0
   13.4410    1.4289   24.7112 N   0  0  0  0  0  0  0  0  0  0  0  0
    7.6390   -0.2680   18.5410 N   0  0  0  0  0  0  0  0  0  0  0  0
    6.7580    0.3810   17.8350 N   0  0  0  0  0  0  0  0  0  0  0  0
   13.5326    1.4543   23.3707 N   0  0  0  0  0  0  0  0  0  0  0  0
    5.8300    0.9190   18.6970 N   0  0  0  0  0  0  0  0  0  0  0  0
    9.2529   -4.7797   25.5644 N   0  0  0  0  0  0  0  0  0  0  0  0
    9.4560    0.1560   22.8130 N   0  0  0  0  0  0  0  0  0  0  0  0
    7.4954   -4.2356   27.0449 O   0  0  0  0  0  0  0  0  0  0  0  0
    9.2690    1.4140   20.9380 O   0  0  0  0  0  0  0  0  0  0  0  0
    8.6895   -2.3529   26.5807 H   0  0  0  0  0  0  0  0  0  0  0  0
    9.9262   -4.3897   22.9916 H   0  0  0  0  0  0  0  0  0  0  0  0
    8.9224   -0.1998   25.4238 H   0  0  0  0  0  0  0  0  0  0  0  0
   10.0649   -2.2343   21.8258 H   0  0  0  0  0  0  0  0  0  0  0  0
   11.7624    1.3510   25.9426 H   0  0  0  0  0  0  0  0  0  0  0  0
   12.2462    1.4390   21.6566 H   0  0  0  0  0  0  0  0  0  0  0  0
    5.6859    0.7081   22.1001 H   0  0  0  0  0  0  0  0  0  0  0  0
    3.6634    2.0033   21.6928 H   0  0  0  0  0  0  0  0  0  0  0  0
    3.0114    2.6564   19.3629 H   0  0  0  0  0  0  0  0  0  0  0  0
    4.4373    1.9516   17.4622 H   0  0  0  0  0  0  0  0  0  0  0  0
    7.9325   -6.4148   28.1641 H   0  0  0  0  0  0  0  0  0  0  0  0
    8.0254   -7.0920   26.5333 H   0  0  0  0  0  0  0  0  0  0  0  0
   10.3387   -6.1267   28.2923 H   0  0  0  0  0  0  0  0  0  0  0  0
    9.9904   -7.8023   27.8537 H   0  0  0  0  0  0  0  0  0  0  0  0
   11.7037   -6.0404   26.4771 H   0  0  0  0  0  0  0  0  0  0  0  0
   11.1411   -7.6068   25.8918 H   0  0  0  0  0  0  0  0  0  0  0  0
   10.7782   -5.5162   24.3756 H   0  0  0  0  0  0  0  0  0  0  0  0
    9.4042   -6.6189   24.5807 H   0  0  0  0  0  0  0  0  0  0  0  0
   15.0990    2.5601   22.6124 H   0  0  0  0  0  0  0  0  0  0  0  0
   15.5636    1.0018   23.3756 H   0  0  0  0  0  0  0  0  0  0  0  0
   14.7841    1.0025   21.7733 H   0  0  0  0  0  0  0  0  0  0  0  0
    9.3974    1.2912   24.5523 H   0  0  0  0  0  0  0  0  0  0  0  0
    9.5159    2.2168   23.0554 H   0  0  0  0  0  0  0  0  0  0  0  0
    7.5972   -1.2056   21.6500 H   0  0  0  0  0  0  0  0  0  0  0  0
    8.8612   -1.4622   20.4334 H   0  0  0  0  0  0  0  0  0  0  0  0
  1  3  2  0  0  0  0
  1  8  1  0  0  0  0
  2  4  1  0  0  0  0
  2  8  2  0  0  0  0
  3  9  1  0  0  0  0
  4  9  2  0  0  0  0
  5  7  1  0  0  0  0
  5 25  2  0  0  0  0
  6  7  2  0  0  0  0
  6 28  1  0  0  0  0
  7 23  1  0  0  0  0
  8 30  1  0  0  0  0
  9 31  1  0  0  0  0
 10 11  2  0  0  0  0
 10 12  1  0  0  0  0
 10 29  1  0  0  0  0
 11 24  1  0  0  0  0
 11 26  1  0  0  0  0
 12 13  2  0  0  0  0
 13 14  1  0  0  0  0
 14 15  2  0  0  0  0
 15 29  1  0  0  0  0
 16 18  1  0  0  0  0
 16 30  1  0  0  0  0
 16 32  2  0  0  0  0
 17 24  1  0  0  0  0
 17 31  1  0  0  0  0
 17 33  2  0  0  0  0
 18 19  1  0  0  0  0
 19 20  1  0  0  0  0
 20 21  1  0  0  0  0
 21 30  1  0  0  0  0
 22 28  1  0  0  0  0
 23 31  1  0  0  0  0
 25 28  1  0  0  0  0
 26 27  2  0  0  0  0
 27 29  1  0  0  0  0
  1 34  1  0  0  0  0
  2 35  1  0  0  0  0
  3 36  1  0  0  0  0
  4 37  1  0  0  0  0
  5 38  1  0  0  0  0
  6 39  1  0  0  0  0
 12 40  1  0  0  0  0
 13 41  1  0  0  0  0
 14 42  1  0  0  0  0
 15 43  1  0  0  0  0
 18 44  1  0  0  0  0
 18 45  1  0  0  0  0
 19 46  1  0  0  0  0
 19 47  1  0  0  0  0
 20 48  1  0  0  0  0
 20 49  1  0  0  0  0
 21 50  1  0  0  0  0
 21 51  1  0  0  0  0
 22 52  1  0  0  0  0
 22 53  1  0  0  0  0
 22 54  1  0  0  0  0
 23 55  1  0  0  0  0
 23 56  1  0  0  0  0
 24 57  1  0  0  0  0
 24 58  1  0  0  0  0
M  END
> <clash_score>
0.7790751876189459

> <docking_score>
-8.014723777770996

> <overlap_score>
0.999036431312561

$$$$
BENZO_442_1
  -OEChem-08222022203D

 58 62  0     0  0  0  0  0  0999 V2000
   13.4007    0.5725   24.7805 C   0  0  0  0  0  0  0  0  0  0  0  0
   12.0141    0.5273   24.6359 C   0  0  0  0  0  0  0  0  0  0  0  0
    8.9960   -2.3380   25.5320 C   0  0  0  0  0  0  0  0  0  0  0  0
    9.6730   -3.4710   23.5300 C   0  0  0  0  0  0  0  0  0  0  0  0
    9.0720   -1.1280   24.8640 C   0  0  0  0  0  0  0  0  0  0  0  0
    9.7200   -2.2600   22.8630 C   0  0  0  0  0  0  0  0  0  0  0  0
   14.1526    1.4666   24.0184 C   0  0  0  0  0  0  0  0  0  0  0  0
   12.1314    2.2702   22.9668 C   0  0  0  0  0  0  0  0  0  0  0  0
   11.3794    1.3761   23.7290 C   0  0  0  0  0  0  0  0  0  0  0  0
    9.3070   -3.5340   24.8780 C   0  0  0  0  0  0  0  0  0  0  0  0
    9.3350   -1.0880   23.5010 C   0  0  0  0  0  0  0  0  0  0  0  0
   13.5180    2.3154   23.1115 C   0  0  0  0  0  0  0  0  0  0  0  0
    6.1790    0.5730   19.9990 C   0  0  0  0  0  0  0  0  0  0  0  0
    7.3170   -0.1610   19.8550 C   0  0  0  0  0  0  0  0  0  0  0  0
    5.4210    0.9600   21.0930 C   0  0  0  0  0  0  0  0  0  0  0  0
    4.2750    1.7050   20.8490 C   0  0  0  0  0  0  0  0  0  0  0  0
    3.9160    2.0630   19.5520 C   0  0  0  0  0  0  0  0  0  0  0  0
    4.6890    1.6810   18.4640 C   0  0  0  0  0  0  0  0  0  0  0  0
    8.3597   -5.0073   26.6307 C   0  0  0  0  0  0  0  0  0  0  0  0
    9.0420    0.3700   21.5280 C   0  0  0  0  0  0  0  0  0  0  0  0
    8.4720   -6.3981   27.2296 C   0  0  0  0  0  0  0  0  0  0  0  0
    9.9252   -6.7605   27.4803 C   0  0  0  0  0  0  0  0  0  0  0  0
   10.7833   -6.6094   26.2282 C   0  0  0  0  0  0  0  0  0  0  0  0
   10.0539   -5.9099   25.0823 C   0  0  0  0  0  0  0  0  0  0  0  0
    9.8870    1.3260   23.5730 C   0  0  0  0  0  0  0  0  0  0  0  0
    8.1890   -0.7180   20.8700 C   0  0  0  0  0  0  0  0  0  0  0  0
    7.6390   -0.2680   18.5410 N   0  0  0  0  0  0  0  0  0  0  0  0
    6.7580    0.3810   17.8350 N   0  0  0  0  0  0  0  0  0  0  0  0
    5.8300    0.9190   18.6970 N   0  0  0  0  0  0  0  0  0  0  0  0
    9.2529   -4.7797   25.5644 N   0  0  0  0  0  0  0  0  0  0  0  0
    9.4560    0.1560   22.8130 N   0  0  0  0  0  0  0  0  0  0  0  0
    7.4954   -4.2356   27.0449 O   0  0  0  0  0  0  0  0  0  0  0  0
    9.2690    1.4140   20.9380 O   0  0  0  0  0  0  0  0  0  0  0  0
   14.4464    3.4175   22.1707 Cl  0  0  0  0  0  0  0  0  0  0  0  0
   13.8945   -0.0888   25.4867 H   0  0  0  0  0  0  0  0  0  0  0  0
   11.4361   -0.1726   25.2338 H   0  0  0  0  0  0  0  0  0  0  0  0
    8.6895   -2.3529   26.5807 H   0  0  0  0  0  0  0  0  0  0  0  0
    9.9262   -4.3897   22.9916 H   0  0  0  0  0  0  0  0  0  0  0  0
    8.9224   -0.1998   25.4238 H   0  0  0  0  0  0  0  0  0  0  0  0
   10.0649   -2.2343   21.8258 H   0  0  0  0  0  0  0  0  0  0  0  0
   15.2326    1.4906   24.1414 H   0  0  0  0  0  0  0  0  0  0  0  0
   11.6318    2.9303   22.2615 H   0  0  0  0  0  0  0  0  0  0  0  0
    5.6859    0.7081   22.1001 H   0  0  0  0  0  0  0  0  0  0  0  0
    3.6634    2.0033   21.6928 H   0  0  0  0  0  0  0  0  0  0  0  0
    3.0114    2.6564   19.3629 H   0  0  0  0  0  0  0  0  0  0  0  0
    4.4373    1.9516   17.4622 H   0  0  0  0  0  0  0  0  0  0  0  0
    7.9325   -6.4148   28.1641 H   0  0  0  0  0  0  0  0  0  0  0  0
    8.0254   -7.0920   26.5333 H   0  0  0  0  0  0  0  0  0  0  0  0
   10.3387   -6.1267   28.2923 H   0  0  0  0  0  0  0  0  0  0  0  0
    9.9904   -7.8023   27.8537 H   0  0  0  0  0  0  0  0  0  0  0  0
   11.7037   -6.0404   26.4771 H   0  0  0  0  0  0  0  0  0  0  0  0
   11.1411   -7.6068   25.8918 H   0  0  0  0  0  0  0  0  0  0  0  0
   10.7782   -5.5162   24.3756 H   0  0  0  0  0  0  0  0  0  0  0  0
    9.4042   -6.6189   24.5807 H   0  0  0  0  0  0  0  0  0  0  0  0
    9.3974    1.2912   24.5523 H   0  0  0  0  0  0  0  0  0  0  0  0
    9.5159    2.2168   23.0554 H   0  0  0  0  0  0  0  0  0  0  0  0
    7.5972   -1.2056   21.6500 H   0  0  0  0  0  0  0  0  0  0  0  0
    8.8612   -1.4622   20.4334 H   0  0  0  0  0  0  0  0  0  0  0  0
  1  2  2  0  0  0  0
  1  7  1  0  0  0  0
  2  9  1  0  0  0  0
  3  5  2  0  0  0  0
  3 10  1  0  0  0  0
  4  6  1  0  0  0  0
  4 10  2  0  0  0  0
  5 11  1  0  0  0  0
  6 11  2  0  0  0  0
  7 12  2  0  0  0  0
  8  9  2  0  0  0  0
  8 12  1  0  0  0  0
  9 25  1  0  0  0  0
 10 30  1  0  0  0  0
 11 31  1  0  0  0  0
 12 34  1  0  0  0  0
 13 14  2  0  0  0  0
 13 15  1  0  0  0  0
 13 29  1  0  0  0  0
 14 26  1  0  0  0  0
 14 27  1  0  0  0  0
 15 16  2  0  0  0  0
 16 17  1  0  0  0  0
 17 18  2  0  0  0  0
 18 29  1  0  0  0  0
 19 21  1  0  0  0  0
 19 30  1  0  0  0  0
 19 32  2  0  0  0  0
 20 26  1  0  0  0  0
 20 31  1  0  0  0  0
 20 33  2  0  0  0  0
 21 22  1  0  0  0  0
 22 23  1  0  0  0  0
 23 24  1  0  0  0  0
 24 30  1  0  0  0  0
 25 31  1  0  0  0  0
 27 28  2  0  0  0  0
 28 29  1  0  0  0  0
  1 35  1  0  0  0  0
  2 36  1  0  0  0  0
  3 37  1  0  0  0  0
  4 38  1  0  0  0  0
  5 39  1  0  0  0  0
  6 40  1  0  0  0  0
  7 41  1  0  0  0  0
  8 42  1  0  0  0  0
 15 43  1  0  0  0  0
 16 44  1  0  0  0  0
 17 45  1  0  0  0  0
 18 46  1  0  0  0  0
 21 47  1  0  0  0  0
 21 48  1  0  0  0  0
 22 49  1  0  0  0  0
 22 50  1  0  0  0  0
 23 51  1  0  0  0  0
 23 52  1  0  0  0  0
 24 53  1  0  0  0  0
 24 54  1  0  0  0  0
 25 55  1  0  0  0  0
 25 56  1  0  0  0  0
 26 57  1  0  0  0  0
 26 58  1  0  0  0  0
M  END
> <clash_score>
0.7790751876189459

> <docking_score>
-7.435551643371582

> <overlap_score>
1.015157699584961

$$$$
BENZO_444_1
  -OEChem-08222022203D

 54 58  0     0  0  0  0  0  0999 V2000
    8.9960   -2.3380   25.5320 C   0  0  0  0  0  0  0  0  0  0  0  0
    9.6730   -3.4710   23.5300 C   0  0  0  0  0  0  0  0  0  0  0  0
    9.0720   -1.1280   24.8640 C   0  0  0  0  0  0  0  0  0  0  0  0
    9.7200   -2.2600   22.8630 C   0  0  0  0  0  0  0  0  0  0  0  0
   12.2111    0.2208   23.7905 C   0  0  0  0  0  0  0  0  0  0  0  0
   13.5412    0.5479   23.9363 C   0  0  0  0  0  0  0  0  0  0  0  0
   12.1057    2.5423   23.8305 C   0  0  0  0  0  0  0  0  0  0  0  0
   11.3794    1.3761   23.7290 C   0  0  0  0  0  0  0  0  0  0  0  0
    9.3070   -3.5340   24.8780 C   0  0  0  0  0  0  0  0  0  0  0  0
    9.3350   -1.0880   23.5010 C   0  0  0  0  0  0  0  0  0  0  0  0
    6.1790    0.5730   19.9990 C   0  0  0  0  0  0  0  0  0  0  0  0
    7.3170   -0.1610   19.8550 C   0  0  0  0  0  0  0  0  0  0  0  0
    5.4210    0.9600   21.0930 C   0  0  0  0  0  0  0  0  0  0  0  0
    4.2750    1.7050   20.8490 C   0  0  0  0  0  0  0  0  0  0  0  0
    3.9160    2.0630   19.5520 C   0  0  0  0  0  0  0  0  0  0  0  0
    4.6890    1.6810   18.4640 C   0  0  0  0  0  0  0  0  0  0  0  0
    9.0420    0.3700   21.5280 C   0  0  0  0  0  0  0  0  0  0  0  0
    9.5175   -4.8597   26.9771 C   0  0  0  0  0  0  0  0  0  0  0  0
    8.5165   -5.8725   24.9808 C   0  0  0  0  0  0  0  0  0  0  0  0
    8.1868   -5.0439   27.6987 C   0  0  0  0  0  0  0  0  0  0  0  0
    7.2200   -6.0347   25.7755 C   0  0  0  0  0  0  0  0  0  0  0  0
    9.8870    1.3260   23.5730 C   0  0  0  0  0  0  0  0  0  0  0  0
    8.1890   -0.7180   20.8700 C   0  0  0  0  0  0  0  0  0  0  0  0
    7.6390   -0.2680   18.5410 N   0  0  0  0  0  0  0  0  0  0  0  0
    6.7580    0.3810   17.8350 N   0  0  0  0  0  0  0  0  0  0  0  0
    5.8300    0.9190   18.6970 N   0  0  0  0  0  0  0  0  0  0  0  0
    9.2563   -4.7368   25.5413 N   0  0  0  0  0  0  0  0  0  0  0  0
    9.4560    0.1560   22.8130 N   0  0  0  0  0  0  0  0  0  0  0  0
    9.2690    1.4140   20.9380 O   0  0  0  0  0  0  0  0  0  0  0  0
    7.4994   -6.1853   27.1719 O   0  0  0  0  0  0  0  0  0  0  0  0
   13.7831    2.2420   23.9988 S   0  0  0  0  0  0  0  0  0  0  0  0
    8.6905   -2.3533   26.5810 H   0  0  0  0  0  0  0  0  0  0  0  0
    9.9266   -4.3896   22.9917 H   0  0  0  0  0  0  0  0  0  0  0  0
    8.9233   -0.1992   25.4232 H   0  0  0  0  0  0  0  0  0  0  0  0
   10.0650   -2.2330   21.8256 H   0  0  0  0  0  0  0  0  0  0  0  0
   11.8558   -0.8003   23.7315 H   0  0  0  0  0  0  0  0  0  0  0  0
   14.3824   -0.1267   24.0100 H   0  0  0  0  0  0  0  0  0  0  0  0
   11.7354    3.5581   23.8155 H   0  0  0  0  0  0  0  0  0  0  0  0
    5.6859    0.7081   22.1001 H   0  0  0  0  0  0  0  0  0  0  0  0
    3.6634    2.0033   21.6928 H   0  0  0  0  0  0  0  0  0  0  0  0
    3.0114    2.6564   19.3629 H   0  0  0  0  0  0  0  0  0  0  0  0
    4.4373    1.9516   17.4622 H   0  0  0  0  0  0  0  0  0  0  0  0
   10.0205   -3.9698   27.3609 H   0  0  0  0  0  0  0  0  0  0  0  0
   10.1535   -5.7310   27.1549 H   0  0  0  0  0  0  0  0  0  0  0  0
    9.1181   -6.7773   25.0755 H   0  0  0  0  0  0  0  0  0  0  0  0
    8.2812   -5.7064   23.9305 H   0  0  0  0  0  0  0  0  0  0  0  0
    8.3629   -5.2252   28.7611 H   0  0  0  0  0  0  0  0  0  0  0  0
    7.5530   -4.1570   27.6103 H   0  0  0  0  0  0  0  0  0  0  0  0
    6.5459   -5.1839   25.6221 H   0  0  0  0  0  0  0  0  0  0  0  0
    6.6948   -6.9354   25.4436 H   0  0  0  0  0  0  0  0  0  0  0  0
    9.3974    1.2912   24.5523 H   0  0  0  0  0  0  0  0  0  0  0  0
    9.5159    2.2168   23.0554 H   0  0  0  0  0  0  0  0  0  0  0  0
    7.5972   -1.2056   21.6500 H   0  0  0  0  0  0  0  0  0  0  0  0
    8.8612   -1.4622   20.4334 H   0  0  0  0  0  0  0  0  0  0  0  0
  1  3  2  0  0  0  0
  1  9  1  0  0  0  0
  2  4  1  0  0  0  0
  2  9  2  0  0  0  0
  3 10  1  0  0  0  0
  4 10  2  0  0  0  0
  5  6  2  0  0  0  0
  5  8  1  0  0  0  0
  6 31  1  0  0  0  0
  7  8  2  0  0  0  0
  7 31  1  0  0  0  0
  8 22  1  0  0  0  0
  9 27  1  0  0  0  0
 10 28  1  0  0  0  0
 11 12  2  0  0  0  0
 11 13  1  0  0  0  0
 11 26  1  0  0  0  0
 12 23  1  0  0  0  0
 12 24  1  0  0  0  0
 13 14  2  0  0  0  0
 14 15  1  0  0  0  0
 15 16  2  0  0  0  0
 16 26  1  0  0  0  0
 17 23  1  0  0  0  0
 17 28  1  0  0  0  0
 17 29  2  0  0  0  0
 18 20  1  0  0  0  0
 18 27  1  0  0  0  0
 19 21  1  0  0  0  0
 19 27  1  0  0  0  0
 20 30  1  0  0  0  0
 21 30  1  0  0  0  0
 22 28  1  0  0  0  0
 24 25  2  0  0  0  0
 25 26  1  0  0  0  0
  1 32  1  0  0  0  0
  2 33  1  0  0  0  0
  3 34  1  0  0  0  0
  4 35  1  0  0  0  0
  5 36  1  0  0  0  0
  6 37  1  0  0  0  0
  7 38  1  0  0  0  0
 13 39  1  0  0  0  0
 14 40  1  0  0  0  0
 15 41  1  0  0  0  0
 16 42  1  0  0  0  0
 18 43  1  0  0  0  0
 18 44  1  0  0  0  0
 19 45  1  0  0  0  0
 19 46  1  0  0  0  0
 20 47  1  0  0  0  0
 20 48  1  0  0  0  0
 21 49  1  0  0  0  0
 21 50  1  0  0  0  0
 22 51  1  0  0  0  0
 22 52  1  0  0  0  0
 23 53  1  0  0  0  0
 23 54  1  0  0  0  0
M  END
> <clash_score>
0

> <docking_score>
-8.514985084533691

> <overlap_score>
0.9791509509086609

$$$$
BENZO_447_1
  -OEChem-08222022203D

 57 61  0     0  0  0  0  0  0999 V2000
    8.9960   -2.3380   25.5320 C   0  0  0  0  0  0  0  0  0  0  0  0
    9.6730   -3.4710   23.5300 C   0  0  0  0  0  0  0  0  0  0  0  0
    9.0720   -1.1280   24.8640 C   0  0  0  0  0  0  0  0  0  0  0  0
    9.7200   -2.2600   22.8630 C   0  0  0  0  0  0  0  0  0  0  0  0
   12.2914    2.2071   23.0512 C   0  0  0  0  0  0  0  0  0  0  0  0
   12.1614    0.6214   24.5689 C   0  0  0  0  0  0  0  0  0  0  0  0
   11.3794    1.3761   23.7290 C   0  0  0  0  0  0  0  0  0  0  0  0
    9.3070   -3.5340   24.8780 C   0  0  0  0  0  0  0  0  0  0  0  0
    9.3350   -1.0880   23.5010 C   0  0  0  0  0  0  0  0  0  0  0  0
    6.1790    0.5730   19.9990 C   0  0  0  0  0  0  0  0  0  0  0  0
    7.3170   -0.1610   19.8550 C   0  0  0  0  0  0  0  0  0  0  0  0
    5.4210    0.9600   21.0930 C   0  0  0  0  0  0  0  0  0  0  0  0
    4.2750    1.7050   20.8490 C   0  0  0  0  0  0  0  0  0  0  0  0
    3.9160    2.0630   19.5520 C   0  0  0  0  0  0  0  0  0  0  0  0
    4.6890    1.6810   18.4640 C   0  0  0  0  0  0  0  0  0  0  0  0
    9.0420    0.3700   21.5280 C   0  0  0  0  0  0  0  0  0  0  0  0
   10.0771   -5.0255   26.7193 C   0  0  0  0  0  0  0  0  0  0  0  0
    8.0927   -5.6195   25.4071 C   0  0  0  0  0  0  0  0  0  0  0  0
    9.1933   -4.9427   27.9592 C   0  0  0  0  0  0  0  0  0  0  0  0
    7.2756   -5.5290   26.6967 C   0  0  0  0  0  0  0  0  0  0  0  0
   14.6267    0.5248   25.0067 C   0  0  0  0  0  0  0  0  0  0  0  0
    9.8870    1.3260   23.5730 C   0  0  0  0  0  0  0  0  0  0  0  0
    8.1890   -0.7180   20.8700 C   0  0  0  0  0  0  0  0  0  0  0  0
   13.5560    2.0002   23.4280 N   0  0  0  0  0  0  0  0  0  0  0  0
    7.6390   -0.2680   18.5410 N   0  0  0  0  0  0  0  0  0  0  0  0
    6.7580    0.3810   17.8350 N   0  0  0  0  0  0  0  0  0  0  0  0
   13.4442    1.0306   24.3518 N   0  0  0  0  0  0  0  0  0  0  0  0
    5.8300    0.9190   18.6970 N   0  0  0  0  0  0  0  0  0  0  0  0
    9.2563   -4.7368   25.5413 N   0  0  0  0  0  0  0  0  0  0  0  0
    9.4560    0.1560   22.8130 N   0  0  0  0  0  0  0  0  0  0  0  0
    9.2690    1.4140   20.9380 O   0  0  0  0  0  0  0  0  0  0  0  0
    8.0883   -5.8459   27.8325 O   0  0  0  0  0  0  0  0  0  0  0  0
    8.6905   -2.3533   26.5810 H   0  0  0  0  0  0  0  0  0  0  0  0
    9.9266   -4.3896   22.9917 H   0  0  0  0  0  0  0  0  0  0  0  0
    8.9233   -0.1992   25.4232 H   0  0  0  0  0  0  0  0  0  0  0  0
   10.0650   -2.2330   21.8256 H   0  0  0  0  0  0  0  0  0  0  0  0
   12.0895    2.9562   22.2987 H   0  0  0  0  0  0  0  0  0  0  0  0
   11.9201   -0.1519   25.2857 H   0  0  0  0  0  0  0  0  0  0  0  0
    5.6859    0.7081   22.1001 H   0  0  0  0  0  0  0  0  0  0  0  0
    3.6634    2.0033   21.6928 H   0  0  0  0  0  0  0  0  0  0  0  0
    3.0114    2.6564   19.3629 H   0  0  0  0  0  0  0  0  0  0  0  0
    4.4373    1.9516   17.4622 H   0  0  0  0  0  0  0  0  0  0  0  0
   10.8985   -4.3115   26.8085 H   0  0  0  0  0  0  0  0  0  0  0  0
   10.4915   -6.0334   26.6323 H   0  0  0  0  0  0  0  0  0  0  0  0
    8.4327   -6.6456   25.2620 H   0  0  0  0  0  0  0  0  0  0  0  0
    7.4725   -5.3241   24.5619 H   0  0  0  0  0  0  0  0  0  0  0  0
    9.7636   -5.2398   28.8419 H   0  0  0  0  0  0  0  0  0  0  0  0
    8.8236   -3.9268   28.1248 H   0  0  0  0  0  0  0  0  0  0  0  0
    6.8339   -4.5337   26.8232 H   0  0  0  0  0  0  0  0  0  0  0  0
    6.4550   -6.2521   26.6643 H   0  0  0  0  0  0  0  0  0  0  0  0
   15.0068   -0.3132   24.4165 H   0  0  0  0  0  0  0  0  0  0  0  0
   15.3758    1.3189   25.0699 H   0  0  0  0  0  0  0  0  0  0  0  0
   14.3675    0.1958   26.0170 H   0  0  0  0  0  0  0  0  0  0  0  0
    9.3974    1.2912   24.5523 H   0  0  0  0  0  0  0  0  0  0  0  0
    9.5159    2.2168   23.0554 H   0  0  0  0  0  0  0  0  0  0  0  0
    7.5972   -1.2056   21.6500 H   0  0  0  0  0  0  0  0  0  0  0  0
    8.8612   -1.4622   20.4334 H   0  0  0  0  0  0  0  0  0  0  0  0
  1  3  2  0  0  0  0
  1  8  1  0  0  0  0
  2  4  1  0  0  0  0
  2  8  2  0  0  0  0
  3  9  1  0  0  0  0
  4  9  2  0  0  0  0
  5  7  1  0  0  0  0
  5 24  2  0  0  0  0
  6  7  2  0  0  0  0
  6 27  1  0  0  0  0
  7 22  1  0  0  0  0
  8 29  1  0  0  0  0
  9 30  1  0  0  0  0
 10 11  2  0  0  0  0
 10 12  1  0  0  0  0
 10 28  1  0  0  0  0
 11 23  1  0  0  0  0
 11 25  1  0  0  0  0
 12 13  2  0  0  0  0
 13 14  1  0  0  0  0
 14 15  2  0  0  0  0
 15 28  1  0  0  0  0
 16 23  1  0  0  0  0
 16 30  1  0  0  0  0
 16 31  2  0  0  0  0
 17 19  1  0  0  0  0
 17 29  1  0  0  0  0
 18 20  1  0  0  0  0
 18 29  1  0  0  0  0
 19 32  1  0  0  0  0
 20 32  1  0  0  0  0
 21 27  1  0  0  0  0
 22 30  1  0  0  0  0
 24 27  1  0  0  0  0
 25 26  2  0  0  0  0
 26 28  1  0  0  0  0
  1 33  1  0  0  0  0
  2 34  1  0  0  0  0
  3 35  1  0  0  0  0
  4 36  1  0  0  0  0
  5 37  1  0  0  0  0
  6 38  1  0  0  0  0
 12 39  1  0  0  0  0
 13 40  1  0  0  0  0
 14 41  1  0  0  0  0
 15 42  1  0  0  0  0
 17 43  1  0  0  0  0
 17 44  1  0  0  0  0
 18 45  1  0  0  0  0
 18 46  1  0  0  0  0
 19 47  1  0  0  0  0
 19 48  1  0  0  0  0
 20 49  1  0  0  0  0
 20 50  1  0  0  0  0
 21 51  1  0  0  0  0
 21 52  1  0  0  0  0
 21 53  1  0  0  0  0
 22 54  1  0  0  0  0
 22 55  1  0  0  0  0
 23 56  1  0  0  0  0
 23 57  1  0  0  0  0
M  END
> <clash_score>
0.6199393561457518

> <docking_score>
-8.987709999084473

> <overlap_score>
0.9891132116317749

$$$$
BENZO_449_1
  -OEChem-08222022203D

 54 57  0     0  0  0  0  0  0999 V2000
   14.1526    1.4694   24.0176 C   0  0  0  0  0  0  0  0  0  0  0  0
    4.2750    1.7050   20.8490 C   0  0  0  0  0  0  0  0  0  0  0  0
   13.3741    0.8121   24.9701 C   0  0  0  0  0  0  0  0  0  0  0  0
   13.5446    2.0802   22.9208 C   0  0  0  0  0  0  0  0  0  0  0  0
    3.9160    2.0630   19.5520 C   0  0  0  0  0  0  0  0  0  0  0  0
    5.4210    0.9600   21.0930 C   0  0  0  0  0  0  0  0  0  0  0  0
   11.9875    0.7654   24.8259 C   0  0  0  0  0  0  0  0  0  0  0  0
   12.1580    2.0335   22.7765 C   0  0  0  0  0  0  0  0  0  0  0  0
    4.6890    1.6810   18.4640 C   0  0  0  0  0  0  0  0  0  0  0  0
    9.0720   -1.1280   24.8640 C   0  0  0  0  0  0  0  0  0  0  0  0
    9.7200   -2.2600   22.8630 C   0  0  0  0  0  0  0  0  0  0  0  0
    8.9960   -2.3380   25.5320 C   0  0  0  0  0  0  0  0  0  0  0  0
    9.6730   -3.4710   23.5300 C   0  0  0  0  0  0  0  0  0  0  0  0
    7.6390   -0.2680   18.5410 C   0  0  0  0  0  0  0  0  0  0  0  0
    6.1790    0.5730   19.9990 C   0  0  0  0  0  0  0  0  0  0  0  0
   11.3794    1.3761   23.7290 C   0  0  0  0  0  0  0  0  0  0  0  0
    7.3170   -0.1610   19.8550 C   0  0  0  0  0  0  0  0  0  0  0  0
    5.8300    0.9190   18.6970 C   0  0  0  0  0  0  0  0  0  0  0  0
    9.3350   -1.0880   23.5010 C   0  0  0  0  0  0  0  0  0  0  0  0
    9.3070   -3.5340   24.8780 C   0  0  0  0  0  0  0  0  0  0  0  0
    9.0420    0.3700   21.5280 C   0  0  0  0  0  0  0  0  0  0  0  0
    8.0128   -5.2151   26.1416 C   0  0  0  0  0  0  0  0  0  0  0  0
   10.4372   -5.5860   25.6589 C   0  0  0  0  0  0  0  0  0  0  0  0
    8.1890   -0.7180   20.8700 C   0  0  0  0  0  0  0  0  0  0  0  0
    9.8870    1.3260   23.5730 C   0  0  0  0  0  0  0  0  0  0  0  0
    6.7580    0.3810   17.8350 N   0  0  0  0  0  0  0  0  0  0  0  0
    9.4560    0.1560   22.8130 N   0  0  0  0  0  0  0  0  0  0  0  0
    9.2543   -4.7552   25.5519 N   0  0  0  0  0  0  0  0  0  0  0  0
    9.2690    1.4140   20.9380 O   0  0  0  0  0  0  0  0  0  0  0  0
   15.2322    1.5068   24.1308 H   0  0  0  0  0  0  0  0  0  0  0  0
    3.6455    2.0160   21.6826 H   0  0  0  0  0  0  0  0  0  0  0  0
   13.8473    0.3374   25.8248 H   0  0  0  0  0  0  0  0  0  0  0  0
   14.1503    2.5930   22.1795 H   0  0  0  0  0  0  0  0  0  0  0  0
    3.0144    2.6518   19.3914 H   0  0  0  0  0  0  0  0  0  0  0  0
    5.6994    0.6999   22.1043 H   0  0  0  0  0  0  0  0  0  0  0  0
   11.3889    0.2508   25.5729 H   0  0  0  0  0  0  0  0  0  0  0  0
   11.6930    2.5120   21.9187 H   0  0  0  0  0  0  0  0  0  0  0  0
    4.4044    1.9727   17.4490 H   0  0  0  0  0  0  0  0  0  0  0  0
    8.9217   -0.1995   25.4232 H   0  0  0  0  0  0  0  0  0  0  0  0
   10.0643   -2.2341   21.8254 H   0  0  0  0  0  0  0  0  0  0  0  0
    8.6893   -2.3540   26.5808 H   0  0  0  0  0  0  0  0  0  0  0  0
    9.9257   -4.3898   22.9921 H   0  0  0  0  0  0  0  0  0  0  0  0
    8.4839   -0.7930   18.0639 H   0  0  0  0  0  0  0  0  0  0  0  0
    8.1744   -6.1904   26.6238 H   0  0  0  0  0  0  0  0  0  0  0  0
    7.6718   -4.4870   26.8924 H   0  0  0  0  0  0  0  0  0  0  0  0
    7.2494   -5.3166   25.3561 H   0  0  0  0  0  0  0  0  0  0  0  0
   10.1946   -6.4995   26.2216 H   0  0  0  0  0  0  0  0  0  0  0  0
   10.7865   -5.8578   24.6518 H   0  0  0  0  0  0  0  0  0  0  0  0
   11.2285   -5.0312   26.1842 H   0  0  0  0  0  0  0  0  0  0  0  0
    7.6077   -1.2085   21.6613 H   0  0  0  0  0  0  0  0  0  0  0  0
    8.8716   -1.4650   20.4448 H   0  0  0  0  0  0  0  0  0  0  0  0
    9.3974    1.2912   24.5523 H   0  0  0  0  0  0  0  0  0  0  0  0
    9.5159    2.2168   23.0553 H   0  0  0  0  0  0  0  0  0  0  0  0
    6.7270    0.4925   16.8305 H   0  0  0  0  0  0  0  0  0  0  0  0
  1  3  1  0  0  0  0
  1  4  2  0  0  0  0
  2  5  1  0  0  0  0
  2  6  2  0  0  0  0
  3  7  2  0  0  0  0
  4  8  1  0  0  0  0
  5  9  2  0  0  0  0
  6 15  1  0  0  0  0
  7 16  1  0  0  0  0
  8 16  2  0  0  0  0
  9 18  1  0  0  0  0
 10 12  2  0  0  0  0
 10 19  1  0  0  0  0
 11 13  1  0  0  0  0
 11 19  2  0  0  0  0
 12 20  1  0  0  0  0
 13 20  2  0  0  0  0
 14 17  2  0  0  0  0
 14 26  1  0  0  0  0
 15 17  1  0  0  0  0
 15 18  2  0  0  0  0
 16 25  1  0  0  0  0
 17 24  1  0  0  0  0
 18 26  1  0  0  0  0
 19 27  1  0  0  0  0
 20 28  1  0  0  0  0
 21 24  1  0  0  0  0
 21 27  1  0  0  0  0
 21 29  2  0  0  0  0
 22 28  1  0  0  0  0
 23 28  1  0  0  0  0
 25 27  1  0  0  0  0
  1 30  1  0  0  0  0
  2 31  1  0  0  0  0
  3 32  1  0  0  0  0
  4 33  1  0  0  0  0
  5 34  1  0  0  0  0
  6 35  1  0  0  0  0
  7 36  1  0  0  0  0
  8 37  1  0  0  0  0
  9 38  1  0  0  0  0
 10 39  1  0  0  0  0
 11 40  1  0  0  0  0
 12 41  1  0  0  0  0
 13 42  1  0  0  0  0
 14 43  1  0  0  0  0
 22 44  1  0  0  0  0
 22 45  1  0  0  0  0
 22 46  1  0  0  0  0
 23 47  1  0  0  0  0
 23 48  1  0  0  0  0
 23 49  1  0  0  0  0
 24 50  1  0  0  0  0
 24 51  1  0  0  0  0
 25 52  1  0  0  0  0
 25 53  1  0  0  0  0
 26 54  1  0  0  0  0
M  END
> <clash_score>
0

> <docking_score>
-9.309722900390625

> <overlap_score>
0.9780114889144897

$$$$
BENZO_446_1
  -OEChem-08222022203D

 57 61  0     0  0  0  0  0  0999 V2000
   13.4007    0.5725   24.7805 C   0  0  0  0  0  0  0  0  0  0  0  0
   12.0141    0.5273   24.6359 C   0  0  0  0  0  0  0  0  0  0  0  0
    8.9960   -2.3380   25.5320 C   0  0  0  0  0  0  0  0  0  0  0  0
    9.6730   -3.4710   23.5300 C   0  0  0  0  0  0  0  0  0  0  0  0
    9.0720   -1.1280   24.8640 C   0  0  0  0  0  0  0  0  0  0  0  0
    9.7200   -2.2600   22.8630 C   0  0  0  0  0  0  0  0  0  0  0  0
   14.1526    1.4666   24.0184 C   0  0  0  0  0  0  0  0  0  0  0  0
   12.1314    2.2702   22.9668 C   0  0  0  0  0  0  0  0  0  0  0  0
   11.3794    1.3761   23.7290 C   0  0  0  0  0  0  0  0  0  0  0  0
    9.3070   -3.5340   24.8780 C   0  0  0  0  0  0  0  0  0  0  0  0
    9.3350   -1.0880   23.5010 C   0  0  0  0  0  0  0  0  0  0  0  0
   13.5180    2.3154   23.1115 C   0  0  0  0  0  0  0  0  0  0  0  0
    6.1790    0.5730   19.9990 C   0  0  0  0  0  0  0  0  0  0  0  0
    7.3170   -0.1610   19.8550 C   0  0  0  0  0  0  0  0  0  0  0  0
    5.4210    0.9600   21.0930 C   0  0  0  0  0  0  0  0  0  0  0  0
    4.2750    1.7050   20.8490 C   0  0  0  0  0  0  0  0  0  0  0  0
    3.9160    2.0630   19.5520 C   0  0  0  0  0  0  0  0  0  0  0  0
    4.6890    1.6810   18.4640 C   0  0  0  0  0  0  0  0  0  0  0  0
    9.0420    0.3700   21.5280 C   0  0  0  0  0  0  0  0  0  0  0  0
   10.0771   -5.0255   26.7193 C   0  0  0  0  0  0  0  0  0  0  0  0
    8.0927   -5.6195   25.4071 C   0  0  0  0  0  0  0  0  0  0  0  0
    9.1933   -4.9427   27.9592 C   0  0  0  0  0  0  0  0  0  0  0  0
    7.2756   -5.5290   26.6967 C   0  0  0  0  0  0  0  0  0  0  0  0
    9.8870    1.3260   23.5730 C   0  0  0  0  0  0  0  0  0  0  0  0
    8.1890   -0.7180   20.8700 C   0  0  0  0  0  0  0  0  0  0  0  0
    7.6390   -0.2680   18.5410 N   0  0  0  0  0  0  0  0  0  0  0  0
    6.7580    0.3810   17.8350 N   0  0  0  0  0  0  0  0  0  0  0  0
    5.8300    0.9190   18.6970 N   0  0  0  0  0  0  0  0  0  0  0  0
    9.2563   -4.7368   25.5413 N   0  0  0  0  0  0  0  0  0  0  0  0
    9.4560    0.1560   22.8130 N   0  0  0  0  0  0  0  0  0  0  0  0
    9.2690    1.4140   20.9380 O   0  0  0  0  0  0  0  0  0  0  0  0
    8.0883   -5.8459   27.8325 O   0  0  0  0  0  0  0  0  0  0  0  0
   14.4463    3.4175   22.1707 Cl  0  0  0  0  0  0  0  0  0  0  0  0
   13.8945   -0.0888   25.4867 H   0  0  0  0  0  0  0  0  0  0  0  0
   11.4361   -0.1726   25.2338 H   0  0  0  0  0  0  0  0  0  0  0  0
    8.6905   -2.3533   26.5810 H   0  0  0  0  0  0  0  0  0  0  0  0
    9.9266   -4.3896   22.9917 H   0  0  0  0  0  0  0  0  0  0  0  0
    8.9233   -0.1992   25.4232 H   0  0  0  0  0  0  0  0  0  0  0  0
   10.0650   -2.2330   21.8256 H   0  0  0  0  0  0  0  0  0  0  0  0
   15.2326    1.4907   24.1414 H   0  0  0  0  0  0  0  0  0  0  0  0
   11.6318    2.9303   22.2615 H   0  0  0  0  0  0  0  0  0  0  0  0
    5.6859    0.7081   22.1001 H   0  0  0  0  0  0  0  0  0  0  0  0
    3.6634    2.0033   21.6928 H   0  0  0  0  0  0  0  0  0  0  0  0
    3.0114    2.6564   19.3629 H   0  0  0  0  0  0  0  0  0  0  0  0
    4.4373    1.9516   17.4622 H   0  0  0  0  0  0  0  0  0  0  0  0
   10.8985   -4.3115   26.8085 H   0  0  0  0  0  0  0  0  0  0  0  0
   10.4915   -6.0334   26.6323 H   0  0  0  0  0  0  0  0  0  0  0  0
    8.4327   -6.6456   25.2620 H   0  0  0  0  0  0  0  0  0  0  0  0
    7.4725   -5.3241   24.5619 H   0  0  0  0  0  0  0  0  0  0  0  0
    9.7636   -5.2398   28.8419 H   0  0  0  0  0  0  0  0  0  0  0  0
    8.8236   -3.9268   28.1248 H   0  0  0  0  0  0  0  0  0  0  0  0
    6.8339   -4.5337   26.8232 H   0  0  0  0  0  0  0  0  0  0  0  0
    6.4550   -6.2521   26.6643 H   0  0  0  0  0  0  0  0  0  0  0  0
    9.3974    1.2912   24.5523 H   0  0  0  0  0  0  0  0  0  0  0  0
    9.5159    2.2168   23.0554 H   0  0  0  0  0  0  0  0  0  0  0  0
    7.5972   -1.2056   21.6500 H   0  0  0  0  0  0  0  0  0  0  0  0
    8.8612   -1.4622   20.4334 H   0  0  0  0  0  0  0  0  0  0  0  0
  1  2  2  0  0  0  0
  1  7  1  0  0  0  0
  2  9  1  0  0  0  0
  3  5  2  0  0  0  0
  3 10  1  0  0  0  0
  4  6  1  0  0  0  0
  4 10  2  0  0  0  0
  5 11  1  0  0  0  0
  6 11  2  0  0  0  0
  7 12  2  0  0  0  0
  8  9  2  0  0  0  0
  8 12  1  0  0  0  0
  9 24  1  0  0  0  0
 10 29  1  0  0  0  0
 11 30  1  0  0  0  0
 12 33  1  0  0  0  0
 13 14  2  0  0  0  0
 13 15  1  0  0  0  0
 13 28  1  0  0  0  0
 14 25  1  0  0  0  0
 14 26  1  0  0  0  0
 15 16  2  0  0  0  0
 16 17  1  0  0  0  0
 17 18  2  0  0  0  0
 18 28  1  0  0  0  0
 19 25  1  0  0  0  0
 19 30  1  0  0  0  0
 19 31  2  0  0  0  0
 20 22  1  0  0  0  0
 20 29  1  0  0  0  0
 21 23  1  0  0  0  0
 21 29  1  0  0  0  0
 22 32  1  0  0  0  0
 23 32  1  0  0  0  0
 24 30  1  0  0  0  0
 26 27  2  0  0  0  0
 27 28  1  0  0  0  0
  1 34  1  0  0  0  0
  2 35  1  0  0  0  0
  3 36  1  0  0  0  0
  4 37  1  0  0  0  0
  5 38  1  0  0  0  0
  6 39  1  0  0  0  0
  7 40  1  0  0  0  0
  8 41  1  0  0  0  0
 15 42  1  0  0  0  0
 16 43  1  0  0  0  0
 17 44  1  0  0  0  0
 18 45  1  0  0  0  0
 20 46  1  0  0  0  0
 20 47  1  0  0  0  0
 21 48  1  0  0  0  0
 21 49  1  0  0  0  0
 22 50  1  0  0  0  0
 22 51  1  0  0  0  0
 23 52  1  0  0  0  0
 23 53  1  0  0  0  0
 24 54  1  0  0  0  0
 24 55  1  0  0  0  0
 25 56  1  0  0  0  0
 25 57  1  0  0  0  0
M  END
> <clash_score>
0

> <docking_score>
-8.416681289672852

> <overlap_score>
1.001425862312317

$$$$
BENZO_448_1
  -OEChem-08222022203D

 51 54  0     0  0  0  0  0  0999 V2000
    4.2750    1.7050   20.8490 C   0  0  0  0  0  0  0  0  0  0  0  0
    3.9160    2.0630   19.5520 C   0  0  0  0  0  0  0  0  0  0  0  0
    5.4210    0.9600   21.0930 C   0  0  0  0  0  0  0  0  0  0  0  0
    4.6890    1.6810   18.4640 C   0  0  0  0  0  0  0  0  0  0  0  0
    9.0720   -1.1280   24.8640 C   0  0  0  0  0  0  0  0  0  0  0  0
    9.7200   -2.2600   22.8630 C   0  0  0  0  0  0  0  0  0  0  0  0
    8.9960   -2.3380   25.5320 C   0  0  0  0  0  0  0  0  0  0  0  0
    9.6730   -3.4710   23.5300 C   0  0  0  0  0  0  0  0  0  0  0  0
   12.2913    1.4279   22.6355 C   0  0  0  0  0  0  0  0  0  0  0  0
    7.6390   -0.2680   18.5410 C   0  0  0  0  0  0  0  0  0  0  0  0
   13.6024    1.4662   23.0564 C   0  0  0  0  0  0  0  0  0  0  0  0
   12.0284    1.3764   24.9443 C   0  0  0  0  0  0  0  0  0  0  0  0
    6.1790    0.5730   19.9990 C   0  0  0  0  0  0  0  0  0  0  0  0
   11.3794    1.3761   23.7290 C   0  0  0  0  0  0  0  0  0  0  0  0
    7.3170   -0.1610   19.8550 C   0  0  0  0  0  0  0  0  0  0  0  0
    5.8300    0.9190   18.6970 C   0  0  0  0  0  0  0  0  0  0  0  0
    9.3350   -1.0880   23.5010 C   0  0  0  0  0  0  0  0  0  0  0  0
    9.3070   -3.5340   24.8780 C   0  0  0  0  0  0  0  0  0  0  0  0
    9.0420    0.3700   21.5280 C   0  0  0  0  0  0  0  0  0  0  0  0
    8.8742   -4.8064   26.9496 C   0  0  0  0  0  0  0  0  0  0  0  0
    9.5655   -5.9897   24.8591 C   0  0  0  0  0  0  0  0  0  0  0  0
    8.1890   -0.7180   20.8700 C   0  0  0  0  0  0  0  0  0  0  0  0
    9.8870    1.3260   23.5730 C   0  0  0  0  0  0  0  0  0  0  0  0
    6.7580    0.3810   17.8350 N   0  0  0  0  0  0  0  0  0  0  0  0
    9.4560    0.1560   22.8130 N   0  0  0  0  0  0  0  0  0  0  0  0
    9.2543   -4.7552   25.5519 N   0  0  0  0  0  0  0  0  0  0  0  0
    9.2690    1.4140   20.9380 O   0  0  0  0  0  0  0  0  0  0  0  0
   13.7301    1.4394   24.7638 S   0  0  0  0  0  0  0  0  0  0  0  0
    3.6455    2.0160   21.6826 H   0  0  0  0  0  0  0  0  0  0  0  0
    3.0144    2.6518   19.3914 H   0  0  0  0  0  0  0  0  0  0  0  0
    5.6994    0.6999   22.1043 H   0  0  0  0  0  0  0  0  0  0  0  0
    4.4044    1.9727   17.4490 H   0  0  0  0  0  0  0  0  0  0  0  0
    8.9217   -0.1995   25.4232 H   0  0  0  0  0  0  0  0  0  0  0  0
   10.0643   -2.2341   21.8254 H   0  0  0  0  0  0  0  0  0  0  0  0
    8.6893   -2.3540   26.5808 H   0  0  0  0  0  0  0  0  0  0  0  0
    9.9257   -4.3898   22.9921 H   0  0  0  0  0  0  0  0  0  0  0  0
   12.0045    1.4365   21.5915 H   0  0  0  0  0  0  0  0  0  0  0  0
    8.4839   -0.7930   18.0639 H   0  0  0  0  0  0  0  0  0  0  0  0
   14.4914    1.5078   22.4431 H   0  0  0  0  0  0  0  0  0  0  0  0
   11.5886    1.3416   25.9314 H   0  0  0  0  0  0  0  0  0  0  0  0
    8.8922   -5.8499   27.2971 H   0  0  0  0  0  0  0  0  0  0  0  0
    9.5819   -4.2099   27.5440 H   0  0  0  0  0  0  0  0  0  0  0  0
    7.8599   -4.3978   27.0688 H   0  0  0  0  0  0  0  0  0  0  0  0
    9.4683   -6.8360   25.5551 H   0  0  0  0  0  0  0  0  0  0  0  0
    8.8685   -6.1243   24.0189 H   0  0  0  0  0  0  0  0  0  0  0  0
   10.5961   -5.9459   24.4772 H   0  0  0  0  0  0  0  0  0  0  0  0
    7.6077   -1.2085   21.6613 H   0  0  0  0  0  0  0  0  0  0  0  0
    8.8716   -1.4650   20.4448 H   0  0  0  0  0  0  0  0  0  0  0  0
    9.3974    1.2912   24.5523 H   0  0  0  0  0  0  0  0  0  0  0  0
    9.5159    2.2168   23.0553 H   0  0  0  0  0  0  0  0  0  0  0  0
    6.7270    0.4925   16.8305 H   0  0  0  0  0  0  0  0  0  0  0  0
  1  2  1  0  0  0  0
  1  3  2  0  0  0  0
  2  4  2  0  0  0  0
  3 13  1  0  0  0  0
  4 16  1  0  0  0  0
  5  7  2  0  0  0  0
  5 17  1  0  0  0  0
  6  8  1  0  0  0  0
  6 17  2  0  0  0  0
  7 18  1  0  0  0  0
  8 18  2  0  0  0  0
  9 11  2  0  0  0  0
  9 14  1  0  0  0  0
 10 15  2  0  0  0  0
 10 24  1  0  0  0  0
 11 28  1  0  0  0  0
 12 14  2  0  0  0  0
 12 28  1  0  0  0  0
 13 15  1  0  0  0  0
 13 16  2  0  0  0  0
 14 23  1  0  0  0  0
 15 22  1  0  0  0  0
 16 24  1  0  0  0  0
 17 25  1  0  0  0  0
 18 26  1  0  0  0  0
 19 22  1  0  0  0  0
 19 25  1  0  0  0  0
 19 27  2  0  0  0  0
 20 26  1  0  0  0  0
 21 26  1  0  0  0  0
 23 25  1  0  0  0  0
  1 29  1  0  0  0  0
  2 30  1  0  0  0  0
  3 31  1  0  0  0  0
  4 32  1  0  0  0  0
  5 33  1  0  0  0  0
  6 34  1  0  0  0  0
  7 35  1  0  0  0  0
  8 36  1  0  0  0  0
  9 37  1  0  0  0  0
 10 38  1  0  0  0  0
 11 39  1  0  0  0  0
 12 40  1  0  0  0  0
 20 41  1  0  0  0  0
 20 42  1  0  0  0  0
 20 43  1  0  0  0  0
 21 44  1  0  0  0  0
 21 45  1  0  0  0  0
 21 46  1  0  0  0  0
 22 47  1  0  0  0  0
 22 48  1  0  0  0  0
 23 49  1  0  0  0  0
 23 50  1  0  0  0  0
 24 51  1  0  0  0  0
M  END
> <clash_score>
0

> <docking_score>
-9.066715240478516

> <overlap_score>
0.9639393091201782

$$$$
BENZO_450_1
  -OEChem-08222022203D

 54 57  0     0  0  0  0  0  0999 V2000
    4.2750    1.7050   20.8490 C   0  0  0  0  0  0  0  0  0  0  0  0
    3.9160    2.0630   19.5520 C   0  0  0  0  0  0  0  0  0  0  0  0
   13.4007    0.5725   24.7805 C   0  0  0  0  0  0  0  0  0  0  0  0
    5.4210    0.9600   21.0930 C   0  0  0  0  0  0  0  0  0  0  0  0
   12.0141    0.5273   24.6359 C   0  0  0  0  0  0  0  0  0  0  0  0
    4.6890    1.6810   18.4640 C   0  0  0  0  0  0  0  0  0  0  0  0
    9.0720   -1.1280   24.8640 C   0  0  0  0  0  0  0  0  0  0  0  0
    9.7200   -2.2600   22.8630 C   0  0  0  0  0  0  0  0  0  0  0  0
    8.9960   -2.3380   25.5320 C   0  0  0  0  0  0  0  0  0  0  0  0
    9.6730   -3.4710   23.5300 C   0  0  0  0  0  0  0  0  0  0  0  0
   14.1526    1.4666   24.0184 C   0  0  0  0  0  0  0  0  0  0  0  0
   12.1314    2.2702   22.9668 C   0  0  0  0  0  0  0  0  0  0  0  0
    7.6390   -0.2680   18.5410 C   0  0  0  0  0  0  0  0  0  0  0  0
    6.1790    0.5730   19.9990 C   0  0  0  0  0  0  0  0  0  0  0  0
   11.3794    1.3761   23.7290 C   0  0  0  0  0  0  0  0  0  0  0  0
    7.3170   -0.1610   19.8550 C   0  0  0  0  0  0  0  0  0  0  0  0
    5.8300    0.9190   18.6970 C   0  0  0  0  0  0  0  0  0  0  0  0
    9.3350   -1.0880   23.5010 C   0  0  0  0  0  0  0  0  0  0  0  0
    9.3070   -3.5340   24.8780 C   0  0  0  0  0  0  0  0  0  0  0  0
   13.5180    2.3154   23.1115 C   0  0  0  0  0  0  0  0  0  0  0  0
    9.0420    0.3700   21.5280 C   0  0  0  0  0  0  0  0  0  0  0  0
    8.0128   -5.2151   26.1416 C   0  0  0  0  0  0  0  0  0  0  0  0
   10.4372   -5.5860   25.6589 C   0  0  0  0  0  0  0  0  0  0  0  0
    8.1890   -0.7180   20.8700 C   0  0  0  0  0  0  0  0  0  0  0  0
    9.8870    1.3260   23.5730 C   0  0  0  0  0  0  0  0  0  0  0  0
    6.7580    0.3810   17.8350 N   0  0  0  0  0  0  0  0  0  0  0  0
    9.4560    0.1560   22.8130 N   0  0  0  0  0  0  0  0  0  0  0  0
    9.2543   -4.7552   25.5519 N   0  0  0  0  0  0  0  0  0  0  0  0
    9.2690    1.4140   20.9380 O   0  0  0  0  0  0  0  0  0  0  0  0
   14.4463    3.4175   22.1707 Cl  0  0  0  0  0  0  0  0  0  0  0  0
    3.6455    2.0160   21.6826 H   0  0  0  0  0  0  0  0  0  0  0  0
    3.0144    2.6518   19.3914 H   0  0  0  0  0  0  0  0  0  0  0  0
   13.8945   -0.0888   25.4867 H   0  0  0  0  0  0  0  0  0  0  0  0
    5.6994    0.6999   22.1043 H   0  0  0  0  0  0  0  0  0  0  0  0
   11.4361   -0.1726   25.2338 H   0  0  0  0  0  0  0  0  0  0  0  0
    4.4044    1.9727   17.4490 H   0  0  0  0  0  0  0  0  0  0  0  0
    8.9217   -0.1995   25.4232 H   0  0  0  0  0  0  0  0  0  0  0  0
   10.0643   -2.2341   21.8254 H   0  0  0  0  0  0  0  0  0  0  0  0
    8.6893   -2.3540   26.5808 H   0  0  0  0  0  0  0  0  0  0  0  0
    9.9257   -4.3898   22.9921 H   0  0  0  0  0  0  0  0  0  0  0  0
   15.2326    1.4907   24.1414 H   0  0  0  0  0  0  0  0  0  0  0  0
   11.6318    2.9303   22.2615 H   0  0  0  0  0  0  0  0  0  0  0  0
    8.4839   -0.7930   18.0639 H   0  0  0  0  0  0  0  0  0  0  0  0
    8.1744   -6.1904   26.6238 H   0  0  0  0  0  0  0  0  0  0  0  0
    7.6718   -4.4870   26.8924 H   0  0  0  0  0  0  0  0  0  0  0  0
    7.2494   -5.3166   25.3561 H   0  0  0  0  0  0  0  0  0  0  0  0
   10.1946   -6.4995   26.2216 H   0  0  0  0  0  0  0  0  0  0  0  0
   10.7865   -5.8578   24.6518 H   0  0  0  0  0  0  0  0  0  0  0  0
   11.2285   -5.0312   26.1842 H   0  0  0  0  0  0  0  0  0  0  0  0
    7.6077   -1.2085   21.6613 H   0  0  0  0  0  0  0  0  0  0  0  0
    8.8716   -1.4650   20.4448 H   0  0  0  0  0  0  0  0  0  0  0  0
    9.3974    1.2912   24.5523 H   0  0  0  0  0  0  0  0  0  0  0  0
    9.5159    2.2168   23.0553 H   0  0  0  0  0  0  0  0  0  0  0  0
    6.7270    0.4925   16.8305 H   0  0  0  0  0  0  0  0  0  0  0  0
  1  2  1  0  0  0  0
  1  4  2  0  0  0  0
  2  6  2  0  0  0  0
  3  5  2  0  0  0  0
  3 11  1  0  0  0  0
  4 14  1  0  0  0  0
  5 15  1  0  0  0  0
  6 17  1  0  0  0  0
  7  9  2  0  0  0  0
  7 18  1  0  0  0  0
  8 10  1  0  0  0  0
  8 18  2  0  0  0  0
  9 19  1  0  0  0  0
 10 19  2  0  0  0  0
 11 20  2  0  0  0  0
 12 15  2  0  0  0  0
 12 20  1  0  0  0  0
 13 16  2  0  0  0  0
 13 26  1  0  0  0  0
 14 16  1  0  0  0  0
 14 17  2  0  0  0  0
 15 25  1  0  0  0  0
 16 24  1  0  0  0  0
 17 26  1  0  0  0  0
 18 27  1  0  0  0  0
 19 28  1  0  0  0  0
 20 30  1  0  0  0  0
 21 24  1  0  0  0  0
 21 27  1  0  0  0  0
 21 29  2  0  0  0  0
 22 28  1  0  0  0  0
 23 28  1  0  0  0  0
 25 27  1  0  0  0  0
  1 31  1  0  0  0  0
  2 32  1  0  0  0  0
  3 33  1  0  0  0  0
  4 34  1  0  0  0  0
  5 35  1  0  0  0  0
  6 36  1  0  0  0  0
  7 37  1  0  0  0  0
  8 38  1  0  0  0  0
  9 39  1  0  0  0  0
 10 40  1  0  0  0  0
 11 41  1  0  0  0  0
 12 42  1  0  0  0  0
 13 43  1  0  0  0  0
 22 44  1  0  0  0  0
 22 45  1  0  0  0  0
 22 46  1  0  0  0  0
 23 47  1  0  0  0  0
 23 48  1  0  0  0  0
 23 49  1  0  0  0  0
 24 50  1  0  0  0  0
 24 51  1  0  0  0  0
 25 52  1  0  0  0  0
 25 53  1  0  0  0  0
 26 54  1  0  0  0  0
M  END
> <clash_score>
0

> <docking_score>
-8.446708679199219

> <overlap_score>
0.9891858696937561

$$$$
BENZO_451_1
  -OEChem-08222022203D

 54 57  0     0  0  0  0  0  0999 V2000
    4.2750    1.7050   20.8490 C   0  0  0  0  0  0  0  0  0  0  0  0
    3.9160    2.0630   19.5520 C   0  0  0  0  0  0  0  0  0  0  0  0
    5.4210    0.9600   21.0930 C   0  0  0  0  0  0  0  0  0  0  0  0
    4.6890    1.6810   18.4640 C   0  0  0  0  0  0  0  0  0  0  0  0
    9.0720   -1.1280   24.8640 C   0  0  0  0  0  0  0  0  0  0  0  0
    9.7200   -2.2600   22.8630 C   0  0  0  0  0  0  0  0  0  0  0  0
    8.9960   -2.3380   25.5320 C   0  0  0  0  0  0  0  0  0  0  0  0
    9.6730   -3.4710   23.5300 C   0  0  0  0  0  0  0  0  0  0  0  0
   12.2914    2.2071   23.0512 C   0  0  0  0  0  0  0  0  0  0  0  0
    7.6390   -0.2680   18.5410 C   0  0  0  0  0  0  0  0  0  0  0  0
   12.1614    0.6214   24.5689 C   0  0  0  0  0  0  0  0  0  0  0  0
    6.1790    0.5730   19.9990 C   0  0  0  0  0  0  0  0  0  0  0  0
   11.3794    1.3761   23.7290 C   0  0  0  0  0  0  0  0  0  0  0  0
    7.3170   -0.1610   19.8550 C   0  0  0  0  0  0  0  0  0  0  0  0
    5.8300    0.9190   18.6970 C   0  0  0  0  0  0  0  0  0  0  0  0
    9.3350   -1.0880   23.5010 C   0  0  0  0  0  0  0  0  0  0  0  0
    9.3070   -3.5340   24.8780 C   0  0  0  0  0  0  0  0  0  0  0  0
    9.0420    0.3700   21.5280 C   0  0  0  0  0  0  0  0  0  0  0  0
   14.6267    0.5248   25.0067 C   0  0  0  0  0  0  0  0  0  0  0  0
    8.0128   -5.2151   26.1416 C   0  0  0  0  0  0  0  0  0  0  0  0
   10.4372   -5.5860   25.6589 C   0  0  0  0  0  0  0  0  0  0  0  0
    8.1890   -0.7180   20.8700 C   0  0  0  0  0  0  0  0  0  0  0  0
    9.8870    1.3260   23.5730 C   0  0  0  0  0  0  0  0  0  0  0  0
   13.5560    2.0002   23.4280 N   0  0  0  0  0  0  0  0  0  0  0  0
    6.7580    0.3810   17.8350 N   0  0  0  0  0  0  0  0  0  0  0  0
   13.4442    1.0306   24.3518 N   0  0  0  0  0  0  0  0  0  0  0  0
    9.4560    0.1560   22.8130 N   0  0  0  0  0  0  0  0  0  0  0  0
    9.2543   -4.7552   25.5519 N   0  0  0  0  0  0  0  0  0  0  0  0
    9.2690    1.4140   20.9380 O   0  0  0  0  0  0  0  0  0  0  0  0
    3.6455    2.0160   21.6826 H   0  0  0  0  0  0  0  0  0  0  0  0
    3.0144    2.6518   19.3914 H   0  0  0  0  0  0  0  0  0  0  0  0
    5.6994    0.6999   22.1043 H   0  0  0  0  0  0  0  0  0  0  0  0
    4.4044    1.9727   17.4490 H   0  0  0  0  0  0  0  0  0  0  0  0
    8.9217   -0.1995   25.4232 H   0  0  0  0  0  0  0  0  0  0  0  0
   10.0643   -2.2341   21.8254 H   0  0  0  0  0  0  0  0  0  0  0  0
    8.6893   -2.3540   26.5808 H   0  0  0  0  0  0  0  0  0  0  0  0
    9.9257   -4.3898   22.9921 H   0  0  0  0  0  0  0  0  0  0  0  0
   12.0895    2.9562   22.2987 H   0  0  0  0  0  0  0  0  0  0  0  0
    8.4839   -0.7930   18.0639 H   0  0  0  0  0  0  0  0  0  0  0  0
   11.9201   -0.1518   25.2857 H   0  0  0  0  0  0  0  0  0  0  0  0
   15.0068   -0.3132   24.4165 H   0  0  0  0  0  0  0  0  0  0  0  0
   15.3758    1.3189   25.0699 H   0  0  0  0  0  0  0  0  0  0  0  0
   14.3675    0.1958   26.0170 H   0  0  0  0  0  0  0  0  0  0  0  0
    8.1744   -6.1904   26.6238 H   0  0  0  0  0  0  0  0  0  0  0  0
    7.6718   -4.4870   26.8924 H   0  0  0  0  0  0  0  0  0  0  0  0
    7.2494   -5.3166   25.3561 H   0  0  0  0  0  0  0  0  0  0  0  0
   10.1946   -6.4995   26.2216 H   0  0  0  0  0  0  0  0  0  0  0  0
   10.7865   -5.8578   24.6518 H   0  0  0  0  0  0  0  0  0  0  0  0
   11.2285   -5.0312   26.1842 H   0  0  0  0  0  0  0  0  0  0  0  0
    7.6077   -1.2085   21.6613 H   0  0  0  0  0  0  0  0  0  0  0  0
    8.8716   -1.4650   20.4448 H   0  0  0  0  0  0  0  0  0  0  0  0
    9.3974    1.2912   24.5523 H   0  0  0  0  0  0  0  0  0  0  0  0
    9.5159    2.2168   23.0553 H   0  0  0  0  0  0  0  0  0  0  0  0
    6.7270    0.4925   16.8305 H   0  0  0  0  0  0  0  0  0  0  0  0
  1  2  1  0  0  0  0
  1  3  2  0  0  0  0
  2  4  2  0  0  0  0
  3 12  1  0  0  0  0
  4 15  1  0  0  0  0
  5  7  2  0  0  0  0
  5 16  1  0  0  0  0
  6  8  1  0  0  0  0
  6 16  2  0  0  0  0
  7 17  1  0  0  0  0
  8 17  2  0  0  0  0
  9 13  1  0  0  0  0
  9 24  2  0  0  0  0
 10 14  2  0  0  0  0
 10 25  1  0  0  0  0
 11 13  2  0  0  0  0
 11 26  1  0  0  0  0
 12 14  1  0  0  0  0
 12 15  2  0  0  0  0
 13 23  1  0  0  0  0
 14 22  1  0  0  0  0
 15 25  1  0  0  0  0
 16 27  1  0  0  0  0
 17 28  1  0  0  0  0
 18 22  1  0  0  0  0
 18 27  1  0  0  0  0
 18 29  2  0  0  0  0
 19 26  1  0  0  0  0
 20 28  1  0  0  0  0
 21 28  1  0  0  0  0
 23 27  1  0  0  0  0
 24 26  1  0  0  0  0
  1 30  1  0  0  0  0
  2 31  1  0  0  0  0
  3 32  1  0  0  0  0
  4 33  1  0  0  0  0
  5 34  1  0  0  0  0
  6 35  1  0  0  0  0
  7 36  1  0  0  0  0
  8 37  1  0  0  0  0
  9 38  1  0  0  0  0
 10 39  1  0  0  0  0
 11 40  1  0  0  0  0
 19 41  1  0  0  0  0
 19 42  1  0  0  0  0
 19 43  1  0  0  0  0
 20 44  1  0  0  0  0
 20 45  1  0  0  0  0
 20 46  1  0  0  0  0
 21 47  1  0  0  0  0
 21 48  1  0  0  0  0
 21 49  1  0  0  0  0
 22 50  1  0  0  0  0
 22 51  1  0  0  0  0
 23 52  1  0  0  0  0
 23 53  1  0  0  0  0
 25 54  1  0  0  0  0
M  END
> <clash_score>
0.6199419867946427

> <docking_score>
-9.017731666564941

> <overlap_score>
0.9767895936965942

$$$$
BENZO_453_1
  -OEChem-08222022203D

 56 59  0     0  0  0  0  0  0999 V2000
   14.1526    1.4694   24.0176 C   0  0  0  0  0  0  0  0  0  0  0  0
    4.2750    1.7050   20.8490 C   0  0  0  0  0  0  0  0  0  0  0  0
   13.3741    0.8121   24.9701 C   0  0  0  0  0  0  0  0  0  0  0  0
   13.5446    2.0802   22.9208 C   0  0  0  0  0  0  0  0  0  0  0  0
    3.9160    2.0630   19.5520 C   0  0  0  0  0  0  0  0  0  0  0  0
    5.4210    0.9600   21.0930 C   0  0  0  0  0  0  0  0  0  0  0  0
   11.9875    0.7654   24.8259 C   0  0  0  0  0  0  0  0  0  0  0  0
   12.1580    2.0335   22.7765 C   0  0  0  0  0  0  0  0  0  0  0  0
    4.6890    1.6810   18.4640 C   0  0  0  0  0  0  0  0  0  0  0  0
    8.9960   -2.3380   25.5320 C   0  0  0  0  0  0  0  0  0  0  0  0
    9.6730   -3.4710   23.5300 C   0  0  0  0  0  0  0  0  0  0  0  0
    9.0720   -1.1280   24.8640 C   0  0  0  0  0  0  0  0  0  0  0  0
    9.7200   -2.2600   22.8630 C   0  0  0  0  0  0  0  0  0  0  0  0
    7.6390   -0.2680   18.5410 C   0  0  0  0  0  0  0  0  0  0  0  0
    6.1790    0.5730   19.9990 C   0  0  0  0  0  0  0  0  0  0  0  0
   11.3794    1.3761   23.7290 C   0  0  0  0  0  0  0  0  0  0  0  0
    7.3170   -0.1610   19.8550 C   0  0  0  0  0  0  0  0  0  0  0  0
    5.8300    0.9190   18.6970 C   0  0  0  0  0  0  0  0  0  0  0  0
    9.3070   -3.5340   24.8780 C   0  0  0  0  0  0  0  0  0  0  0  0
    9.3350   -1.0880   23.5010 C   0  0  0  0  0  0  0  0  0  0  0  0
    9.0420    0.3700   21.5280 C   0  0  0  0  0  0  0  0  0  0  0  0
    9.5334   -6.0236   25.0414 C   0  0  0  0  0  0  0  0  0  0  0  0
   10.6330   -7.3746   26.8775 C   0  0  0  0  0  0  0  0  0  0  0  0
    8.1890   -0.7180   20.8700 C   0  0  0  0  0  0  0  0  0  0  0  0
    9.8870    1.3260   23.5730 C   0  0  0  0  0  0  0  0  0  0  0  0
    9.3522   -7.0865   26.1149 C   0  0  0  0  0  0  0  0  0  0  0  0
    6.7580    0.3810   17.8350 N   0  0  0  0  0  0  0  0  0  0  0  0
    9.2546   -4.7422   25.5438 N   0  0  0  0  0  0  0  0  0  0  0  0
    9.4560    0.1560   22.8130 N   0  0  0  0  0  0  0  0  0  0  0  0
    9.2690    1.4140   20.9380 O   0  0  0  0  0  0  0  0  0  0  0  0
    9.8805   -6.3053   23.8992 O   0  0  0  0  0  0  0  0  0  0  0  0
   15.2322    1.5068   24.1308 H   0  0  0  0  0  0  0  0  0  0  0  0
    3.6455    2.0160   21.6826 H   0  0  0  0  0  0  0  0  0  0  0  0
   13.8473    0.3374   25.8248 H   0  0  0  0  0  0  0  0  0  0  0  0
   14.1503    2.5930   22.1795 H   0  0  0  0  0  0  0  0  0  0  0  0
    3.0144    2.6518   19.3914 H   0  0  0  0  0  0  0  0  0  0  0  0
    5.6994    0.6999   22.1043 H   0  0  0  0  0  0  0  0  0  0  0  0
   11.3889    0.2508   25.5729 H   0  0  0  0  0  0  0  0  0  0  0  0
   11.6930    2.5120   21.9187 H   0  0  0  0  0  0  0  0  0  0  0  0
    4.4044    1.9727   17.4490 H   0  0  0  0  0  0  0  0  0  0  0  0
    8.6895   -2.3529   26.5807 H   0  0  0  0  0  0  0  0  0  0  0  0
    9.9262   -4.3897   22.9916 H   0  0  0  0  0  0  0  0  0  0  0  0
    8.9224   -0.1998   25.4238 H   0  0  0  0  0  0  0  0  0  0  0  0
   10.0649   -2.2343   21.8258 H   0  0  0  0  0  0  0  0  0  0  0  0
    8.4839   -0.7930   18.0639 H   0  0  0  0  0  0  0  0  0  0  0  0
   11.4241   -7.7171   26.2024 H   0  0  0  0  0  0  0  0  0  0  0  0
   10.4628   -8.1530   27.6277 H   0  0  0  0  0  0  0  0  0  0  0  0
   10.9949   -6.4779   27.3912 H   0  0  0  0  0  0  0  0  0  0  0  0
    7.6077   -1.2085   21.6613 H   0  0  0  0  0  0  0  0  0  0  0  0
    8.8716   -1.4650   20.4448 H   0  0  0  0  0  0  0  0  0  0  0  0
    9.3974    1.2912   24.5523 H   0  0  0  0  0  0  0  0  0  0  0  0
    9.5159    2.2168   23.0553 H   0  0  0  0  0  0  0  0  0  0  0  0
    8.5795   -6.7463   26.8138 H   0  0  0  0  0  0  0  0  0  0  0  0
    8.9965   -8.0064   25.6368 H   0  0  0  0  0  0  0  0  0  0  0  0
    6.7270    0.4925   16.8305 H   0  0  0  0  0  0  0  0  0  0  0  0
    8.9776   -4.7057   26.5317 H   0  0  0  0  0  0  0  0  0  0  0  0
  1  3  1  0  0  0  0
  1  4  2  0  0  0  0
  2  5  1  0  0  0  0
  2  6  2  0  0  0  0
  3  7  2  0  0  0  0
  4  8  1  0  0  0  0
  5  9  2  0  0  0  0
  6 15  1  0  0  0  0
  7 16  1  0  0  0  0
  8 16  2  0  0  0  0
  9 18  1  0  0  0  0
 10 12  2  0  0  0  0
 10 19  1  0  0  0  0
 11 13  1  0  0  0  0
 11 19  2  0  0  0  0
 12 20  1  0  0  0  0
 13 20  2  0  0  0  0
 14 17  2  0  0  0  0
 14 27  1  0  0  0  0
 15 17  1  0  0  0  0
 15 18  2  0  0  0  0
 16 25  1  0  0  0  0
 17 24  1  0  0  0  0
 18 27  1  0  0  0  0
 19 28  1  0  0  0  0
 20 29  1  0  0  0  0
 21 24  1  0  0  0  0
 21 29  1  0  0  0  0
 21 30  2  0  0  0  0
 22 26  1  0  0  0  0
 22 28  1  0  0  0  0
 22 31  2  0  0  0  0
 23 26  1  0  0  0  0
 25 29  1  0  0  0  0
  1 32  1  0  0  0  0
  2 33  1  0  0  0  0
  3 34  1  0  0  0  0
  4 35  1  0  0  0  0
  5 36  1  0  0  0  0
  6 37  1  0  0  0  0
  7 38  1  0  0  0  0
  8 39  1  0  0  0  0
  9 40  1  0  0  0  0
 10 41  1  0  0  0  0
 11 42  1  0  0  0  0
 12 43  1  0  0  0  0
 13 44  1  0  0  0  0
 14 45  1  0  0  0  0
 23 46  1  0  0  0  0
 23 47  1  0  0  0  0
 23 48  1  0  0  0  0
 24 49  1  0  0  0  0
 24 50  1  0  0  0  0
 25 51  1  0  0  0  0
 25 52  1  0  0  0  0
 26 53  1  0  0  0  0
 26 54  1  0  0  0  0
 27 55  1  0  0  0  0
 28 56  1  0  0  0  0
M  END
> <clash_score>
1.498667137989192

> <docking_score>
-6.115447998046875

> <overlap_score>
0.9802290201187134

$$$$
BENZO_452_1
  -OEChem-08222022203D

 53 56  0     0  0  0  0  0  0999 V2000
    4.2750    1.7050   20.8490 C   0  0  0  0  0  0  0  0  0  0  0  0
    3.9160    2.0630   19.5520 C   0  0  0  0  0  0  0  0  0  0  0  0
    5.4210    0.9600   21.0930 C   0  0  0  0  0  0  0  0  0  0  0  0
    4.6890    1.6810   18.4640 C   0  0  0  0  0  0  0  0  0  0  0  0
    8.9960   -2.3380   25.5320 C   0  0  0  0  0  0  0  0  0  0  0  0
    9.6730   -3.4710   23.5300 C   0  0  0  0  0  0  0  0  0  0  0  0
    9.0720   -1.1280   24.8640 C   0  0  0  0  0  0  0  0  0  0  0  0
    9.7200   -2.2600   22.8630 C   0  0  0  0  0  0  0  0  0  0  0  0
   12.2111    0.2208   23.7905 C   0  0  0  0  0  0  0  0  0  0  0  0
    7.6390   -0.2680   18.5410 C   0  0  0  0  0  0  0  0  0  0  0  0
   13.5412    0.5479   23.9364 C   0  0  0  0  0  0  0  0  0  0  0  0
   12.1057    2.5424   23.8305 C   0  0  0  0  0  0  0  0  0  0  0  0
    6.1790    0.5730   19.9990 C   0  0  0  0  0  0  0  0  0  0  0  0
   11.3794    1.3761   23.7290 C   0  0  0  0  0  0  0  0  0  0  0  0
    7.3170   -0.1610   19.8550 C   0  0  0  0  0  0  0  0  0  0  0  0
    5.8300    0.9190   18.6970 C   0  0  0  0  0  0  0  0  0  0  0  0
    9.3070   -3.5340   24.8780 C   0  0  0  0  0  0  0  0  0  0  0  0
    9.3350   -1.0880   23.5010 C   0  0  0  0  0  0  0  0  0  0  0  0
    9.0420    0.3700   21.5280 C   0  0  0  0  0  0  0  0  0  0  0  0
    9.5334   -6.0236   25.0414 C   0  0  0  0  0  0  0  0  0  0  0  0
   10.6330   -7.3746   26.8775 C   0  0  0  0  0  0  0  0  0  0  0  0
    8.1890   -0.7180   20.8700 C   0  0  0  0  0  0  0  0  0  0  0  0
    9.8870    1.3260   23.5730 C   0  0  0  0  0  0  0  0  0  0  0  0
    9.3522   -7.0865   26.1149 C   0  0  0  0  0  0  0  0  0  0  0  0
    6.7580    0.3810   17.8350 N   0  0  0  0  0  0  0  0  0  0  0  0
    9.2546   -4.7422   25.5438 N   0  0  0  0  0  0  0  0  0  0  0  0
    9.4560    0.1560   22.8130 N   0  0  0  0  0  0  0  0  0  0  0  0
    9.2690    1.4140   20.9380 O   0  0  0  0  0  0  0  0  0  0  0  0
    9.8805   -6.3053   23.8992 O   0  0  0  0  0  0  0  0  0  0  0  0
   13.7831    2.2420   23.9988 S   0  0  0  0  0  0  0  0  0  0  0  0
    3.6455    2.0160   21.6826 H   0  0  0  0  0  0  0  0  0  0  0  0
    3.0144    2.6518   19.3914 H   0  0  0  0  0  0  0  0  0  0  0  0
    5.6994    0.6999   22.1043 H   0  0  0  0  0  0  0  0  0  0  0  0
    4.4044    1.9727   17.4490 H   0  0  0  0  0  0  0  0  0  0  0  0
    8.6895   -2.3529   26.5807 H   0  0  0  0  0  0  0  0  0  0  0  0
    9.9262   -4.3897   22.9916 H   0  0  0  0  0  0  0  0  0  0  0  0
    8.9224   -0.1998   25.4238 H   0  0  0  0  0  0  0  0  0  0  0  0
   10.0649   -2.2343   21.8258 H   0  0  0  0  0  0  0  0  0  0  0  0
   11.8558   -0.8003   23.7315 H   0  0  0  0  0  0  0  0  0  0  0  0
    8.4839   -0.7930   18.0639 H   0  0  0  0  0  0  0  0  0  0  0  0
   14.3824   -0.1267   24.0100 H   0  0  0  0  0  0  0  0  0  0  0  0
   11.7354    3.5581   23.8155 H   0  0  0  0  0  0  0  0  0  0  0  0
   11.4241   -7.7171   26.2024 H   0  0  0  0  0  0  0  0  0  0  0  0
   10.4628   -8.1530   27.6277 H   0  0  0  0  0  0  0  0  0  0  0  0
   10.9949   -6.4779   27.3912 H   0  0  0  0  0  0  0  0  0  0  0  0
    7.6077   -1.2085   21.6613 H   0  0  0  0  0  0  0  0  0  0  0  0
    8.8716   -1.4650   20.4448 H   0  0  0  0  0  0  0  0  0  0  0  0
    9.3974    1.2912   24.5523 H   0  0  0  0  0  0  0  0  0  0  0  0
    9.5159    2.2168   23.0553 H   0  0  0  0  0  0  0  0  0  0  0  0
    8.5795   -6.7463   26.8138 H   0  0  0  0  0  0  0  0  0  0  0  0
    8.9965   -8.0064   25.6368 H   0  0  0  0  0  0  0  0  0  0  0  0
    6.7270    0.4925   16.8305 H   0  0  0  0  0  0  0  0  0  0  0  0
    8.9776   -4.7057   26.5317 H   0  0  0  0  0  0  0  0  0  0  0  0
  1  2  1  0  0  0  0
  1  3  2  0  0  0  0
  2  4  2  0  0  0  0
  3 13  1  0  0  0  0
  4 16  1  0  0  0  0
  5  7  2  0  0  0  0
  5 17  1  0  0  0  0
  6  8  1  0  0  0  0
  6 17  2  0  0  0  0
  7 18  1  0  0  0  0
  8 18  2  0  0  0  0
  9 11  2  0  0  0  0
  9 14  1  0  0  0  0
 10 15  2  0  0  0  0
 10 25  1  0  0  0  0
 11 30  1  0  0  0  0
 12 14  2  0  0  0  0
 12 30  1  0  0  0  0
 13 15  1  0  0  0  0
 13 16  2  0  0  0  0
 14 23  1  0  0  0  0
 15 22  1  0  0  0  0
 16 25  1  0  0  0  0
 17 26  1  0  0  0  0
 18 27  1  0  0  0  0
 19 22  1  0  0  0  0
 19 27  1  0  0  0  0
 19 28  2  0  0  0  0
 20 24  1  0  0  0  0
 20 26  1  0  0  0  0
 20 29  2  0  0  0  0
 21 24  1  0  0  0  0
 23 27  1  0  0  0  0
  1 31  1  0  0  0  0
  2 32  1  0  0  0  0
  3 33  1  0  0  0  0
  4 34  1  0  0  0  0
  5 35  1  0  0  0  0
  6 36  1  0  0  0  0
  7 37  1  0  0  0  0
  8 38  1  0  0  0  0
  9 39  1  0  0  0  0
 10 40  1  0  0  0  0
 11 41  1  0  0  0  0
 12 42  1  0  0  0  0
 21 43  1  0  0  0  0
 21 44  1  0  0  0  0
 21 45  1  0  0  0  0
 22 46  1  0  0  0  0
 22 47  1  0  0  0  0
 23 48  1  0  0  0  0
 23 49  1  0  0  0  0
 24 50  1  0  0  0  0
 24 51  1  0  0  0  0
 25 52  1  0  0  0  0
 26 53  1  0  0  0  0
M  END
> <clash_score>
1.498667137989192

> <docking_score>
-5.388632774353027

> <overlap_score>
0.9652433395385742

$$$$
BENZO_457_1
  -OEChem-08222022203D

 61 65  0     0  0  0  0  0  0999 V2000
   14.1526    1.4694   24.0176 C   0  0  0  0  0  0  0  0  0  0  0  0
    4.2750    1.7050   20.8490 C   0  0  0  0  0  0  0  0  0  0  0  0
   13.3741    0.8121   24.9701 C   0  0  0  0  0  0  0  0  0  0  0  0
   13.5446    2.0802   22.9208 C   0  0  0  0  0  0  0  0  0  0  0  0
    3.9160    2.0630   19.5520 C   0  0  0  0  0  0  0  0  0  0  0  0
    5.4210    0.9600   21.0930 C   0  0  0  0  0  0  0  0  0  0  0  0
   11.9875    0.7654   24.8258 C   0  0  0  0  0  0  0  0  0  0  0  0
   12.1580    2.0335   22.7765 C   0  0  0  0  0  0  0  0  0  0  0  0
    4.6890    1.6810   18.4640 C   0  0  0  0  0  0  0  0  0  0  0  0
    8.9960   -2.3380   25.5320 C   0  0  0  0  0  0  0  0  0  0  0  0
    9.6730   -3.4710   23.5300 C   0  0  0  0  0  0  0  0  0  0  0  0
    9.0720   -1.1280   24.8640 C   0  0  0  0  0  0  0  0  0  0  0  0
    9.7200   -2.2600   22.8630 C   0  0  0  0  0  0  0  0  0  0  0  0
    7.6390   -0.2680   18.5410 C   0  0  0  0  0  0  0  0  0  0  0  0
    6.1790    0.5730   19.9990 C   0  0  0  0  0  0  0  0  0  0  0  0
   11.3794    1.3761   23.7290 C   0  0  0  0  0  0  0  0  0  0  0  0
    7.3170   -0.1610   19.8550 C   0  0  0  0  0  0  0  0  0  0  0  0
    5.8300    0.9190   18.6970 C   0  0  0  0  0  0  0  0  0  0  0  0
    9.3070   -3.5340   24.8780 C   0  0  0  0  0  0  0  0  0  0  0  0
    9.3350   -1.0880   23.5010 C   0  0  0  0  0  0  0  0  0  0  0  0
    9.0420    0.3700   21.5280 C   0  0  0  0  0  0  0  0  0  0  0  0
    7.3635   -6.1361   27.1888 C   0  0  0  0  0  0  0  0  0  0  0  0
    8.1961   -4.9735   27.7341 C   0  0  0  0  0  0  0  0  0  0  0  0
    7.1942   -6.0394   25.6709 C   0  0  0  0  0  0  0  0  0  0  0  0
    9.5196   -4.8490   26.9797 C   0  0  0  0  0  0  0  0  0  0  0  0
    8.5442   -5.8838   24.9639 C   0  0  0  0  0  0  0  0  0  0  0  0
    8.1890   -0.7180   20.8700 C   0  0  0  0  0  0  0  0  0  0  0  0
    9.8870    1.3260   23.5730 C   0  0  0  0  0  0  0  0  0  0  0  0
    6.7580    0.3810   17.8350 N   0  0  0  0  0  0  0  0  0  0  0  0
    9.2562   -4.7384   25.5422 N   0  0  0  0  0  0  0  0  0  0  0  0
    9.4560    0.1560   22.8130 N   0  0  0  0  0  0  0  0  0  0  0  0
    9.2690    1.4140   20.9380 O   0  0  0  0  0  0  0  0  0  0  0  0
   15.2322    1.5068   24.1308 H   0  0  0  0  0  0  0  0  0  0  0  0
    3.6455    2.0160   21.6826 H   0  0  0  0  0  0  0  0  0  0  0  0
   13.8473    0.3374   25.8248 H   0  0  0  0  0  0  0  0  0  0  0  0
   14.1503    2.5930   22.1795 H   0  0  0  0  0  0  0  0  0  0  0  0
    3.0144    2.6518   19.3914 H   0  0  0  0  0  0  0  0  0  0  0  0
    5.6994    0.6999   22.1043 H   0  0  0  0  0  0  0  0  0  0  0  0
   11.3889    0.2508   25.5729 H   0  0  0  0  0  0  0  0  0  0  0  0
   11.6930    2.5120   21.9187 H   0  0  0  0  0  0  0  0  0  0  0  0
    4.4044    1.9727   17.4490 H   0  0  0  0  0  0  0  0  0  0  0  0
    8.6905   -2.3533   26.5810 H   0  0  0  0  0  0  0  0  0  0  0  0
    9.9266   -4.3896   22.9917 H   0  0  0  0  0  0  0  0  0  0  0  0
    8.9233   -0.1992   25.4231 H   0  0  0  0  0  0  0  0  0  0  0  0
   10.0650   -2.2330   21.8256 H   0  0  0  0  0  0  0  0  0  0  0  0
    8.4839   -0.7930   18.0639 H   0  0  0  0  0  0  0  0  0  0  0  0
    7.8482   -7.0901   27.4469 H   0  0  0  0  0  0  0  0  0  0  0  0
    6.3760   -6.1438   27.6724 H   0  0  0  0  0  0  0  0  0  0  0  0
    7.6307   -4.0424   27.6403 H   0  0  0  0  0  0  0  0  0  0  0  0
    8.3915   -5.1310   28.7968 H   0  0  0  0  0  0  0  0  0  0  0  0
    6.6888   -6.9376   25.3010 H   0  0  0  0  0  0  0  0  0  0  0  0
    6.5515   -5.1859   25.4257 H   0  0  0  0  0  0  0  0  0  0  0  0
   10.0492   -3.9640   27.3414 H   0  0  0  0  0  0  0  0  0  0  0  0
   10.1431   -5.7254   27.1778 H   0  0  0  0  0  0  0  0  0  0  0  0
    9.1338   -6.7931   25.0868 H   0  0  0  0  0  0  0  0  0  0  0  0
    8.3656   -5.7264   23.8998 H   0  0  0  0  0  0  0  0  0  0  0  0
    7.5972   -1.2056   21.6500 H   0  0  0  0  0  0  0  0  0  0  0  0
    8.8612   -1.4622   20.4334 H   0  0  0  0  0  0  0  0  0  0  0  0
    9.3974    1.2912   24.5523 H   0  0  0  0  0  0  0  0  0  0  0  0
    9.5159    2.2168   23.0554 H   0  0  0  0  0  0  0  0  0  0  0  0
    6.7270    0.4925   16.8305 H   0  0  0  0  0  0  0  0  0  0  0  0
  1  3  1  0  0  0  0
  1  4  2  0  0  0  0
  2  5  1  0  0  0  0
  2  6  2  0  0  0  0
  3  7  2  0  0  0  0
  4  8  1  0  0  0  0
  5  9  2  0  0  0  0
  6 15  1  0  0  0  0
  7 16  1  0  0  0  0
  8 16  2  0  0  0  0
  9 18  1  0  0  0  0
 10 12  2  0  0  0  0
 10 19  1  0  0  0  0
 11 13  1  0  0  0  0
 11 19  2  0  0  0  0
 12 20  1  0  0  0  0
 13 20  2  0  0  0  0
 14 17  2  0  0  0  0
 14 29  1  0  0  0  0
 15 17  1  0  0  0  0
 15 18  2  0  0  0  0
 16 28  1  0  0  0  0
 17 27  1  0  0  0  0
 18 29  1  0  0  0  0
 19 30  1  0  0  0  0
 20 31  1  0  0  0  0
 21 27  1  0  0  0  0
 21 31  1  0  0  0  0
 21 32  2  0  0  0  0
 22 23  1  0  0  0  0
 22 24  1  0  0  0  0
 23 25  1  0  0  0  0
 24 26  1  0  0  0  0
 25 30  1  0  0  0  0
 26 30  1  0  0  0  0
 28 31  1  0  0  0  0
  1 33  1  0  0  0  0
  2 34  1  0  0  0  0
  3 35  1  0  0  0  0
  4 36  1  0  0  0  0
  5 37  1  0  0  0  0
  6 38  1  0  0  0  0
  7 39  1  0  0  0  0
  8 40  1  0  0  0  0
  9 41  1  0  0  0  0
 10 42  1  0  0  0  0
 11 43  1  0  0  0  0
 12 44  1  0  0  0  0
 13 45  1  0  0  0  0
 14 46  1  0  0  0  0
 22 47  1  0  0  0  0
 22 48  1  0  0  0  0
 23 49  1  0  0  0  0
 23 50  1  0  0  0  0
 24 51  1  0  0  0  0
 24 52  1  0  0  0  0
 25 53  1  0  0  0  0
 25 54  1  0  0  0  0
 26 55  1  0  0  0  0
 26 56  1  0  0  0  0
 27 57  1  0  0  0  0
 27 58  1  0  0  0  0
 28 59  1  0  0  0  0
 28 60  1  0  0  0  0
 29 61  1  0  0  0  0
M  END
> <clash_score>
0

> <docking_score>
-8.405502319335938

> <overlap_score>
0.9931821227073669

$$$$
BENZO_456_1
  -OEChem-08222022203D

 58 62  0     0  0  0  0  0  0999 V2000
    4.2750    1.7050   20.8490 C   0  0  0  0  0  0  0  0  0  0  0  0
    3.9160    2.0630   19.5520 C   0  0  0  0  0  0  0  0  0  0  0  0
    5.4210    0.9600   21.0930 C   0  0  0  0  0  0  0  0  0  0  0  0
    4.6890    1.6810   18.4640 C   0  0  0  0  0  0  0  0  0  0  0  0
    8.9960   -2.3380   25.5320 C   0  0  0  0  0  0  0  0  0  0  0  0
    9.6730   -3.4710   23.5300 C   0  0  0  0  0  0  0  0  0  0  0  0
    9.0720   -1.1280   24.8640 C   0  0  0  0  0  0  0  0  0  0  0  0
    9.7200   -2.2600   22.8630 C   0  0  0  0  0  0  0  0  0  0  0  0
   12.2913    1.4279   22.6355 C   0  0  0  0  0  0  0  0  0  0  0  0
    7.6390   -0.2680   18.5410 C   0  0  0  0  0  0  0  0  0  0  0  0
   13.6024    1.4662   23.0564 C   0  0  0  0  0  0  0  0  0  0  0  0
   12.0284    1.3764   24.9443 C   0  0  0  0  0  0  0  0  0  0  0  0
    6.1790    0.5730   19.9990 C   0  0  0  0  0  0  0  0  0  0  0  0
   11.3794    1.3761   23.7290 C   0  0  0  0  0  0  0  0  0  0  0  0
    7.3170   -0.1610   19.8550 C   0  0  0  0  0  0  0  0  0  0  0  0
    5.8300    0.9190   18.6970 C   0  0  0  0  0  0  0  0  0  0  0  0
    9.3070   -3.5340   24.8780 C   0  0  0  0  0  0  0  0  0  0  0  0
    9.3350   -1.0880   23.5010 C   0  0  0  0  0  0  0  0  0  0  0  0
    9.0420    0.3700   21.5280 C   0  0  0  0  0  0  0  0  0  0  0  0
    7.2235   -6.6199   26.3009 C   0  0  0  0  0  0  0  0  0  0  0  0
    7.4293   -5.3101   27.0652 C   0  0  0  0  0  0  0  0  0  0  0  0
    7.7217   -6.5099   24.8580 C   0  0  0  0  0  0  0  0  0  0  0  0
    8.8782   -4.8357   26.9548 C   0  0  0  0  0  0  0  0  0  0  0  0
    9.1652   -6.0007   24.7995 C   0  0  0  0  0  0  0  0  0  0  0  0
    8.1890   -0.7180   20.8700 C   0  0  0  0  0  0  0  0  0  0  0  0
    9.8870    1.3260   23.5730 C   0  0  0  0  0  0  0  0  0  0  0  0
    6.7580    0.3810   17.8350 N   0  0  0  0  0  0  0  0  0  0  0  0
    9.2562   -4.7384   25.5422 N   0  0  0  0  0  0  0  0  0  0  0  0
    9.4560    0.1560   22.8130 N   0  0  0  0  0  0  0  0  0  0  0  0
    9.2690    1.4140   20.9380 O   0  0  0  0  0  0  0  0  0  0  0  0
   13.7301    1.4394   24.7638 S   0  0  0  0  0  0  0  0  0  0  0  0
    3.6455    2.0160   21.6826 H   0  0  0  0  0  0  0  0  0  0  0  0
    3.0144    2.6518   19.3914 H   0  0  0  0  0  0  0  0  0  0  0  0
    5.6994    0.6999   22.1043 H   0  0  0  0  0  0  0  0  0  0  0  0
    4.4044    1.9727   17.4490 H   0  0  0  0  0  0  0  0  0  0  0  0
    8.6905   -2.3533   26.5810 H   0  0  0  0  0  0  0  0  0  0  0  0
    9.9266   -4.3896   22.9917 H   0  0  0  0  0  0  0  0  0  0  0  0
    8.9233   -0.1992   25.4231 H   0  0  0  0  0  0  0  0  0  0  0  0
   10.0650   -2.2330   21.8256 H   0  0  0  0  0  0  0  0  0  0  0  0
   12.0045    1.4365   21.5915 H   0  0  0  0  0  0  0  0  0  0  0  0
    8.4839   -0.7930   18.0639 H   0  0  0  0  0  0  0  0  0  0  0  0
   14.4914    1.5078   22.4431 H   0  0  0  0  0  0  0  0  0  0  0  0
   11.5886    1.3416   25.9314 H   0  0  0  0  0  0  0  0  0  0  0  0
    7.7559   -7.4347   26.8149 H   0  0  0  0  0  0  0  0  0  0  0  0
    6.1572   -6.8883   26.3055 H   0  0  0  0  0  0  0  0  0  0  0  0
    6.7602   -4.5435   26.6651 H   0  0  0  0  0  0  0  0  0  0  0  0
    7.1684   -5.4551   28.1155 H   0  0  0  0  0  0  0  0  0  0  0  0
    7.6595   -7.4899   24.3736 H   0  0  0  0  0  0  0  0  0  0  0  0
    7.0706   -5.8317   24.2943 H   0  0  0  0  0  0  0  0  0  0  0  0
    8.9681   -3.8621   27.4435 H   0  0  0  0  0  0  0  0  0  0  0  0
    9.5387   -5.5390   27.4697 H   0  0  0  0  0  0  0  0  0  0  0  0
    9.8374   -6.7413   25.2344 H   0  0  0  0  0  0  0  0  0  0  0  0
    9.4414   -5.8515   23.7552 H   0  0  0  0  0  0  0  0  0  0  0  0
    7.5972   -1.2056   21.6500 H   0  0  0  0  0  0  0  0  0  0  0  0
    8.8612   -1.4622   20.4334 H   0  0  0  0  0  0  0  0  0  0  0  0
    9.3974    1.2912   24.5523 H   0  0  0  0  0  0  0  0  0  0  0  0
    9.5159    2.2168   23.0554 H   0  0  0  0  0  0  0  0  0  0  0  0
    6.7270    0.4925   16.8305 H   0  0  0  0  0  0  0  0  0  0  0  0
  1  2  1  0  0  0  0
  1  3  2  0  0  0  0
  2  4  2  0  0  0  0
  3 13  1  0  0  0  0
  4 16  1  0  0  0  0
  5  7  2  0  0  0  0
  5 17  1  0  0  0  0
  6  8  1  0  0  0  0
  6 17  2  0  0  0  0
  7 18  1  0  0  0  0
  8 18  2  0  0  0  0
  9 11  2  0  0  0  0
  9 14  1  0  0  0  0
 10 15  2  0  0  0  0
 10 27  1  0  0  0  0
 11 31  1  0  0  0  0
 12 14  2  0  0  0  0
 12 31  1  0  0  0  0
 13 15  1  0  0  0  0
 13 16  2  0  0  0  0
 14 26  1  0  0  0  0
 15 25  1  0  0  0  0
 16 27  1  0  0  0  0
 17 28  1  0  0  0  0
 18 29  1  0  0  0  0
 19 25  1  0  0  0  0
 19 29  1  0  0  0  0
 19 30  2  0  0  0  0
 20 21  1  0  0  0  0
 20 22  1  0  0  0  0
 21 23  1  0  0  0  0
 22 24  1  0  0  0  0
 23 28  1  0  0  0  0
 24 28  1  0  0  0  0
 26 29  1  0  0  0  0
  1 32  1  0  0  0  0
  2 33  1  0  0  0  0
  3 34  1  0  0  0  0
  4 35  1  0  0  0  0
  5 36  1  0  0  0  0
  6 37  1  0  0  0  0
  7 38  1  0  0  0  0
  8 39  1  0  0  0  0
  9 40  1  0  0  0  0
 10 41  1  0  0  0  0
 11 42  1  0  0  0  0
 12 43  1  0  0  0  0
 20 44  1  0  0  0  0
 20 45  1  0  0  0  0
 21 46  1  0  0  0  0
 21 47  1  0  0  0  0
 22 48  1  0  0  0  0
 22 49  1  0  0  0  0
 23 50  1  0  0  0  0
 23 51  1  0  0  0  0
 24 52  1  0  0  0  0
 24 53  1  0  0  0  0
 25 54  1  0  0  0  0
 25 55  1  0  0  0  0
 26 56  1  0  0  0  0
 26 57  1  0  0  0  0
 27 58  1  0  0  0  0
M  END
> <clash_score>
0

> <docking_score>
-8.307989120483398

> <overlap_score>
0.9782362580299377

$$$$
BENZO_455_1
  -OEChem-08222022203D

 56 59  0     0  0  0  0  0  0999 V2000
    4.2750    1.7050   20.8490 C   0  0  0  0  0  0  0  0  0  0  0  0
    3.9160    2.0630   19.5520 C   0  0  0  0  0  0  0  0  0  0  0  0
    5.4210    0.9600   21.0930 C   0  0  0  0  0  0  0  0  0  0  0  0
    4.6890    1.6810   18.4640 C   0  0  0  0  0  0  0  0  0  0  0  0
    8.9960   -2.3380   25.5320 C   0  0  0  0  0  0  0  0  0  0  0  0
    9.6730   -3.4710   23.5300 C   0  0  0  0  0  0  0  0  0  0  0  0
    9.0720   -1.1280   24.8640 C   0  0  0  0  0  0  0  0  0  0  0  0
    9.7200   -2.2600   22.8630 C   0  0  0  0  0  0  0  0  0  0  0  0
   12.2914    2.2071   23.0512 C   0  0  0  0  0  0  0  0  0  0  0  0
    7.6390   -0.2680   18.5410 C   0  0  0  0  0  0  0  0  0  0  0  0
   12.1614    0.6214   24.5689 C   0  0  0  0  0  0  0  0  0  0  0  0
    6.1790    0.5730   19.9990 C   0  0  0  0  0  0  0  0  0  0  0  0
   11.3794    1.3761   23.7290 C   0  0  0  0  0  0  0  0  0  0  0  0
    7.3170   -0.1610   19.8550 C   0  0  0  0  0  0  0  0  0  0  0  0
    5.8300    0.9190   18.6970 C   0  0  0  0  0  0  0  0  0  0  0  0
    9.3070   -3.5340   24.8780 C   0  0  0  0  0  0  0  0  0  0  0  0
    9.3350   -1.0880   23.5010 C   0  0  0  0  0  0  0  0  0  0  0  0
    9.0420    0.3700   21.5280 C   0  0  0  0  0  0  0  0  0  0  0  0
    9.5334   -6.0236   25.0414 C   0  0  0  0  0  0  0  0  0  0  0  0
   10.6330   -7.3746   26.8775 C   0  0  0  0  0  0  0  0  0  0  0  0
   14.6267    0.5248   25.0067 C   0  0  0  0  0  0  0  0  0  0  0  0
    8.1890   -0.7180   20.8700 C   0  0  0  0  0  0  0  0  0  0  0  0
    9.8870    1.3260   23.5730 C   0  0  0  0  0  0  0  0  0  0  0  0
    9.3522   -7.0865   26.1149 C   0  0  0  0  0  0  0  0  0  0  0  0
   13.5560    2.0002   23.4280 N   0  0  0  0  0  0  0  0  0  0  0  0
    6.7580    0.3810   17.8350 N   0  0  0  0  0  0  0  0  0  0  0  0
   13.4442    1.0306   24.3518 N   0  0  0  0  0  0  0  0  0  0  0  0
    9.2546   -4.7422   25.5438 N   0  0  0  0  0  0  0  0  0  0  0  0
    9.4560    0.1560   22.8130 N   0  0  0  0  0  0  0  0  0  0  0  0
    9.2690    1.4140   20.9380 O   0  0  0  0  0  0  0  0  0  0  0  0
    9.8805   -6.3053   23.8992 O   0  0  0  0  0  0  0  0  0  0  0  0
    3.6455    2.0160   21.6826 H   0  0  0  0  0  0  0  0  0  0  0  0
    3.0144    2.6518   19.3914 H   0  0  0  0  0  0  0  0  0  0  0  0
    5.6994    0.6999   22.1043 H   0  0  0  0  0  0  0  0  0  0  0  0
    4.4044    1.9727   17.4490 H   0  0  0  0  0  0  0  0  0  0  0  0
    8.6895   -2.3529   26.5807 H   0  0  0  0  0  0  0  0  0  0  0  0
    9.9262   -4.3897   22.9916 H   0  0  0  0  0  0  0  0  0  0  0  0
    8.9224   -0.1998   25.4238 H   0  0  0  0  0  0  0  0  0  0  0  0
   10.0649   -2.2343   21.8258 H   0  0  0  0  0  0  0  0  0  0  0  0
   12.0895    2.9562   22.2987 H   0  0  0  0  0  0  0  0  0  0  0  0
    8.4839   -0.7930   18.0639 H   0  0  0  0  0  0  0  0  0  0  0  0
   11.9201   -0.1518   25.2857 H   0  0  0  0  0  0  0  0  0  0  0  0
   11.4241   -7.7171   26.2024 H   0  0  0  0  0  0  0  0  0  0  0  0
   10.4628   -8.1530   27.6277 H   0  0  0  0  0  0  0  0  0  0  0  0
   10.9949   -6.4779   27.3912 H   0  0  0  0  0  0  0  0  0  0  0  0
   15.0068   -0.3132   24.4165 H   0  0  0  0  0  0  0  0  0  0  0  0
   15.3758    1.3189   25.0699 H   0  0  0  0  0  0  0  0  0  0  0  0
   14.3675    0.1958   26.0170 H   0  0  0  0  0  0  0  0  0  0  0  0
    7.6077   -1.2085   21.6613 H   0  0  0  0  0  0  0  0  0  0  0  0
    8.8716   -1.4650   20.4448 H   0  0  0  0  0  0  0  0  0  0  0  0
    9.3974    1.2912   24.5523 H   0  0  0  0  0  0  0  0  0  0  0  0
    9.5159    2.2168   23.0553 H   0  0  0  0  0  0  0  0  0  0  0  0
    8.5795   -6.7463   26.8138 H   0  0  0  0  0  0  0  0  0  0  0  0
    8.9965   -8.0064   25.6368 H   0  0  0  0  0  0  0  0  0  0  0  0
    6.7270    0.4925   16.8305 H   0  0  0  0  0  0  0  0  0  0  0  0
    8.9776   -4.7057   26.5317 H   0  0  0  0  0  0  0  0  0  0  0  0
  1  2  1  0  0  0  0
  1  3  2  0  0  0  0
  2  4  2  0  0  0  0
  3 12  1  0  0  0  0
  4 15  1  0  0  0  0
  5  7  2  0  0  0  0
  5 16  1  0  0  0  0
  6  8  1  0  0  0  0
  6 16  2  0  0  0  0
  7 17  1  0  0  0  0
  8 17  2  0  0  0  0
  9 13  1  0  0  0  0
  9 25  2  0  0  0  0
 10 14  2  0  0  0  0
 10 26  1  0  0  0  0
 11 13  2  0  0  0  0
 11 27  1  0  0  0  0
 12 14  1  0  0  0  0
 12 15  2  0  0  0  0
 13 23  1  0  0  0  0
 14 22  1  0  0  0  0
 15 26  1  0  0  0  0
 16 28  1  0  0  0  0
 17 29  1  0  0  0  0
 18 22  1  0  0  0  0
 18 29  1  0  0  0  0
 18 30  2  0  0  0  0
 19 24  1  0  0  0  0
 19 28  1  0  0  0  0
 19 31  2  0  0  0  0
 20 24  1  0  0  0  0
 21 27  1  0  0  0  0
 23 29  1  0  0  0  0
 25 27  1  0  0  0  0
  1 32  1  0  0  0  0
  2 33  1  0  0  0  0
  3 34  1  0  0  0  0
  4 35  1  0  0  0  0
  5 36  1  0  0  0  0
  6 37  1  0  0  0  0
  7 38  1  0  0  0  0
  8 39  1  0  0  0  0
  9 40  1  0  0  0  0
 10 41  1  0  0  0  0
 11 42  1  0  0  0  0
 20 43  1  0  0  0  0
 20 44  1  0  0  0  0
 20 45  1  0  0  0  0
 21 46  1  0  0  0  0
 21 47  1  0  0  0  0
 21 48  1  0  0  0  0
 22 49  1  0  0  0  0
 22 50  1  0  0  0  0
 23 51  1  0  0  0  0
 23 52  1  0  0  0  0
 24 53  1  0  0  0  0
 24 54  1  0  0  0  0
 26 55  1  0  0  0  0
 28 56  1  0  0  0  0
M  END
> <clash_score>
2.118609124783835

> <docking_score>
-5.823454856872559

> <overlap_score>
0.9790104031562805

$$$$
BENZO_454_1
  -OEChem-08222022203D

 56 59  0     0  0  0  0  0  0999 V2000
    4.2750    1.7050   20.8490 C   0  0  0  0  0  0  0  0  0  0  0  0
    3.9160    2.0630   19.5520 C   0  0  0  0  0  0  0  0  0  0  0  0
   13.4007    0.5725   24.7805 C   0  0  0  0  0  0  0  0  0  0  0  0
    5.4210    0.9600   21.0930 C   0  0  0  0  0  0  0  0  0  0  0  0
   12.0141    0.5273   24.6359 C   0  0  0  0  0  0  0  0  0  0  0  0
    4.6890    1.6810   18.4640 C   0  0  0  0  0  0  0  0  0  0  0  0
    8.9960   -2.3380   25.5320 C   0  0  0  0  0  0  0  0  0  0  0  0
    9.6730   -3.4710   23.5300 C   0  0  0  0  0  0  0  0  0  0  0  0
    9.0720   -1.1280   24.8640 C   0  0  0  0  0  0  0  0  0  0  0  0
    9.7200   -2.2600   22.8630 C   0  0  0  0  0  0  0  0  0  0  0  0
   14.1526    1.4666   24.0184 C   0  0  0  0  0  0  0  0  0  0  0  0
   12.1314    2.2702   22.9668 C   0  0  0  0  0  0  0  0  0  0  0  0
    7.6390   -0.2680   18.5410 C   0  0  0  0  0  0  0  0  0  0  0  0
    6.1790    0.5730   19.9990 C   0  0  0  0  0  0  0  0  0  0  0  0
   11.3794    1.3761   23.7290 C   0  0  0  0  0  0  0  0  0  0  0  0
    7.3170   -0.1610   19.8550 C   0  0  0  0  0  0  0  0  0  0  0  0
    5.8300    0.9190   18.6970 C   0  0  0  0  0  0  0  0  0  0  0  0
    9.3070   -3.5340   24.8780 C   0  0  0  0  0  0  0  0  0  0  0  0
    9.3350   -1.0880   23.5010 C   0  0  0  0  0  0  0  0  0  0  0  0
   13.5180    2.3154   23.1115 C   0  0  0  0  0  0  0  0  0  0  0  0
    9.0420    0.3700   21.5280 C   0  0  0  0  0  0  0  0  0  0  0  0
    9.5334   -6.0236   25.0414 C   0  0  0  0  0  0  0  0  0  0  0  0
   10.6330   -7.3746   26.8775 C   0  0  0  0  0  0  0  0  0  0  0  0
    8.1890   -0.7180   20.8700 C   0  0  0  0  0  0  0  0  0  0  0  0
    9.8870    1.3260   23.5730 C   0  0  0  0  0  0  0  0  0  0  0  0
    9.3522   -7.0865   26.1149 C   0  0  0  0  0  0  0  0  0  0  0  0
    6.7580    0.3810   17.8350 N   0  0  0  0  0  0  0  0  0  0  0  0
    9.2546   -4.7422   25.5438 N   0  0  0  0  0  0  0  0  0  0  0  0
    9.4560    0.1560   22.8130 N   0  0  0  0  0  0  0  0  0  0  0  0
    9.2690    1.4140   20.9380 O   0  0  0  0  0  0  0  0  0  0  0  0
    9.8805   -6.3053   23.8992 O   0  0  0  0  0  0  0  0  0  0  0  0
   14.4463    3.4175   22.1707 Cl  0  0  0  0  0  0  0  0  0  0  0  0
    3.6455    2.0160   21.6826 H   0  0  0  0  0  0  0  0  0  0  0  0
    3.0144    2.6518   19.3914 H   0  0  0  0  0  0  0  0  0  0  0  0
   13.8945   -0.0888   25.4867 H   0  0  0  0  0  0  0  0  0  0  0  0
    5.6994    0.6999   22.1043 H   0  0  0  0  0  0  0  0  0  0  0  0
   11.4361   -0.1726   25.2338 H   0  0  0  0  0  0  0  0  0  0  0  0
    4.4044    1.9727   17.4490 H   0  0  0  0  0  0  0  0  0  0  0  0
    8.6895   -2.3529   26.5807 H   0  0  0  0  0  0  0  0  0  0  0  0
    9.9262   -4.3897   22.9916 H   0  0  0  0  0  0  0  0  0  0  0  0
    8.9224   -0.1998   25.4238 H   0  0  0  0  0  0  0  0  0  0  0  0
   10.0649   -2.2343   21.8258 H   0  0  0  0  0  0  0  0  0  0  0  0
   15.2326    1.4907   24.1414 H   0  0  0  0  0  0  0  0  0  0  0  0
   11.6318    2.9303   22.2615 H   0  0  0  0  0  0  0  0  0  0  0  0
    8.4839   -0.7930   18.0639 H   0  0  0  0  0  0  0  0  0  0  0  0
   11.4241   -7.7171   26.2024 H   0  0  0  0  0  0  0  0  0  0  0  0
   10.4628   -8.1530   27.6277 H   0  0  0  0  0  0  0  0  0  0  0  0
   10.9949   -6.4779   27.3912 H   0  0  0  0  0  0  0  0  0  0  0  0
    7.6077   -1.2085   21.6613 H   0  0  0  0  0  0  0  0  0  0  0  0
    8.8716   -1.4650   20.4448 H   0  0  0  0  0  0  0  0  0  0  0  0
    9.3974    1.2912   24.5523 H   0  0  0  0  0  0  0  0  0  0  0  0
    9.5159    2.2168   23.0553 H   0  0  0  0  0  0  0  0  0  0  0  0
    8.5795   -6.7463   26.8138 H   0  0  0  0  0  0  0  0  0  0  0  0
    8.9965   -8.0064   25.6368 H   0  0  0  0  0  0  0  0  0  0  0  0
    6.7270    0.4925   16.8305 H   0  0  0  0  0  0  0  0  0  0  0  0
    8.9776   -4.7057   26.5317 H   0  0  0  0  0  0  0  0  0  0  0  0
  1  2  1  0  0  0  0
  1  4  2  0  0  0  0
  2  6  2  0  0  0  0
  3  5  2  0  0  0  0
  3 11  1  0  0  0  0
  4 14  1  0  0  0  0
  5 15  1  0  0  0  0
  6 17  1  0  0  0  0
  7  9  2  0  0  0  0
  7 18  1  0  0  0  0
  8 10  1  0  0  0  0
  8 18  2  0  0  0  0
  9 19  1  0  0  0  0
 10 19  2  0  0  0  0
 11 20  2  0  0  0  0
 12 15  2  0  0  0  0
 12 20  1  0  0  0  0
 13 16  2  0  0  0  0
 13 27  1  0  0  0  0
 14 16  1  0  0  0  0
 14 17  2  0  0  0  0
 15 25  1  0  0  0  0
 16 24  1  0  0  0  0
 17 27  1  0  0  0  0
 18 28  1  0  0  0  0
 19 29  1  0  0  0  0
 20 32  1  0  0  0  0
 21 24  1  0  0  0  0
 21 29  1  0  0  0  0
 21 30  2  0  0  0  0
 22 26  1  0  0  0  0
 22 28  1  0  0  0  0
 22 31  2  0  0  0  0
 23 26  1  0  0  0  0
 25 29  1  0  0  0  0
  1 33  1  0  0  0  0
  2 34  1  0  0  0  0
  3 35  1  0  0  0  0
  4 36  1  0  0  0  0
  5 37  1  0  0  0  0
  6 38  1  0  0  0  0
  7 39  1  0  0  0  0
  8 40  1  0  0  0  0
  9 41  1  0  0  0  0
 10 42  1  0  0  0  0
 11 43  1  0  0  0  0
 12 44  1  0  0  0  0
 13 45  1  0  0  0  0
 23 46  1  0  0  0  0
 23 47  1  0  0  0  0
 23 48  1  0  0  0  0
 24 49  1  0  0  0  0
 24 50  1  0  0  0  0
 25 51  1  0  0  0  0
 25 52  1  0  0  0  0
 26 53  1  0  0  0  0
 26 54  1  0  0  0  0
 27 55  1  0  0  0  0
 28 56  1  0  0  0  0
M  END
> <clash_score>
1.498667137989192

> <docking_score>
-5.252432823181152

> <overlap_score>
0.9913628101348877

$$$$
BENZO_461_1
  -OEChem-08222022203D

 49 52  0     0  0  0  0  0  0999 V2000
   14.1526    1.4694   24.0176 C   0  0  0  0  0  0  0  0  0  0  0  0
    4.2750    1.7050   20.8490 C   0  0  0  0  0  0  0  0  0  0  0  0
   13.3741    0.8121   24.9701 C   0  0  0  0  0  0  0  0  0  0  0  0
   13.5446    2.0802   22.9208 C   0  0  0  0  0  0  0  0  0  0  0  0
    3.9160    2.0630   19.5520 C   0  0  0  0  0  0  0  0  0  0  0  0
    5.4210    0.9600   21.0930 C   0  0  0  0  0  0  0  0  0  0  0  0
   11.9875    0.7654   24.8259 C   0  0  0  0  0  0  0  0  0  0  0  0
   12.1580    2.0335   22.7765 C   0  0  0  0  0  0  0  0  0  0  0  0
    8.9960   -2.3380   25.5320 C   0  0  0  0  0  0  0  0  0  0  0  0
    9.6730   -3.4710   23.5300 C   0  0  0  0  0  0  0  0  0  0  0  0
    4.6890    1.6810   18.4640 C   0  0  0  0  0  0  0  0  0  0  0  0
    9.0720   -1.1280   24.8640 C   0  0  0  0  0  0  0  0  0  0  0  0
    9.7200   -2.2600   22.8630 C   0  0  0  0  0  0  0  0  0  0  0  0
    7.6390   -0.2680   18.5410 C   0  0  0  0  0  0  0  0  0  0  0  0
    6.1790    0.5730   19.9990 C   0  0  0  0  0  0  0  0  0  0  0  0
    9.3070   -3.5340   24.8780 C   0  0  0  0  0  0  0  0  0  0  0  0
   11.3794    1.3761   23.7290 C   0  0  0  0  0  0  0  0  0  0  0  0
    7.3170   -0.1610   19.8550 C   0  0  0  0  0  0  0  0  0  0  0  0
    5.8300    0.9190   18.6970 C   0  0  0  0  0  0  0  0  0  0  0  0
    9.3350   -1.0880   23.5010 C   0  0  0  0  0  0  0  0  0  0  0  0
    9.0420    0.3700   21.5280 C   0  0  0  0  0  0  0  0  0  0  0  0
    9.2505   -4.8264   25.5904 C   0  0  0  0  0  0  0  0  0  0  0  0
    8.1890   -0.7180   20.8700 C   0  0  0  0  0  0  0  0  0  0  0  0
    9.8870    1.3260   23.5730 C   0  0  0  0  0  0  0  0  0  0  0  0
    6.7580    0.3810   17.8350 N   0  0  0  0  0  0  0  0  0  0  0  0
    9.4560    0.1560   22.8130 N   0  0  0  0  0  0  0  0  0  0  0  0
    9.2690    1.4140   20.9380 O   0  0  0  0  0  0  0  0  0  0  0  0
   15.2322    1.5068   24.1308 H   0  0  0  0  0  0  0  0  0  0  0  0
    3.6455    2.0160   21.6826 H   0  0  0  0  0  0  0  0  0  0  0  0
   13.8473    0.3374   25.8248 H   0  0  0  0  0  0  0  0  0  0  0  0
   14.1503    2.5930   22.1795 H   0  0  0  0  0  0  0  0  0  0  0  0
    3.0144    2.6518   19.3914 H   0  0  0  0  0  0  0  0  0  0  0  0
    5.6994    0.6999   22.1043 H   0  0  0  0  0  0  0  0  0  0  0  0
   11.3889    0.2508   25.5729 H   0  0  0  0  0  0  0  0  0  0  0  0
   11.6930    2.5120   21.9187 H   0  0  0  0  0  0  0  0  0  0  0  0
    8.6919   -2.3557   26.5813 H   0  0  0  0  0  0  0  0  0  0  0  0
    9.9267   -4.3907   22.9939 H   0  0  0  0  0  0  0  0  0  0  0  0
    4.4044    1.9727   17.4490 H   0  0  0  0  0  0  0  0  0  0  0  0
    8.9217   -0.1995   25.4231 H   0  0  0  0  0  0  0  0  0  0  0  0
   10.0653   -2.2339   21.8256 H   0  0  0  0  0  0  0  0  0  0  0  0
    8.4839   -0.7930   18.0639 H   0  0  0  0  0  0  0  0  0  0  0  0
    8.2503   -5.2678   25.5020 H   0  0  0  0  0  0  0  0  0  0  0  0
    9.9817   -5.5374   25.1845 H   0  0  0  0  0  0  0  0  0  0  0  0
    9.4841   -4.7043   26.6562 H   0  0  0  0  0  0  0  0  0  0  0  0
    7.6077   -1.2085   21.6613 H   0  0  0  0  0  0  0  0  0  0  0  0
    8.8716   -1.4650   20.4448 H   0  0  0  0  0  0  0  0  0  0  0  0
    9.3974    1.2912   24.5523 H   0  0  0  0  0  0  0  0  0  0  0  0
    9.5159    2.2168   23.0553 H   0  0  0  0  0  0  0  0  0  0  0  0
    6.7270    0.4925   16.8305 H   0  0  0  0  0  0  0  0  0  0  0  0
  1  3  1  0  0  0  0
  1  4  2  0  0  0  0
  2  5  1  0  0  0  0
  2  6  2  0  0  0  0
  3  7  2  0  0  0  0
  4  8  1  0  0  0  0
  5 11  2  0  0  0  0
  6 15  1  0  0  0  0
  7 17  1  0  0  0  0
  8 17  2  0  0  0  0
  9 12  2  0  0  0  0
  9 16  1  0  0  0  0
 10 13  1  0  0  0  0
 10 16  2  0  0  0  0
 11 19  1  0  0  0  0
 12 20  1  0  0  0  0
 13 20  2  0  0  0  0
 14 18  2  0  0  0  0
 14 25  1  0  0  0  0
 15 18  1  0  0  0  0
 15 19  2  0  0  0  0
 16 22  1  0  0  0  0
 17 24  1  0  0  0  0
 18 23  1  0  0  0  0
 19 25  1  0  0  0  0
 20 26  1  0  0  0  0
 21 23  1  0  0  0  0
 21 26  1  0  0  0  0
 21 27  2  0  0  0  0
 24 26  1  0  0  0  0
  1 28  1  0  0  0  0
  2 29  1  0  0  0  0
  3 30  1  0  0  0  0
  4 31  1  0  0  0  0
  5 32  1  0  0  0  0
  6 33  1  0  0  0  0
  7 34  1  0  0  0  0
  8 35  1  0  0  0  0
  9 36  1  0  0  0  0
 10 37  1  0  0  0  0
 11 38  1  0  0  0  0
 12 39  1  0  0  0  0
 13 40  1  0  0  0  0
 14 41  1  0  0  0  0
 22 42  1  0  0  0  0
 22 43  1  0  0  0  0
 22 44  1  0  0  0  0
 23 45  1  0  0  0  0
 23 46  1  0  0  0  0
 24 47  1  0  0  0  0
 24 48  1  0  0  0  0
 25 49  1  0  0  0  0
M  END
> <clash_score>
0

> <docking_score>
-8.650522232055664

> <overlap_score>
0.9394524097442627

$$$$
BENZO_460_1
  -OEChem-08222022203D

 46 49  0     0  0  0  0  0  0999 V2000
    4.2750    1.7050   20.8490 C   0  0  0  0  0  0  0  0  0  0  0  0
    3.9160    2.0630   19.5520 C   0  0  0  0  0  0  0  0  0  0  0  0
    5.4210    0.9600   21.0930 C   0  0  0  0  0  0  0  0  0  0  0  0
    8.9960   -2.3380   25.5320 C   0  0  0  0  0  0  0  0  0  0  0  0
    9.6730   -3.4710   23.5300 C   0  0  0  0  0  0  0  0  0  0  0  0
    4.6890    1.6810   18.4640 C   0  0  0  0  0  0  0  0  0  0  0  0
    9.0720   -1.1280   24.8640 C   0  0  0  0  0  0  0  0  0  0  0  0
    9.7200   -2.2600   22.8630 C   0  0  0  0  0  0  0  0  0  0  0  0
   12.2111    0.2208   23.7905 C   0  0  0  0  0  0  0  0  0  0  0  0
    7.6390   -0.2680   18.5410 C   0  0  0  0  0  0  0  0  0  0  0  0
   13.5412    0.5479   23.9364 C   0  0  0  0  0  0  0  0  0  0  0  0
   12.1057    2.5424   23.8305 C   0  0  0  0  0  0  0  0  0  0  0  0
    6.1790    0.5730   19.9990 C   0  0  0  0  0  0  0  0  0  0  0  0
    9.3070   -3.5340   24.8780 C   0  0  0  0  0  0  0  0  0  0  0  0
   11.3794    1.3761   23.7290 C   0  0  0  0  0  0  0  0  0  0  0  0
    7.3170   -0.1610   19.8550 C   0  0  0  0  0  0  0  0  0  0  0  0
    5.8300    0.9190   18.6970 C   0  0  0  0  0  0  0  0  0  0  0  0
    9.3350   -1.0880   23.5010 C   0  0  0  0  0  0  0  0  0  0  0  0
    9.0420    0.3700   21.5280 C   0  0  0  0  0  0  0  0  0  0  0  0
    9.2505   -4.8264   25.5904 C   0  0  0  0  0  0  0  0  0  0  0  0
    8.1890   -0.7180   20.8700 C   0  0  0  0  0  0  0  0  0  0  0  0
    9.8870    1.3260   23.5730 C   0  0  0  0  0  0  0  0  0  0  0  0
    6.7580    0.3810   17.8350 N   0  0  0  0  0  0  0  0  0  0  0  0
    9.4560    0.1560   22.8130 N   0  0  0  0  0  0  0  0  0  0  0  0
    9.2690    1.4140   20.9380 O   0  0  0  0  0  0  0  0  0  0  0  0
   13.7831    2.2420   23.9988 S   0  0  0  0  0  0  0  0  0  0  0  0
    3.6455    2.0160   21.6826 H   0  0  0  0  0  0  0  0  0  0  0  0
    3.0144    2.6518   19.3914 H   0  0  0  0  0  0  0  0  0  0  0  0
    5.6994    0.6999   22.1043 H   0  0  0  0  0  0  0  0  0  0  0  0
    8.6919   -2.3557   26.5813 H   0  0  0  0  0  0  0  0  0  0  0  0
    9.9267   -4.3907   22.9939 H   0  0  0  0  0  0  0  0  0  0  0  0
    4.4044    1.9727   17.4490 H   0  0  0  0  0  0  0  0  0  0  0  0
    8.9217   -0.1995   25.4231 H   0  0  0  0  0  0  0  0  0  0  0  0
   10.0653   -2.2339   21.8256 H   0  0  0  0  0  0  0  0  0  0  0  0
   11.8558   -0.8003   23.7315 H   0  0  0  0  0  0  0  0  0  0  0  0
    8.4839   -0.7930   18.0639 H   0  0  0  0  0  0  0  0  0  0  0  0
   14.3824   -0.1267   24.0100 H   0  0  0  0  0  0  0  0  0  0  0  0
   11.7354    3.5581   23.8155 H   0  0  0  0  0  0  0  0  0  0  0  0
    8.2503   -5.2678   25.5020 H   0  0  0  0  0  0  0  0  0  0  0  0
    9.9817   -5.5374   25.1845 H   0  0  0  0  0  0  0  0  0  0  0  0
    9.4841   -4.7043   26.6562 H   0  0  0  0  0  0  0  0  0  0  0  0
    7.6077   -1.2085   21.6613 H   0  0  0  0  0  0  0  0  0  0  0  0
    8.8716   -1.4650   20.4448 H   0  0  0  0  0  0  0  0  0  0  0  0
    9.3974    1.2912   24.5523 H   0  0  0  0  0  0  0  0  0  0  0  0
    9.5159    2.2168   23.0553 H   0  0  0  0  0  0  0  0  0  0  0  0
    6.7270    0.4925   16.8305 H   0  0  0  0  0  0  0  0  0  0  0  0
  1  2  1  0  0  0  0
  1  3  2  0  0  0  0
  2  6  2  0  0  0  0
  3 13  1  0  0  0  0
  4  7  2  0  0  0  0
  4 14  1  0  0  0  0
  5  8  1  0  0  0  0
  5 14  2  0  0  0  0
  6 17  1  0  0  0  0
  7 18  1  0  0  0  0
  8 18  2  0  0  0  0
  9 11  2  0  0  0  0
  9 15  1  0  0  0  0
 10 16  2  0  0  0  0
 10 23  1  0  0  0  0
 11 26  1  0  0  0  0
 12 15  2  0  0  0  0
 12 26  1  0  0  0  0
 13 16  1  0  0  0  0
 13 17  2  0  0  0  0
 14 20  1  0  0  0  0
 15 22  1  0  0  0  0
 16 21  1  0  0  0  0
 17 23  1  0  0  0  0
 18 24  1  0  0  0  0
 19 21  1  0  0  0  0
 19 24  1  0  0  0  0
 19 25  2  0  0  0  0
 22 24  1  0  0  0  0
  1 27  1  0  0  0  0
  2 28  1  0  0  0  0
  3 29  1  0  0  0  0
  4 30  1  0  0  0  0
  5 31  1  0  0  0  0
  6 32  1  0  0  0  0
  7 33  1  0  0  0  0
  8 34  1  0  0  0  0
  9 35  1  0  0  0  0
 10 36  1  0  0  0  0
 11 37  1  0  0  0  0
 12 38  1  0  0  0  0
 20 39  1  0  0  0  0
 20 40  1  0  0  0  0
 20 41  1  0  0  0  0
 21 42  1  0  0  0  0
 21 43  1  0  0  0  0
 22 44  1  0  0  0  0
 22 45  1  0  0  0  0
 23 46  1  0  0  0  0
M  END
> <clash_score>
0

> <docking_score>
-7.923707962036133

> <overlap_score>
0.924271285533905

$$$$
BENZO_458_1
  -OEChem-08222022203D

 61 65  0     0  0  0  0  0  0999 V2000
    4.2750    1.7050   20.8490 C   0  0  0  0  0  0  0  0  0  0  0  0
    3.9160    2.0630   19.5520 C   0  0  0  0  0  0  0  0  0  0  0  0
   13.4006    0.5725   24.7805 C   0  0  0  0  0  0  0  0  0  0  0  0
    5.4210    0.9600   21.0930 C   0  0  0  0  0  0  0  0  0  0  0  0
   12.0141    0.5273   24.6359 C   0  0  0  0  0  0  0  0  0  0  0  0
    4.6890    1.6810   18.4640 C   0  0  0  0  0  0  0  0  0  0  0  0
    8.9960   -2.3380   25.5320 C   0  0  0  0  0  0  0  0  0  0  0  0
    9.6730   -3.4710   23.5300 C   0  0  0  0  0  0  0  0  0  0  0  0
    9.0720   -1.1280   24.8640 C   0  0  0  0  0  0  0  0  0  0  0  0
    9.7200   -2.2600   22.8630 C   0  0  0  0  0  0  0  0  0  0  0  0
   14.1526    1.4666   24.0184 C   0  0  0  0  0  0  0  0  0  0  0  0
   12.1314    2.2702   22.9668 C   0  0  0  0  0  0  0  0  0  0  0  0
    7.6390   -0.2680   18.5410 C   0  0  0  0  0  0  0  0  0  0  0  0
    6.1790    0.5730   19.9990 C   0  0  0  0  0  0  0  0  0  0  0  0
   11.3794    1.3761   23.7290 C   0  0  0  0  0  0  0  0  0  0  0  0
    7.3170   -0.1610   19.8550 C   0  0  0  0  0  0  0  0  0  0  0  0
    5.8300    0.9190   18.6970 C   0  0  0  0  0  0  0  0  0  0  0  0
    9.3070   -3.5340   24.8780 C   0  0  0  0  0  0  0  0  0  0  0  0
    9.3350   -1.0880   23.5010 C   0  0  0  0  0  0  0  0  0  0  0  0
   13.5180    2.3154   23.1115 C   0  0  0  0  0  0  0  0  0  0  0  0
    9.0420    0.3700   21.5280 C   0  0  0  0  0  0  0  0  0  0  0  0
    7.3635   -6.1361   27.1888 C   0  0  0  0  0  0  0  0  0  0  0  0
    8.1961   -4.9735   27.7341 C   0  0  0  0  0  0  0  0  0  0  0  0
    7.1942   -6.0394   25.6709 C   0  0  0  0  0  0  0  0  0  0  0  0
    9.5196   -4.8490   26.9797 C   0  0  0  0  0  0  0  0  0  0  0  0
    8.5442   -5.8838   24.9639 C   0  0  0  0  0  0  0  0  0  0  0  0
    8.1890   -0.7180   20.8700 C   0  0  0  0  0  0  0  0  0  0  0  0
    9.8870    1.3260   23.5730 C   0  0  0  0  0  0  0  0  0  0  0  0
    6.7580    0.3810   17.8350 N   0  0  0  0  0  0  0  0  0  0  0  0
    9.2562   -4.7384   25.5422 N   0  0  0  0  0  0  0  0  0  0  0  0
    9.4560    0.1560   22.8130 N   0  0  0  0  0  0  0  0  0  0  0  0
    9.2690    1.4140   20.9380 O   0  0  0  0  0  0  0  0  0  0  0  0
   14.4463    3.4175   22.1707 Cl  0  0  0  0  0  0  0  0  0  0  0  0
    3.6455    2.0160   21.6826 H   0  0  0  0  0  0  0  0  0  0  0  0
    3.0144    2.6518   19.3914 H   0  0  0  0  0  0  0  0  0  0  0  0
   13.8945   -0.0888   25.4867 H   0  0  0  0  0  0  0  0  0  0  0  0
    5.6994    0.6999   22.1043 H   0  0  0  0  0  0  0  0  0  0  0  0
   11.4361   -0.1726   25.2338 H   0  0  0  0  0  0  0  0  0  0  0  0
    4.4044    1.9727   17.4490 H   0  0  0  0  0  0  0  0  0  0  0  0
    8.6905   -2.3533   26.5810 H   0  0  0  0  0  0  0  0  0  0  0  0
    9.9266   -4.3896   22.9917 H   0  0  0  0  0  0  0  0  0  0  0  0
    8.9233   -0.1992   25.4231 H   0  0  0  0  0  0  0  0  0  0  0  0
   10.0650   -2.2330   21.8256 H   0  0  0  0  0  0  0  0  0  0  0  0
   15.2326    1.4907   24.1414 H   0  0  0  0  0  0  0  0  0  0  0  0
   11.6318    2.9303   22.2615 H   0  0  0  0  0  0  0  0  0  0  0  0
    8.4839   -0.7930   18.0639 H   0  0  0  0  0  0  0  0  0  0  0  0
    7.8482   -7.0901   27.4469 H   0  0  0  0  0  0  0  0  0  0  0  0
    6.3760   -6.1438   27.6724 H   0  0  0  0  0  0  0  0  0  0  0  0
    7.6307   -4.0424   27.6403 H   0  0  0  0  0  0  0  0  0  0  0  0
    8.3915   -5.1310   28.7968 H   0  0  0  0  0  0  0  0  0  0  0  0
    6.6888   -6.9376   25.3010 H   0  0  0  0  0  0  0  0  0  0  0  0
    6.5515   -5.1859   25.4257 H   0  0  0  0  0  0  0  0  0  0  0  0
   10.0492   -3.9640   27.3414 H   0  0  0  0  0  0  0  0  0  0  0  0
   10.1431   -5.7254   27.1778 H   0  0  0  0  0  0  0  0  0  0  0  0
    9.1338   -6.7931   25.0868 H   0  0  0  0  0  0  0  0  0  0  0  0
    8.3656   -5.7264   23.8998 H   0  0  0  0  0  0  0  0  0  0  0  0
    7.5972   -1.2056   21.6500 H   0  0  0  0  0  0  0  0  0  0  0  0
    8.8612   -1.4622   20.4334 H   0  0  0  0  0  0  0  0  0  0  0  0
    9.3974    1.2912   24.5523 H   0  0  0  0  0  0  0  0  0  0  0  0
    9.5159    2.2168   23.0554 H   0  0  0  0  0  0  0  0  0  0  0  0
    6.7270    0.4925   16.8305 H   0  0  0  0  0  0  0  0  0  0  0  0
  1  2  1  0  0  0  0
  1  4  2  0  0  0  0
  2  6  2  0  0  0  0
  3  5  2  0  0  0  0
  3 11  1  0  0  0  0
  4 14  1  0  0  0  0
  5 15  1  0  0  0  0
  6 17  1  0  0  0  0
  7  9  2  0  0  0  0
  7 18  1  0  0  0  0
  8 10  1  0  0  0  0
  8 18  2  0  0  0  0
  9 19  1  0  0  0  0
 10 19  2  0  0  0  0
 11 20  2  0  0  0  0
 12 15  2  0  0  0  0
 12 20  1  0  0  0  0
 13 16  2  0  0  0  0
 13 29  1  0  0  0  0
 14 16  1  0  0  0  0
 14 17  2  0  0  0  0
 15 28  1  0  0  0  0
 16 27  1  0  0  0  0
 17 29  1  0  0  0  0
 18 30  1  0  0  0  0
 19 31  1  0  0  0  0
 20 33  1  0  0  0  0
 21 27  1  0  0  0  0
 21 31  1  0  0  0  0
 21 32  2  0  0  0  0
 22 23  1  0  0  0  0
 22 24  1  0  0  0  0
 23 25  1  0  0  0  0
 24 26  1  0  0  0  0
 25 30  1  0  0  0  0
 26 30  1  0  0  0  0
 28 31  1  0  0  0  0
  1 34  1  0  0  0  0
  2 35  1  0  0  0  0
  3 36  1  0  0  0  0
  4 37  1  0  0  0  0
  5 38  1  0  0  0  0
  6 39  1  0  0  0  0
  7 40  1  0  0  0  0
  8 41  1  0  0  0  0
  9 42  1  0  0  0  0
 10 43  1  0  0  0  0
 11 44  1  0  0  0  0
 12 45  1  0  0  0  0
 13 46  1  0  0  0  0
 22 47  1  0  0  0  0
 22 48  1  0  0  0  0
 23 49  1  0  0  0  0
 23 50  1  0  0  0  0
 24 51  1  0  0  0  0
 24 52  1  0  0  0  0
 25 53  1  0  0  0  0
 25 54  1  0  0  0  0
 26 55  1  0  0  0  0
 26 56  1  0  0  0  0
 27 57  1  0  0  0  0
 27 58  1  0  0  0  0
 28 59  1  0  0  0  0
 28 60  1  0  0  0  0
 29 61  1  0  0  0  0
M  END
> <clash_score>
0

> <docking_score>
-7.542486190795898

> <overlap_score>
1.0042747259140015

$$$$
BENZO_459_1
  -OEChem-08222022203D

 61 65  0     0  0  0  0  0  0999 V2000
    4.2750    1.7050   20.8490 C   0  0  0  0  0  0  0  0  0  0  0  0
    3.9160    2.0630   19.5520 C   0  0  0  0  0  0  0  0  0  0  0  0
    5.4210    0.9600   21.0930 C   0  0  0  0  0  0  0  0  0  0  0  0
    4.6890    1.6810   18.4640 C   0  0  0  0  0  0  0  0  0  0  0  0
    8.9960   -2.3380   25.5320 C   0  0  0  0  0  0  0  0  0  0  0  0
    9.6730   -3.4710   23.5300 C   0  0  0  0  0  0  0  0  0  0  0  0
    9.0720   -1.1280   24.8640 C   0  0  0  0  0  0  0  0  0  0  0  0
    9.7200   -2.2600   22.8630 C   0  0  0  0  0  0  0  0  0  0  0  0
   12.1233    1.3811   24.9242 C   0  0  0  0  0  0  0  0  0  0  0  0
    7.6390   -0.2680   18.5410 C   0  0  0  0  0  0  0  0  0  0  0  0
   12.3261    1.4247   22.7351 C   0  0  0  0  0  0  0  0  0  0  0  0
    6.1790    0.5730   19.9990 C   0  0  0  0  0  0  0  0  0  0  0  0
   11.3794    1.3761   23.7290 C   0  0  0  0  0  0  0  0  0  0  0  0
    7.3170   -0.1610   19.8550 C   0  0  0  0  0  0  0  0  0  0  0  0
    5.8300    0.9190   18.6970 C   0  0  0  0  0  0  0  0  0  0  0  0
    9.3070   -3.5340   24.8780 C   0  0  0  0  0  0  0  0  0  0  0  0
    9.3350   -1.0880   23.5010 C   0  0  0  0  0  0  0  0  0  0  0  0
    9.0420    0.3700   21.5280 C   0  0  0  0  0  0  0  0  0  0  0  0
    7.3635   -6.1361   27.1888 C   0  0  0  0  0  0  0  0  0  0  0  0
    8.1961   -4.9735   27.7341 C   0  0  0  0  0  0  0  0  0  0  0  0
    7.1942   -6.0394   25.6709 C   0  0  0  0  0  0  0  0  0  0  0  0
    9.5196   -4.8490   26.9797 C   0  0  0  0  0  0  0  0  0  0  0  0
    8.5442   -5.8838   24.9639 C   0  0  0  0  0  0  0  0  0  0  0  0
   14.8305    1.5084   22.7418 C   0  0  0  0  0  0  0  0  0  0  0  0
    8.1890   -0.7180   20.8700 C   0  0  0  0  0  0  0  0  0  0  0  0
    9.8870    1.3260   23.5730 C   0  0  0  0  0  0  0  0  0  0  0  0
   13.4410    1.4289   24.7112 N   0  0  0  0  0  0  0  0  0  0  0  0
    6.7580    0.3810   17.8350 N   0  0  0  0  0  0  0  0  0  0  0  0
   13.5326    1.4543   23.3706 N   0  0  0  0  0  0  0  0  0  0  0  0
    9.2562   -4.7384   25.5422 N   0  0  0  0  0  0  0  0  0  0  0  0
    9.4560    0.1560   22.8130 N   0  0  0  0  0  0  0  0  0  0  0  0
    9.2690    1.4140   20.9380 O   0  0  0  0  0  0  0  0  0  0  0  0
    3.6455    2.0160   21.6826 H   0  0  0  0  0  0  0  0  0  0  0  0
    3.0144    2.6518   19.3914 H   0  0  0  0  0  0  0  0  0  0  0  0
    5.6994    0.6999   22.1043 H   0  0  0  0  0  0  0  0  0  0  0  0
    4.4044    1.9727   17.4490 H   0  0  0  0  0  0  0  0  0  0  0  0
    8.6905   -2.3533   26.5810 H   0  0  0  0  0  0  0  0  0  0  0  0
    9.9266   -4.3896   22.9917 H   0  0  0  0  0  0  0  0  0  0  0  0
    8.9233   -0.1992   25.4231 H   0  0  0  0  0  0  0  0  0  0  0  0
   10.0650   -2.2330   21.8256 H   0  0  0  0  0  0  0  0  0  0  0  0
   11.7624    1.3510   25.9426 H   0  0  0  0  0  0  0  0  0  0  0  0
    8.4839   -0.7930   18.0639 H   0  0  0  0  0  0  0  0  0  0  0  0
   12.2462    1.4390   21.6566 H   0  0  0  0  0  0  0  0  0  0  0  0
    7.8482   -7.0901   27.4469 H   0  0  0  0  0  0  0  0  0  0  0  0
    6.3760   -6.1438   27.6724 H   0  0  0  0  0  0  0  0  0  0  0  0
    7.6307   -4.0424   27.6403 H   0  0  0  0  0  0  0  0  0  0  0  0
    8.3915   -5.1310   28.7968 H   0  0  0  0  0  0  0  0  0  0  0  0
    6.6888   -6.9376   25.3010 H   0  0  0  0  0  0  0  0  0  0  0  0
    6.5515   -5.1859   25.4257 H   0  0  0  0  0  0  0  0  0  0  0  0
   10.0492   -3.9640   27.3414 H   0  0  0  0  0  0  0  0  0  0  0  0
   10.1431   -5.7254   27.1778 H   0  0  0  0  0  0  0  0  0  0  0  0
    9.1338   -6.7931   25.0868 H   0  0  0  0  0  0  0  0  0  0  0  0
    8.3656   -5.7264   23.8998 H   0  0  0  0  0  0  0  0  0  0  0  0
   15.0990    2.5601   22.6124 H   0  0  0  0  0  0  0  0  0  0  0  0
   15.5636    1.0018   23.3756 H   0  0  0  0  0  0  0  0  0  0  0  0
   14.7841    1.0025   21.7733 H   0  0  0  0  0  0  0  0  0  0  0  0
    7.5972   -1.2056   21.6500 H   0  0  0  0  0  0  0  0  0  0  0  0
    8.8612   -1.4622   20.4334 H   0  0  0  0  0  0  0  0  0  0  0  0
    9.3974    1.2912   24.5523 H   0  0  0  0  0  0  0  0  0  0  0  0
    9.5159    2.2168   23.0554 H   0  0  0  0  0  0  0  0  0  0  0  0
    6.7270    0.4925   16.8305 H   0  0  0  0  0  0  0  0  0  0  0  0
  1  2  1  0  0  0  0
  1  3  2  0  0  0  0
  2  4  2  0  0  0  0
  3 12  1  0  0  0  0
  4 15  1  0  0  0  0
  5  7  2  0  0  0  0
  5 16  1  0  0  0  0
  6  8  1  0  0  0  0
  6 16  2  0  0  0  0
  7 17  1  0  0  0  0
  8 17  2  0  0  0  0
  9 13  1  0  0  0  0
  9 27  2  0  0  0  0
 10 14  2  0  0  0  0
 10 28  1  0  0  0  0
 11 13  2  0  0  0  0
 11 29  1  0  0  0  0
 12 14  1  0  0  0  0
 12 15  2  0  0  0  0
 13 26  1  0  0  0  0
 14 25  1  0  0  0  0
 15 28  1  0  0  0  0
 16 30  1  0  0  0  0
 17 31  1  0  0  0  0
 18 25  1  0  0  0  0
 18 31  1  0  0  0  0
 18 32  2  0  0  0  0
 19 20  1  0  0  0  0
 19 21  1  0  0  0  0
 20 22  1  0  0  0  0
 21 23  1  0  0  0  0
 22 30  1  0  0  0  0
 23 30  1  0  0  0  0
 24 29  1  0  0  0  0
 26 31  1  0  0  0  0
 27 29  1  0  0  0  0
  1 33  1  0  0  0  0
  2 34  1  0  0  0  0
  3 35  1  0  0  0  0
  4 36  1  0  0  0  0
  5 37  1  0  0  0  0
  6 38  1  0  0  0  0
  7 39  1  0  0  0  0
  8 40  1  0  0  0  0
  9 41  1  0  0  0  0
 10 42  1  0  0  0  0
 11 43  1  0  0  0  0
 19 44  1  0  0  0  0
 19 45  1  0  0  0  0
 20 46  1  0  0  0  0
 20 47  1  0  0  0  0
 21 48  1  0  0  0  0
 21 49  1  0  0  0  0
 22 50  1  0  0  0  0
 22 51  1  0  0  0  0
 23 52  1  0  0  0  0
 23 53  1  0  0  0  0
 24 54  1  0  0  0  0
 24 55  1  0  0  0  0
 24 56  1  0  0  0  0
 25 57  1  0  0  0  0
 25 58  1  0  0  0  0
 26 59  1  0  0  0  0
 26 60  1  0  0  0  0
 28 61  1  0  0  0  0
M  END
> <clash_score>
0

> <docking_score>
-8.12163257598877

> <overlap_score>
0.9881091713905334

$$$$
BENZO_462_1
  -OEChem-08222022203D

 49 52  0     0  0  0  0  0  0999 V2000
    4.2750    1.7050   20.8490 C   0  0  0  0  0  0  0  0  0  0  0  0
    3.9160    2.0630   19.5520 C   0  0  0  0  0  0  0  0  0  0  0  0
   13.4007    0.5725   24.7805 C   0  0  0  0  0  0  0  0  0  0  0  0
    5.4210    0.9600   21.0930 C   0  0  0  0  0  0  0  0  0  0  0  0
   12.0141    0.5273   24.6359 C   0  0  0  0  0  0  0  0  0  0  0  0
    8.9960   -2.3380   25.5320 C   0  0  0  0  0  0  0  0  0  0  0  0
    9.6730   -3.4710   23.5300 C   0  0  0  0  0  0  0  0  0  0  0  0
    4.6890    1.6810   18.4640 C   0  0  0  0  0  0  0  0  0  0  0  0
    9.0720   -1.1280   24.8640 C   0  0  0  0  0  0  0  0  0  0  0  0
    9.7200   -2.2600   22.8630 C   0  0  0  0  0  0  0  0  0  0  0  0
   14.1526    1.4666   24.0184 C   0  0  0  0  0  0  0  0  0  0  0  0
   12.1314    2.2702   22.9668 C   0  0  0  0  0  0  0  0  0  0  0  0
    7.6390   -0.2680   18.5410 C   0  0  0  0  0  0  0  0  0  0  0  0
    6.1790    0.5730   19.9990 C   0  0  0  0  0  0  0  0  0  0  0  0
    9.3070   -3.5340   24.8780 C   0  0  0  0  0  0  0  0  0  0  0  0
   11.3794    1.3761   23.7290 C   0  0  0  0  0  0  0  0  0  0  0  0
    7.3170   -0.1610   19.8550 C   0  0  0  0  0  0  0  0  0  0  0  0
    5.8300    0.9190   18.6970 C   0  0  0  0  0  0  0  0  0  0  0  0
    9.3350   -1.0880   23.5010 C   0  0  0  0  0  0  0  0  0  0  0  0
   13.5180    2.3154   23.1115 C   0  0  0  0  0  0  0  0  0  0  0  0
    9.0420    0.3700   21.5280 C   0  0  0  0  0  0  0  0  0  0  0  0
    9.2505   -4.8264   25.5904 C   0  0  0  0  0  0  0  0  0  0  0  0
    8.1890   -0.7180   20.8700 C   0  0  0  0  0  0  0  0  0  0  0  0
    9.8870    1.3260   23.5730 C   0  0  0  0  0  0  0  0  0  0  0  0
    6.7580    0.3810   17.8350 N   0  0  0  0  0  0  0  0  0  0  0  0
    9.4560    0.1560   22.8130 N   0  0  0  0  0  0  0  0  0  0  0  0
    9.2690    1.4140   20.9380 O   0  0  0  0  0  0  0  0  0  0  0  0
   14.4463    3.4175   22.1707 Cl  0  0  0  0  0  0  0  0  0  0  0  0
    3.6455    2.0160   21.6826 H   0  0  0  0  0  0  0  0  0  0  0  0
    3.0144    2.6518   19.3914 H   0  0  0  0  0  0  0  0  0  0  0  0
   13.8945   -0.0888   25.4867 H   0  0  0  0  0  0  0  0  0  0  0  0
    5.6994    0.6999   22.1043 H   0  0  0  0  0  0  0  0  0  0  0  0
   11.4361   -0.1726   25.2338 H   0  0  0  0  0  0  0  0  0  0  0  0
    8.6919   -2.3557   26.5813 H   0  0  0  0  0  0  0  0  0  0  0  0
    9.9267   -4.3907   22.9939 H   0  0  0  0  0  0  0  0  0  0  0  0
    4.4044    1.9727   17.4490 H   0  0  0  0  0  0  0  0  0  0  0  0
    8.9217   -0.1995   25.4231 H   0  0  0  0  0  0  0  0  0  0  0  0
   10.0653   -2.2339   21.8256 H   0  0  0  0  0  0  0  0  0  0  0  0
   15.2326    1.4907   24.1414 H   0  0  0  0  0  0  0  0  0  0  0  0
   11.6318    2.9303   22.2615 H   0  0  0  0  0  0  0  0  0  0  0  0
    8.4839   -0.7930   18.0639 H   0  0  0  0  0  0  0  0  0  0  0  0
    8.2503   -5.2678   25.5020 H   0  0  0  0  0  0  0  0  0  0  0  0
    9.9817   -5.5374   25.1845 H   0  0  0  0  0  0  0  0  0  0  0  0
    9.4841   -4.7043   26.6562 H   0  0  0  0  0  0  0  0  0  0  0  0
    7.6077   -1.2085   21.6613 H   0  0  0  0  0  0  0  0  0  0  0  0
    8.8716   -1.4650   20.4448 H   0  0  0  0  0  0  0  0  0  0  0  0
    9.3974    1.2912   24.5523 H   0  0  0  0  0  0  0  0  0  0  0  0
    9.5159    2.2168   23.0553 H   0  0  0  0  0  0  0  0  0  0  0  0
    6.7270    0.4925   16.8305 H   0  0  0  0  0  0  0  0  0  0  0  0
  1  2  1  0  0  0  0
  1  4  2  0  0  0  0
  2  8  2  0  0  0  0
  3  5  2  0  0  0  0
  3 11  1  0  0  0  0
  4 14  1  0  0  0  0
  5 16  1  0  0  0  0
  6  9  2  0  0  0  0
  6 15  1  0  0  0  0
  7 10  1  0  0  0  0
  7 15  2  0  0  0  0
  8 18  1  0  0  0  0
  9 19  1  0  0  0  0
 10 19  2  0  0  0  0
 11 20  2  0  0  0  0
 12 16  2  0  0  0  0
 12 20  1  0  0  0  0
 13 17  2  0  0  0  0
 13 25  1  0  0  0  0
 14 17  1  0  0  0  0
 14 18  2  0  0  0  0
 15 22  1  0  0  0  0
 16 24  1  0  0  0  0
 17 23  1  0  0  0  0
 18 25  1  0  0  0  0
 19 26  1  0  0  0  0
 20 28  1  0  0  0  0
 21 23  1  0  0  0  0
 21 26  1  0  0  0  0
 21 27  2  0  0  0  0
 24 26  1  0  0  0  0
  1 29  1  0  0  0  0
  2 30  1  0  0  0  0
  3 31  1  0  0  0  0
  4 32  1  0  0  0  0
  5 33  1  0  0  0  0
  6 34  1  0  0  0  0
  7 35  1  0  0  0  0
  8 36  1  0  0  0  0
  9 37  1  0  0  0  0
 10 38  1  0  0  0  0
 11 39  1  0  0  0  0
 12 40  1  0  0  0  0
 13 41  1  0  0  0  0
 22 42  1  0  0  0  0
 22 43  1  0  0  0  0
 22 44  1  0  0  0  0
 23 45  1  0  0  0  0
 23 46  1  0  0  0  0
 24 47  1  0  0  0  0
 24 48  1  0  0  0  0
 25 49  1  0  0  0  0
M  END
> <clash_score>
0

> <docking_score>
-7.787508010864258

> <overlap_score>
0.9507184624671936

$$$$
BENZO_465_1
  -OEChem-08222022203D

 50 53  0     0  0  0  0  0  0999 V2000
   14.1526    1.4694   24.0176 C   0  0  0  0  0  0  0  0  0  0  0  0
    4.2750    1.7050   20.8490 C   0  0  0  0  0  0  0  0  0  0  0  0
   13.3741    0.8121   24.9701 C   0  0  0  0  0  0  0  0  0  0  0  0
   13.5446    2.0802   22.9208 C   0  0  0  0  0  0  0  0  0  0  0  0
    3.9160    2.0630   19.5520 C   0  0  0  0  0  0  0  0  0  0  0  0
    5.4210    0.9600   21.0930 C   0  0  0  0  0  0  0  0  0  0  0  0
   11.9875    0.7654   24.8259 C   0  0  0  0  0  0  0  0  0  0  0  0
   12.1580    2.0335   22.7765 C   0  0  0  0  0  0  0  0  0  0  0  0
    4.6890    1.6810   18.4640 C   0  0  0  0  0  0  0  0  0  0  0  0
    9.0720   -1.1280   24.8640 C   0  0  0  0  0  0  0  0  0  0  0  0
    9.7200   -2.2600   22.8630 C   0  0  0  0  0  0  0  0  0  0  0  0
    8.9960   -2.3380   25.5320 C   0  0  0  0  0  0  0  0  0  0  0  0
    9.6730   -3.4710   23.5300 C   0  0  0  0  0  0  0  0  0  0  0  0
    7.6390   -0.2680   18.5410 C   0  0  0  0  0  0  0  0  0  0  0  0
    6.1790    0.5730   19.9990 C   0  0  0  0  0  0  0  0  0  0  0  0
   11.3794    1.3761   23.7290 C   0  0  0  0  0  0  0  0  0  0  0  0
    7.3170   -0.1610   19.8550 C   0  0  0  0  0  0  0  0  0  0  0  0
    5.8300    0.9190   18.6970 C   0  0  0  0  0  0  0  0  0  0  0  0
    9.3350   -1.0880   23.5010 C   0  0  0  0  0  0  0  0  0  0  0  0
    9.3070   -3.5340   24.8780 C   0  0  0  0  0  0  0  0  0  0  0  0
    9.0420    0.3700   21.5280 C   0  0  0  0  0  0  0  0  0  0  0  0
    9.5894   -5.8809   24.7798 C   0  0  0  0  0  0  0  0  0  0  0  0
    8.1890   -0.7180   20.8700 C   0  0  0  0  0  0  0  0  0  0  0  0
    9.8870    1.3260   23.5730 C   0  0  0  0  0  0  0  0  0  0  0  0
    6.7580    0.3810   17.8350 N   0  0  0  0  0  0  0  0  0  0  0  0
    9.4560    0.1560   22.8130 N   0  0  0  0  0  0  0  0  0  0  0  0
    9.2690    1.4140   20.9380 O   0  0  0  0  0  0  0  0  0  0  0  0
    9.2555   -4.7124   25.5274 O   0  0  0  0  0  0  0  0  0  0  0  0
   15.2322    1.5068   24.1308 H   0  0  0  0  0  0  0  0  0  0  0  0
    3.6455    2.0160   21.6826 H   0  0  0  0  0  0  0  0  0  0  0  0
   13.8473    0.3374   25.8248 H   0  0  0  0  0  0  0  0  0  0  0  0
   14.1503    2.5930   22.1795 H   0  0  0  0  0  0  0  0  0  0  0  0
    3.0144    2.6518   19.3914 H   0  0  0  0  0  0  0  0  0  0  0  0
    5.6994    0.6999   22.1043 H   0  0  0  0  0  0  0  0  0  0  0  0
   11.3889    0.2508   25.5729 H   0  0  0  0  0  0  0  0  0  0  0  0
   11.6930    2.5120   21.9187 H   0  0  0  0  0  0  0  0  0  0  0  0
    4.4044    1.9727   17.4490 H   0  0  0  0  0  0  0  0  0  0  0  0
    8.9221   -0.1995   25.4231 H   0  0  0  0  0  0  0  0  0  0  0  0
   10.0642   -2.2347   21.8253 H   0  0  0  0  0  0  0  0  0  0  0  0
    8.6902   -2.3588   26.5805 H   0  0  0  0  0  0  0  0  0  0  0  0
    9.9254   -4.3921   22.9961 H   0  0  0  0  0  0  0  0  0  0  0  0
    8.4839   -0.7930   18.0639 H   0  0  0  0  0  0  0  0  0  0  0  0
    9.5074   -6.7611   25.4222 H   0  0  0  0  0  0  0  0  0  0  0  0
   10.6088   -5.7902   24.3963 H   0  0  0  0  0  0  0  0  0  0  0  0
    8.8944   -5.9778   23.9424 H   0  0  0  0  0  0  0  0  0  0  0  0
    7.6077   -1.2085   21.6613 H   0  0  0  0  0  0  0  0  0  0  0  0
    8.8716   -1.4650   20.4448 H   0  0  0  0  0  0  0  0  0  0  0  0
    9.3974    1.2912   24.5523 H   0  0  0  0  0  0  0  0  0  0  0  0
    9.5159    2.2168   23.0553 H   0  0  0  0  0  0  0  0  0  0  0  0
    6.7270    0.4925   16.8305 H   0  0  0  0  0  0  0  0  0  0  0  0
  1  3  1  0  0  0  0
  1  4  2  0  0  0  0
  2  5  1  0  0  0  0
  2  6  2  0  0  0  0
  3  7  2  0  0  0  0
  4  8  1  0  0  0  0
  5  9  2  0  0  0  0
  6 15  1  0  0  0  0
  7 16  1  0  0  0  0
  8 16  2  0  0  0  0
  9 18  1  0  0  0  0
 10 12  2  0  0  0  0
 10 19  1  0  0  0  0
 11 13  1  0  0  0  0
 11 19  2  0  0  0  0
 12 20  1  0  0  0  0
 13 20  2  0  0  0  0
 14 17  2  0  0  0  0
 14 25  1  0  0  0  0
 15 17  1  0  0  0  0
 15 18  2  0  0  0  0
 16 24  1  0  0  0  0
 17 23  1  0  0  0  0
 18 25  1  0  0  0  0
 19 26  1  0  0  0  0
 20 28  1  0  0  0  0
 21 23  1  0  0  0  0
 21 26  1  0  0  0  0
 21 27  2  0  0  0  0
 22 28  1  0  0  0  0
 24 26  1  0  0  0  0
  1 29  1  0  0  0  0
  2 30  1  0  0  0  0
  3 31  1  0  0  0  0
  4 32  1  0  0  0  0
  5 33  1  0  0  0  0
  6 34  1  0  0  0  0
  7 35  1  0  0  0  0
  8 36  1  0  0  0  0
  9 37  1  0  0  0  0
 10 38  1  0  0  0  0
 11 39  1  0  0  0  0
 12 40  1  0  0  0  0
 13 41  1  0  0  0  0
 14 42  1  0  0  0  0
 22 43  1  0  0  0  0
 22 44  1  0  0  0  0
 22 45  1  0  0  0  0
 23 46  1  0  0  0  0
 23 47  1  0  0  0  0
 24 48  1  0  0  0  0
 24 49  1  0  0  0  0
 25 50  1  0  0  0  0
M  END
> <clash_score>
0

> <docking_score>
-8.356637001037598

> <overlap_score>
0.9642544984817505

$$$$
BENZO_463_1
  -OEChem-08222022203D

 49 52  0     0  0  0  0  0  0999 V2000
    4.2750    1.7050   20.8490 C   0  0  0  0  0  0  0  0  0  0  0  0
    3.9160    2.0630   19.5520 C   0  0  0  0  0  0  0  0  0  0  0  0
    5.4210    0.9600   21.0930 C   0  0  0  0  0  0  0  0  0  0  0  0
    8.9960   -2.3380   25.5320 C   0  0  0  0  0  0  0  0  0  0  0  0
    9.6730   -3.4710   23.5300 C   0  0  0  0  0  0  0  0  0  0  0  0
    4.6890    1.6810   18.4640 C   0  0  0  0  0  0  0  0  0  0  0  0
    9.0720   -1.1280   24.8640 C   0  0  0  0  0  0  0  0  0  0  0  0
    9.7200   -2.2600   22.8630 C   0  0  0  0  0  0  0  0  0  0  0  0
   12.2914    2.2071   23.0512 C   0  0  0  0  0  0  0  0  0  0  0  0
    7.6390   -0.2680   18.5410 C   0  0  0  0  0  0  0  0  0  0  0  0
   12.1614    0.6214   24.5689 C   0  0  0  0  0  0  0  0  0  0  0  0
    6.1790    0.5730   19.9990 C   0  0  0  0  0  0  0  0  0  0  0  0
    9.3070   -3.5340   24.8780 C   0  0  0  0  0  0  0  0  0  0  0  0
   11.3794    1.3761   23.7290 C   0  0  0  0  0  0  0  0  0  0  0  0
    7.3170   -0.1610   19.8550 C   0  0  0  0  0  0  0  0  0  0  0  0
    5.8300    0.9190   18.6970 C   0  0  0  0  0  0  0  0  0  0  0  0
    9.3350   -1.0880   23.5010 C   0  0  0  0  0  0  0  0  0  0  0  0
    9.0420    0.3700   21.5280 C   0  0  0  0  0  0  0  0  0  0  0  0
    9.2505   -4.8264   25.5904 C   0  0  0  0  0  0  0  0  0  0  0  0
   14.6267    0.5248   25.0067 C   0  0  0  0  0  0  0  0  0  0  0  0
    8.1890   -0.7180   20.8700 C   0  0  0  0  0  0  0  0  0  0  0  0
    9.8870    1.3260   23.5730 C   0  0  0  0  0  0  0  0  0  0  0  0
   13.5560    2.0002   23.4280 N   0  0  0  0  0  0  0  0  0  0  0  0
    6.7580    0.3810   17.8350 N   0  0  0  0  0  0  0  0  0  0  0  0
   13.4442    1.0306   24.3518 N   0  0  0  0  0  0  0  0  0  0  0  0
    9.4560    0.1560   22.8130 N   0  0  0  0  0  0  0  0  0  0  0  0
    9.2690    1.4140   20.9380 O   0  0  0  0  0  0  0  0  0  0  0  0
    3.6455    2.0160   21.6826 H   0  0  0  0  0  0  0  0  0  0  0  0
    3.0144    2.6518   19.3914 H   0  0  0  0  0  0  0  0  0  0  0  0
    5.6994    0.6999   22.1043 H   0  0  0  0  0  0  0  0  0  0  0  0
    8.6919   -2.3557   26.5813 H   0  0  0  0  0  0  0  0  0  0  0  0
    9.9267   -4.3907   22.9939 H   0  0  0  0  0  0  0  0  0  0  0  0
    4.4044    1.9727   17.4490 H   0  0  0  0  0  0  0  0  0  0  0  0
    8.9217   -0.1995   25.4231 H   0  0  0  0  0  0  0  0  0  0  0  0
   10.0653   -2.2339   21.8256 H   0  0  0  0  0  0  0  0  0  0  0  0
   12.0895    2.9562   22.2987 H   0  0  0  0  0  0  0  0  0  0  0  0
    8.4839   -0.7930   18.0639 H   0  0  0  0  0  0  0  0  0  0  0  0
   11.9201   -0.1518   25.2857 H   0  0  0  0  0  0  0  0  0  0  0  0
    8.2503   -5.2678   25.5020 H   0  0  0  0  0  0  0  0  0  0  0  0
    9.9817   -5.5374   25.1845 H   0  0  0  0  0  0  0  0  0  0  0  0
    9.4841   -4.7043   26.6562 H   0  0  0  0  0  0  0  0  0  0  0  0
   15.0068   -0.3132   24.4165 H   0  0  0  0  0  0  0  0  0  0  0  0
   15.3758    1.3189   25.0699 H   0  0  0  0  0  0  0  0  0  0  0  0
   14.3675    0.1958   26.0170 H   0  0  0  0  0  0  0  0  0  0  0  0
    7.6077   -1.2085   21.6613 H   0  0  0  0  0  0  0  0  0  0  0  0
    8.8716   -1.4650   20.4448 H   0  0  0  0  0  0  0  0  0  0  0  0
    9.3974    1.2912   24.5523 H   0  0  0  0  0  0  0  0  0  0  0  0
    9.5159    2.2168   23.0553 H   0  0  0  0  0  0  0  0  0  0  0  0
    6.7270    0.4925   16.8305 H   0  0  0  0  0  0  0  0  0  0  0  0
  1  2  1  0  0  0  0
  1  3  2  0  0  0  0
  2  6  2  0  0  0  0
  3 12  1  0  0  0  0
  4  7  2  0  0  0  0
  4 13  1  0  0  0  0
  5  8  1  0  0  0  0
  5 13  2  0  0  0  0
  6 16  1  0  0  0  0
  7 17  1  0  0  0  0
  8 17  2  0  0  0  0
  9 14  1  0  0  0  0
  9 23  2  0  0  0  0
 10 15  2  0  0  0  0
 10 24  1  0  0  0  0
 11 14  2  0  0  0  0
 11 25  1  0  0  0  0
 12 15  1  0  0  0  0
 12 16  2  0  0  0  0
 13 19  1  0  0  0  0
 14 22  1  0  0  0  0
 15 21  1  0  0  0  0
 16 24  1  0  0  0  0
 17 26  1  0  0  0  0
 18 21  1  0  0  0  0
 18 26  1  0  0  0  0
 18 27  2  0  0  0  0
 20 25  1  0  0  0  0
 22 26  1  0  0  0  0
 23 25  1  0  0  0  0
  1 28  1  0  0  0  0
  2 29  1  0  0  0  0
  3 30  1  0  0  0  0
  4 31  1  0  0  0  0
  5 32  1  0  0  0  0
  6 33  1  0  0  0  0
  7 34  1  0  0  0  0
  8 35  1  0  0  0  0
  9 36  1  0  0  0  0
 10 37  1  0  0  0  0
 11 38  1  0  0  0  0
 19 39  1  0  0  0  0
 19 40  1  0  0  0  0
 19 41  1  0  0  0  0
 20 42  1  0  0  0  0
 20 43  1  0  0  0  0
 20 44  1  0  0  0  0
 21 45  1  0  0  0  0
 21 46  1  0  0  0  0
 22 47  1  0  0  0  0
 22 48  1  0  0  0  0
 24 49  1  0  0  0  0
M  END
> <clash_score>
0.6199419867946427

> <docking_score>
-8.35853099822998

> <overlap_score>
0.9382387399673462

$$$$
BENZO_464_1
  -OEChem-08222022203D

 47 50  0     0  0  0  0  0  0999 V2000
    4.2750    1.7050   20.8490 C   0  0  0  0  0  0  0  0  0  0  0  0
    3.9160    2.0630   19.5520 C   0  0  0  0  0  0  0  0  0  0  0  0
    5.4210    0.9600   21.0930 C   0  0  0  0  0  0  0  0  0  0  0  0
    4.6890    1.6810   18.4640 C   0  0  0  0  0  0  0  0  0  0  0  0
    9.0720   -1.1280   24.8640 C   0  0  0  0  0  0  0  0  0  0  0  0
    9.7200   -2.2600   22.8630 C   0  0  0  0  0  0  0  0  0  0  0  0
    8.9960   -2.3380   25.5320 C   0  0  0  0  0  0  0  0  0  0  0  0
    9.6730   -3.4710   23.5300 C   0  0  0  0  0  0  0  0  0  0  0  0
   12.2111    0.2208   23.7905 C   0  0  0  0  0  0  0  0  0  0  0  0
    7.6390   -0.2680   18.5410 C   0  0  0  0  0  0  0  0  0  0  0  0
   13.5412    0.5479   23.9364 C   0  0  0  0  0  0  0  0  0  0  0  0
   12.1057    2.5424   23.8305 C   0  0  0  0  0  0  0  0  0  0  0  0
    6.1790    0.5730   19.9990 C   0  0  0  0  0  0  0  0  0  0  0  0
   11.3794    1.3761   23.7290 C   0  0  0  0  0  0  0  0  0  0  0  0
    7.3170   -0.1610   19.8550 C   0  0  0  0  0  0  0  0  0  0  0  0
    5.8300    0.9190   18.6970 C   0  0  0  0  0  0  0  0  0  0  0  0
    9.3350   -1.0880   23.5010 C   0  0  0  0  0  0  0  0  0  0  0  0
    9.3070   -3.5340   24.8780 C   0  0  0  0  0  0  0  0  0  0  0  0
    9.0420    0.3700   21.5280 C   0  0  0  0  0  0  0  0  0  0  0  0
    9.5894   -5.8809   24.7798 C   0  0  0  0  0  0  0  0  0  0  0  0
    8.1890   -0.7180   20.8700 C   0  0  0  0  0  0  0  0  0  0  0  0
    9.8870    1.3260   23.5730 C   0  0  0  0  0  0  0  0  0  0  0  0
    6.7580    0.3810   17.8350 N   0  0  0  0  0  0  0  0  0  0  0  0
    9.4560    0.1560   22.8130 N   0  0  0  0  0  0  0  0  0  0  0  0
    9.2690    1.4140   20.9380 O   0  0  0  0  0  0  0  0  0  0  0  0
    9.2555   -4.7124   25.5274 O   0  0  0  0  0  0  0  0  0  0  0  0
   13.7831    2.2420   23.9988 S   0  0  0  0  0  0  0  0  0  0  0  0
    3.6455    2.0160   21.6826 H   0  0  0  0  0  0  0  0  0  0  0  0
    3.0144    2.6518   19.3914 H   0  0  0  0  0  0  0  0  0  0  0  0
    5.6994    0.6999   22.1043 H   0  0  0  0  0  0  0  0  0  0  0  0
    4.4044    1.9727   17.4490 H   0  0  0  0  0  0  0  0  0  0  0  0
    8.9221   -0.1995   25.4231 H   0  0  0  0  0  0  0  0  0  0  0  0
   10.0642   -2.2347   21.8253 H   0  0  0  0  0  0  0  0  0  0  0  0
    8.6902   -2.3588   26.5805 H   0  0  0  0  0  0  0  0  0  0  0  0
    9.9254   -4.3921   22.9961 H   0  0  0  0  0  0  0  0  0  0  0  0
   11.8558   -0.8003   23.7315 H   0  0  0  0  0  0  0  0  0  0  0  0
    8.4839   -0.7930   18.0639 H   0  0  0  0  0  0  0  0  0  0  0  0
   14.3824   -0.1267   24.0100 H   0  0  0  0  0  0  0  0  0  0  0  0
   11.7354    3.5581   23.8155 H   0  0  0  0  0  0  0  0  0  0  0  0
    9.5074   -6.7611   25.4222 H   0  0  0  0  0  0  0  0  0  0  0  0
   10.6088   -5.7902   24.3963 H   0  0  0  0  0  0  0  0  0  0  0  0
    8.8944   -5.9778   23.9424 H   0  0  0  0  0  0  0  0  0  0  0  0
    7.6077   -1.2085   21.6613 H   0  0  0  0  0  0  0  0  0  0  0  0
    8.8716   -1.4650   20.4448 H   0  0  0  0  0  0  0  0  0  0  0  0
    9.3974    1.2912   24.5523 H   0  0  0  0  0  0  0  0  0  0  0  0
    9.5159    2.2168   23.0553 H   0  0  0  0  0  0  0  0  0  0  0  0
    6.7270    0.4925   16.8305 H   0  0  0  0  0  0  0  0  0  0  0  0
  1  2  1  0  0  0  0
  1  3  2  0  0  0  0
  2  4  2  0  0  0  0
  3 13  1  0  0  0  0
  4 16  1  0  0  0  0
  5  7  2  0  0  0  0
  5 17  1  0  0  0  0
  6  8  1  0  0  0  0
  6 17  2  0  0  0  0
  7 18  1  0  0  0  0
  8 18  2  0  0  0  0
  9 11  2  0  0  0  0
  9 14  1  0  0  0  0
 10 15  2  0  0  0  0
 10 23  1  0  0  0  0
 11 27  1  0  0  0  0
 12 14  2  0  0  0  0
 12 27  1  0  0  0  0
 13 15  1  0  0  0  0
 13 16  2  0  0  0  0
 14 22  1  0  0  0  0
 15 21  1  0  0  0  0
 16 23  1  0  0  0  0
 17 24  1  0  0  0  0
 18 26  1  0  0  0  0
 19 21  1  0  0  0  0
 19 24  1  0  0  0  0
 19 25  2  0  0  0  0
 20 26  1  0  0  0  0
 22 24  1  0  0  0  0
  1 28  1  0  0  0  0
  2 29  1  0  0  0  0
  3 30  1  0  0  0  0
  4 31  1  0  0  0  0
  5 32  1  0  0  0  0
  6 33  1  0  0  0  0
  7 34  1  0  0  0  0
  8 35  1  0  0  0  0
  9 36  1  0  0  0  0
 10 37  1  0  0  0  0
 11 38  1  0  0  0  0
 12 39  1  0  0  0  0
 20 40  1  0  0  0  0
 20 41  1  0  0  0  0
 20 42  1  0  0  0  0
 21 43  1  0  0  0  0
 21 44  1  0  0  0  0
 22 45  1  0  0  0  0
 22 46  1  0  0  0  0
 23 47  1  0  0  0  0
M  END
> <clash_score>
0

> <docking_score>
-7.629820823669434

> <overlap_score>
0.9491583704948425

$$$$
BENZO_466_1
  -OEChem-08222022203D

 50 53  0     0  0  0  0  0  0999 V2000
    4.2750    1.7050   20.8490 C   0  0  0  0  0  0  0  0  0  0  0  0
    3.9160    2.0630   19.5520 C   0  0  0  0  0  0  0  0  0  0  0  0
   13.4007    0.5725   24.7805 C   0  0  0  0  0  0  0  0  0  0  0  0
    5.4210    0.9600   21.0930 C   0  0  0  0  0  0  0  0  0  0  0  0
   12.0141    0.5273   24.6359 C   0  0  0  0  0  0  0  0  0  0  0  0
    4.6890    1.6810   18.4640 C   0  0  0  0  0  0  0  0  0  0  0  0
    9.0720   -1.1280   24.8640 C   0  0  0  0  0  0  0  0  0  0  0  0
    9.7200   -2.2600   22.8630 C   0  0  0  0  0  0  0  0  0  0  0  0
    8.9960   -2.3380   25.5320 C   0  0  0  0  0  0  0  0  0  0  0  0
    9.6730   -3.4710   23.5300 C   0  0  0  0  0  0  0  0  0  0  0  0
   14.1526    1.4666   24.0184 C   0  0  0  0  0  0  0  0  0  0  0  0
   12.1314    2.2702   22.9668 C   0  0  0  0  0  0  0  0  0  0  0  0
    7.6390   -0.2680   18.5410 C   0  0  0  0  0  0  0  0  0  0  0  0
    6.1790    0.5730   19.9990 C   0  0  0  0  0  0  0  0  0  0  0  0
   11.3794    1.3761   23.7290 C   0  0  0  0  0  0  0  0  0  0  0  0
    7.3170   -0.1610   19.8550 C   0  0  0  0  0  0  0  0  0  0  0  0
    5.8300    0.9190   18.6970 C   0  0  0  0  0  0  0  0  0  0  0  0
    9.3350   -1.0880   23.5010 C   0  0  0  0  0  0  0  0  0  0  0  0
    9.3070   -3.5340   24.8780 C   0  0  0  0  0  0  0  0  0  0  0  0
   13.5180    2.3154   23.1115 C   0  0  0  0  0  0  0  0  0  0  0  0
    9.0420    0.3700   21.5280 C   0  0  0  0  0  0  0  0  0  0  0  0
    8.8720   -4.6805   26.9013 C   0  0  0  0  0  0  0  0  0  0  0  0
    8.1890   -0.7180   20.8700 C   0  0  0  0  0  0  0  0  0  0  0  0
    9.8870    1.3260   23.5730 C   0  0  0  0  0  0  0  0  0  0  0  0
    6.7580    0.3810   17.8350 N   0  0  0  0  0  0  0  0  0  0  0  0
    9.4560    0.1560   22.8130 N   0  0  0  0  0  0  0  0  0  0  0  0
    9.2690    1.4140   20.9380 O   0  0  0  0  0  0  0  0  0  0  0  0
    9.2555   -4.7124   25.5274 O   0  0  0  0  0  0  0  0  0  0  0  0
   14.4463    3.4175   22.1707 Cl  0  0  0  0  0  0  0  0  0  0  0  0
    3.6455    2.0160   21.6826 H   0  0  0  0  0  0  0  0  0  0  0  0
    3.0144    2.6518   19.3914 H   0  0  0  0  0  0  0  0  0  0  0  0
   13.8945   -0.0888   25.4867 H   0  0  0  0  0  0  0  0  0  0  0  0
    5.6994    0.6999   22.1043 H   0  0  0  0  0  0  0  0  0  0  0  0
   11.4361   -0.1726   25.2338 H   0  0  0  0  0  0  0  0  0  0  0  0
    4.4044    1.9727   17.4490 H   0  0  0  0  0  0  0  0  0  0  0  0
    8.9221   -0.1995   25.4231 H   0  0  0  0  0  0  0  0  0  0  0  0
   10.0642   -2.2347   21.8253 H   0  0  0  0  0  0  0  0  0  0  0  0
    8.6902   -2.3588   26.5805 H   0  0  0  0  0  0  0  0  0  0  0  0
    9.9254   -4.3921   22.9961 H   0  0  0  0  0  0  0  0  0  0  0  0
   15.2326    1.4907   24.1414 H   0  0  0  0  0  0  0  0  0  0  0  0
   11.6318    2.9303   22.2615 H   0  0  0  0  0  0  0  0  0  0  0  0
    8.4839   -0.7930   18.0639 H   0  0  0  0  0  0  0  0  0  0  0  0
    8.8711   -5.6964   27.3038 H   0  0  0  0  0  0  0  0  0  0  0  0
    7.8758   -4.2402   26.9923 H   0  0  0  0  0  0  0  0  0  0  0  0
    9.5894   -4.0716   27.4566 H   0  0  0  0  0  0  0  0  0  0  0  0
    7.6077   -1.2085   21.6613 H   0  0  0  0  0  0  0  0  0  0  0  0
    8.8716   -1.4650   20.4448 H   0  0  0  0  0  0  0  0  0  0  0  0
    9.3974    1.2912   24.5523 H   0  0  0  0  0  0  0  0  0  0  0  0
    9.5159    2.2168   23.0553 H   0  0  0  0  0  0  0  0  0  0  0  0
    6.7270    0.4925   16.8305 H   0  0  0  0  0  0  0  0  0  0  0  0
  1  2  1  0  0  0  0
  1  4  2  0  0  0  0
  2  6  2  0  0  0  0
  3  5  2  0  0  0  0
  3 11  1  0  0  0  0
  4 14  1  0  0  0  0
  5 15  1  0  0  0  0
  6 17  1  0  0  0  0
  7  9  2  0  0  0  0
  7 18  1  0  0  0  0
  8 10  1  0  0  0  0
  8 18  2  0  0  0  0
  9 19  1  0  0  0  0
 10 19  2  0  0  0  0
 11 20  2  0  0  0  0
 12 15  2  0  0  0  0
 12 20  1  0  0  0  0
 13 16  2  0  0  0  0
 13 25  1  0  0  0  0
 14 16  1  0  0  0  0
 14 17  2  0  0  0  0
 15 24  1  0  0  0  0
 16 23  1  0  0  0  0
 17 25  1  0  0  0  0
 18 26  1  0  0  0  0
 19 28  1  0  0  0  0
 20 29  1  0  0  0  0
 21 23  1  0  0  0  0
 21 26  1  0  0  0  0
 21 27  2  0  0  0  0
 22 28  1  0  0  0  0
 24 26  1  0  0  0  0
  1 30  1  0  0  0  0
  2 31  1  0  0  0  0
  3 32  1  0  0  0  0
  4 33  1  0  0  0  0
  5 34  1  0  0  0  0
  6 35  1  0  0  0  0
  7 36  1  0  0  0  0
  8 37  1  0  0  0  0
  9 38  1  0  0  0  0
 10 39  1  0  0  0  0
 11 40  1  0  0  0  0
 12 41  1  0  0  0  0
 13 42  1  0  0  0  0
 22 43  1  0  0  0  0
 22 44  1  0  0  0  0
 22 45  1  0  0  0  0
 23 46  1  0  0  0  0
 23 47  1  0  0  0  0
 24 48  1  0  0  0  0
 24 49  1  0  0  0  0
 25 50  1  0  0  0  0
M  END
> <clash_score>
0

> <docking_score>
-7.523810386657715

> <overlap_score>
0.9730233550071716

$$$$
BENZO_467_1
  -OEChem-08222022203D

 50 53  0     0  0  0  0  0  0999 V2000
    4.2750    1.7050   20.8490 C   0  0  0  0  0  0  0  0  0  0  0  0
    3.9160    2.0630   19.5520 C   0  0  0  0  0  0  0  0  0  0  0  0
    5.4210    0.9600   21.0930 C   0  0  0  0  0  0  0  0  0  0  0  0
    4.6890    1.6810   18.4640 C   0  0  0  0  0  0  0  0  0  0  0  0
    9.0720   -1.1280   24.8640 C   0  0  0  0  0  0  0  0  0  0  0  0
    9.7200   -2.2600   22.8630 C   0  0  0  0  0  0  0  0  0  0  0  0
    8.9960   -2.3380   25.5320 C   0  0  0  0  0  0  0  0  0  0  0  0
    9.6730   -3.4710   23.5300 C   0  0  0  0  0  0  0  0  0  0  0  0
   12.2914    2.2071   23.0512 C   0  0  0  0  0  0  0  0  0  0  0  0
    7.6390   -0.2680   18.5410 C   0  0  0  0  0  0  0  0  0  0  0  0
   12.1614    0.6214   24.5689 C   0  0  0  0  0  0  0  0  0  0  0  0
    6.1790    0.5730   19.9990 C   0  0  0  0  0  0  0  0  0  0  0  0
   11.3794    1.3761   23.7290 C   0  0  0  0  0  0  0  0  0  0  0  0
    7.3170   -0.1610   19.8550 C   0  0  0  0  0  0  0  0  0  0  0  0
    5.8300    0.9190   18.6970 C   0  0  0  0  0  0  0  0  0  0  0  0
    9.3350   -1.0880   23.5010 C   0  0  0  0  0  0  0  0  0  0  0  0
    9.3070   -3.5340   24.8780 C   0  0  0  0  0  0  0  0  0  0  0  0
    9.0420    0.3700   21.5280 C   0  0  0  0  0  0  0  0  0  0  0  0
   14.6267    0.5248   25.0067 C   0  0  0  0  0  0  0  0  0  0  0  0
    8.8720   -4.6805   26.9013 C   0  0  0  0  0  0  0  0  0  0  0  0
    8.1890   -0.7180   20.8700 C   0  0  0  0  0  0  0  0  0  0  0  0
    9.8870    1.3260   23.5730 C   0  0  0  0  0  0  0  0  0  0  0  0
   13.5560    2.0002   23.4280 N   0  0  0  0  0  0  0  0  0  0  0  0
    6.7580    0.3810   17.8350 N   0  0  0  0  0  0  0  0  0  0  0  0
   13.4442    1.0306   24.3518 N   0  0  0  0  0  0  0  0  0  0  0  0
    9.4560    0.1560   22.8130 N   0  0  0  0  0  0  0  0  0  0  0  0
    9.2690    1.4140   20.9380 O   0  0  0  0  0  0  0  0  0  0  0  0
    9.2555   -4.7124   25.5274 O   0  0  0  0  0  0  0  0  0  0  0  0
    3.6455    2.0160   21.6826 H   0  0  0  0  0  0  0  0  0  0  0  0
    3.0144    2.6518   19.3914 H   0  0  0  0  0  0  0  0  0  0  0  0
    5.6994    0.6999   22.1043 H   0  0  0  0  0  0  0  0  0  0  0  0
    4.4044    1.9727   17.4490 H   0  0  0  0  0  0  0  0  0  0  0  0
    8.9221   -0.1995   25.4231 H   0  0  0  0  0  0  0  0  0  0  0  0
   10.0642   -2.2347   21.8253 H   0  0  0  0  0  0  0  0  0  0  0  0
    8.6902   -2.3588   26.5805 H   0  0  0  0  0  0  0  0  0  0  0  0
    9.9254   -4.3921   22.9961 H   0  0  0  0  0  0  0  0  0  0  0  0
   12.0895    2.9562   22.2987 H   0  0  0  0  0  0  0  0  0  0  0  0
    8.4839   -0.7930   18.0639 H   0  0  0  0  0  0  0  0  0  0  0  0
   11.9201   -0.1518   25.2857 H   0  0  0  0  0  0  0  0  0  0  0  0
   15.0068   -0.3132   24.4165 H   0  0  0  0  0  0  0  0  0  0  0  0
   15.3758    1.3189   25.0699 H   0  0  0  0  0  0  0  0  0  0  0  0
   14.3675    0.1958   26.0170 H   0  0  0  0  0  0  0  0  0  0  0  0
    8.8711   -5.6964   27.3038 H   0  0  0  0  0  0  0  0  0  0  0  0
    7.8758   -4.2402   26.9923 H   0  0  0  0  0  0  0  0  0  0  0  0
    9.5894   -4.0716   27.4566 H   0  0  0  0  0  0  0  0  0  0  0  0
    7.6077   -1.2085   21.6613 H   0  0  0  0  0  0  0  0  0  0  0  0
    8.8716   -1.4650   20.4448 H   0  0  0  0  0  0  0  0  0  0  0  0
    9.3974    1.2912   24.5523 H   0  0  0  0  0  0  0  0  0  0  0  0
    9.5159    2.2168   23.0553 H   0  0  0  0  0  0  0  0  0  0  0  0
    6.7270    0.4925   16.8305 H   0  0  0  0  0  0  0  0  0  0  0  0
  1  2  1  0  0  0  0
  1  3  2  0  0  0  0
  2  4  2  0  0  0  0
  3 12  1  0  0  0  0
  4 15  1  0  0  0  0
  5  7  2  0  0  0  0
  5 16  1  0  0  0  0
  6  8  1  0  0  0  0
  6 16  2  0  0  0  0
  7 17  1  0  0  0  0
  8 17  2  0  0  0  0
  9 13  1  0  0  0  0
  9 23  2  0  0  0  0
 10 14  2  0  0  0  0
 10 24  1  0  0  0  0
 11 13  2  0  0  0  0
 11 25  1  0  0  0  0
 12 14  1  0  0  0  0
 12 15  2  0  0  0  0
 13 22  1  0  0  0  0
 14 21  1  0  0  0  0
 15 24  1  0  0  0  0
 16 26  1  0  0  0  0
 17 28  1  0  0  0  0
 18 21  1  0  0  0  0
 18 26  1  0  0  0  0
 18 27  2  0  0  0  0
 19 25  1  0  0  0  0
 20 28  1  0  0  0  0
 22 26  1  0  0  0  0
 23 25  1  0  0  0  0
  1 29  1  0  0  0  0
  2 30  1  0  0  0  0
  3 31  1  0  0  0  0
  4 32  1  0  0  0  0
  5 33  1  0  0  0  0
  6 34  1  0  0  0  0
  7 35  1  0  0  0  0
  8 36  1  0  0  0  0
  9 37  1  0  0  0  0
 10 38  1  0  0  0  0
 11 39  1  0  0  0  0
 19 40  1  0  0  0  0
 19 41  1  0  0  0  0
 19 42  1  0  0  0  0
 20 43  1  0  0  0  0
 20 44  1  0  0  0  0
 20 45  1  0  0  0  0
 21 46  1  0  0  0  0
 21 47  1  0  0  0  0
 22 48  1  0  0  0  0
 22 49  1  0  0  0  0
 24 50  1  0  0  0  0
M  END
> <clash_score>
0.6199419867946427

> <docking_score>
-8.094833374023438

> <overlap_score>
0.9605906009674072

$$$$
BENZO_469_1
  -OEChem-08222022203D

 60 64  0     0  0  0  0  0  0999 V2000
   14.1526    1.4694   24.0176 C   0  0  0  0  0  0  0  0  0  0  0  0
    4.2750    1.7050   20.8490 C   0  0  0  0  0  0  0  0  0  0  0  0
   13.3741    0.8121   24.9701 C   0  0  0  0  0  0  0  0  0  0  0  0
   13.5446    2.0802   22.9208 C   0  0  0  0  0  0  0  0  0  0  0  0
    3.9160    2.0630   19.5520 C   0  0  0  0  0  0  0  0  0  0  0  0
    5.4210    0.9600   21.0930 C   0  0  0  0  0  0  0  0  0  0  0  0
   11.9875    0.7654   24.8258 C   0  0  0  0  0  0  0  0  0  0  0  0
   12.1580    2.0335   22.7765 C   0  0  0  0  0  0  0  0  0  0  0  0
    4.6890    1.6810   18.4640 C   0  0  0  0  0  0  0  0  0  0  0  0
    8.9960   -2.3380   25.5320 C   0  0  0  0  0  0  0  0  0  0  0  0
    9.6730   -3.4710   23.5300 C   0  0  0  0  0  0  0  0  0  0  0  0
    9.0720   -1.1280   24.8640 C   0  0  0  0  0  0  0  0  0  0  0  0
    9.7200   -2.2600   22.8630 C   0  0  0  0  0  0  0  0  0  0  0  0
    7.6390   -0.2680   18.5410 C   0  0  0  0  0  0  0  0  0  0  0  0
    6.1790    0.5730   19.9990 C   0  0  0  0  0  0  0  0  0  0  0  0
   11.3794    1.3761   23.7290 C   0  0  0  0  0  0  0  0  0  0  0  0
    7.3170   -0.1610   19.8550 C   0  0  0  0  0  0  0  0  0  0  0  0
    5.8300    0.9190   18.6970 C   0  0  0  0  0  0  0  0  0  0  0  0
    9.3070   -3.5340   24.8780 C   0  0  0  0  0  0  0  0  0  0  0  0
    9.3350   -1.0880   23.5010 C   0  0  0  0  0  0  0  0  0  0  0  0
    8.3597   -5.0072   26.6307 C   0  0  0  0  0  0  0  0  0  0  0  0
    9.0420    0.3700   21.5280 C   0  0  0  0  0  0  0  0  0  0  0  0
    8.4719   -6.3980   27.2297 C   0  0  0  0  0  0  0  0  0  0  0  0
    9.9251   -6.7605   27.4804 C   0  0  0  0  0  0  0  0  0  0  0  0
   10.7833   -6.6094   26.2282 C   0  0  0  0  0  0  0  0  0  0  0  0
   10.0539   -5.9100   25.0823 C   0  0  0  0  0  0  0  0  0  0  0  0
    8.1890   -0.7180   20.8700 C   0  0  0  0  0  0  0  0  0  0  0  0
    9.8870    1.3260   23.5730 C   0  0  0  0  0  0  0  0  0  0  0  0
    6.7580    0.3810   17.8350 N   0  0  0  0  0  0  0  0  0  0  0  0
    9.2530   -4.7797   25.5644 N   0  0  0  0  0  0  0  0  0  0  0  0
    9.4560    0.1560   22.8130 N   0  0  0  0  0  0  0  0  0  0  0  0
    7.4954   -4.2355   27.0449 O   0  0  0  0  0  0  0  0  0  0  0  0
    9.2690    1.4140   20.9380 O   0  0  0  0  0  0  0  0  0  0  0  0
   15.2322    1.5068   24.1308 H   0  0  0  0  0  0  0  0  0  0  0  0
    3.6455    2.0160   21.6826 H   0  0  0  0  0  0  0  0  0  0  0  0
   13.8473    0.3374   25.8248 H   0  0  0  0  0  0  0  0  0  0  0  0
   14.1503    2.5930   22.1795 H   0  0  0  0  0  0  0  0  0  0  0  0
    3.0144    2.6518   19.3914 H   0  0  0  0  0  0  0  0  0  0  0  0
    5.6994    0.6999   22.1043 H   0  0  0  0  0  0  0  0  0  0  0  0
   11.3889    0.2508   25.5729 H   0  0  0  0  0  0  0  0  0  0  0  0
   11.6930    2.5120   21.9187 H   0  0  0  0  0  0  0  0  0  0  0  0
    4.4044    1.9727   17.4490 H   0  0  0  0  0  0  0  0  0  0  0  0
    8.6895   -2.3529   26.5807 H   0  0  0  0  0  0  0  0  0  0  0  0
    9.9262   -4.3897   22.9916 H   0  0  0  0  0  0  0  0  0  0  0  0
    8.9224   -0.1998   25.4238 H   0  0  0  0  0  0  0  0  0  0  0  0
   10.0649   -2.2343   21.8258 H   0  0  0  0  0  0  0  0  0  0  0  0
    8.4839   -0.7930   18.0639 H   0  0  0  0  0  0  0  0  0  0  0  0
    7.9324   -6.4147   28.1641 H   0  0  0  0  0  0  0  0  0  0  0  0
    8.0253   -7.0920   26.5333 H   0  0  0  0  0  0  0  0  0  0  0  0
   10.3386   -6.1266   28.2923 H   0  0  0  0  0  0  0  0  0  0  0  0
    9.9903   -7.8023   27.8538 H   0  0  0  0  0  0  0  0  0  0  0  0
   11.7036   -6.0405   26.4772 H   0  0  0  0  0  0  0  0  0  0  0  0
   11.1410   -7.6068   25.8920 H   0  0  0  0  0  0  0  0  0  0  0  0
   10.7782   -5.5173   24.3764 H   0  0  0  0  0  0  0  0  0  0  0  0
    9.4030   -6.6182   24.5832 H   0  0  0  0  0  0  0  0  0  0  0  0
    7.6077   -1.2085   21.6613 H   0  0  0  0  0  0  0  0  0  0  0  0
    8.8716   -1.4650   20.4448 H   0  0  0  0  0  0  0  0  0  0  0  0
    9.3974    1.2912   24.5523 H   0  0  0  0  0  0  0  0  0  0  0  0
    9.5159    2.2168   23.0553 H   0  0  0  0  0  0  0  0  0  0  0  0
    6.7270    0.4925   16.8305 H   0  0  0  0  0  0  0  0  0  0  0  0
  1  3  1  0  0  0  0
  1  4  2  0  0  0  0
  2  5  1  0  0  0  0
  2  6  2  0  0  0  0
  3  7  2  0  0  0  0
  4  8  1  0  0  0  0
  5  9  2  0  0  0  0
  6 15  1  0  0  0  0
  7 16  1  0  0  0  0
  8 16  2  0  0  0  0
  9 18  1  0  0  0  0
 10 12  2  0  0  0  0
 10 19  1  0  0  0  0
 11 13  1  0  0  0  0
 11 19  2  0  0  0  0
 12 20  1  0  0  0  0
 13 20  2  0  0  0  0
 14 17  2  0  0  0  0
 14 29  1  0  0  0  0
 15 17  1  0  0  0  0
 15 18  2  0  0  0  0
 16 28  1  0  0  0  0
 17 27  1  0  0  0  0
 18 29  1  0  0  0  0
 19 30  1  0  0  0  0
 20 31  1  0  0  0  0
 21 23  1  0  0  0  0
 21 30  1  0  0  0  0
 21 32  2  0  0  0  0
 22 27  1  0  0  0  0
 22 31  1  0  0  0  0
 22 33  2  0  0  0  0
 23 24  1  0  0  0  0
 24 25  1  0  0  0  0
 25 26  1  0  0  0  0
 26 30  1  0  0  0  0
 28 31  1  0  0  0  0
  1 34  1  0  0  0  0
  2 35  1  0  0  0  0
  3 36  1  0  0  0  0
  4 37  1  0  0  0  0
  5 38  1  0  0  0  0
  6 39  1  0  0  0  0
  7 40  1  0  0  0  0
  8 41  1  0  0  0  0
  9 42  1  0  0  0  0
 10 43  1  0  0  0  0
 11 44  1  0  0  0  0
 12 45  1  0  0  0  0
 13 46  1  0  0  0  0
 14 47  1  0  0  0  0
 23 48  1  0  0  0  0
 23 49  1  0  0  0  0
 24 50  1  0  0  0  0
 24 51  1  0  0  0  0
 25 52  1  0  0  0  0
 25 53  1  0  0  0  0
 26 54  1  0  0  0  0
 26 55  1  0  0  0  0
 27 56  1  0  0  0  0
 27 57  1  0  0  0  0
 28 58  1  0  0  0  0
 28 59  1  0  0  0  0
 29 60  1  0  0  0  0
M  END
> <clash_score>
0.7790617508365236

> <docking_score>
-7.746552467346191

> <overlap_score>
1.0041025876998901

$$$$
BENZO_468_1
  -OEChem-08222022203D

 57 61  0     0  0  0  0  0  0999 V2000
    4.2750    1.7050   20.8490 C   0  0  0  0  0  0  0  0  0  0  0  0
    3.9160    2.0630   19.5520 C   0  0  0  0  0  0  0  0  0  0  0  0
    5.4210    0.9600   21.0930 C   0  0  0  0  0  0  0  0  0  0  0  0
    4.6890    1.6810   18.4640 C   0  0  0  0  0  0  0  0  0  0  0  0
    8.9960   -2.3380   25.5320 C   0  0  0  0  0  0  0  0  0  0  0  0
    9.6730   -3.4710   23.5300 C   0  0  0  0  0  0  0  0  0  0  0  0
    9.0720   -1.1280   24.8640 C   0  0  0  0  0  0  0  0  0  0  0  0
    9.7200   -2.2600   22.8630 C   0  0  0  0  0  0  0  0  0  0  0  0
   12.2913    1.4279   22.6355 C   0  0  0  0  0  0  0  0  0  0  0  0
    7.6390   -0.2680   18.5410 C   0  0  0  0  0  0  0  0  0  0  0  0
   13.6024    1.4662   23.0564 C   0  0  0  0  0  0  0  0  0  0  0  0
   12.0284    1.3764   24.9443 C   0  0  0  0  0  0  0  0  0  0  0  0
    6.1790    0.5730   19.9990 C   0  0  0  0  0  0  0  0  0  0  0  0
   11.3794    1.3761   23.7290 C   0  0  0  0  0  0  0  0  0  0  0  0
    7.3170   -0.1610   19.8550 C   0  0  0  0  0  0  0  0  0  0  0  0
    5.8300    0.9190   18.6970 C   0  0  0  0  0  0  0  0  0  0  0  0
    9.3070   -3.5340   24.8780 C   0  0  0  0  0  0  0  0  0  0  0  0
    9.3350   -1.0880   23.5010 C   0  0  0  0  0  0  0  0  0  0  0  0
    8.3596   -5.0073   26.6308 C   0  0  0  0  0  0  0  0  0  0  0  0
    9.0420    0.3700   21.5280 C   0  0  0  0  0  0  0  0  0  0  0  0
    8.4579   -6.4046   27.2169 C   0  0  0  0  0  0  0  0  0  0  0  0
    8.4717   -7.4504   26.1160 C   0  0  0  0  0  0  0  0  0  0  0  0
    9.5645   -7.1893   25.0843 C   0  0  0  0  0  0  0  0  0  0  0  0
   10.2327   -5.8252   25.2502 C   0  0  0  0  0  0  0  0  0  0  0  0
    8.1890   -0.7180   20.8700 C   0  0  0  0  0  0  0  0  0  0  0  0
    9.8870    1.3260   23.5730 C   0  0  0  0  0  0  0  0  0  0  0  0
    6.7580    0.3810   17.8350 N   0  0  0  0  0  0  0  0  0  0  0  0
    9.2529   -4.7798   25.5645 N   0  0  0  0  0  0  0  0  0  0  0  0
    9.4560    0.1560   22.8130 N   0  0  0  0  0  0  0  0  0  0  0  0
    7.5990   -4.1865   27.1424 O   0  0  0  0  0  0  0  0  0  0  0  0
    9.2690    1.4140   20.9380 O   0  0  0  0  0  0  0  0  0  0  0  0
   13.7301    1.4394   24.7638 S   0  0  0  0  0  0  0  0  0  0  0  0
    3.6455    2.0160   21.6826 H   0  0  0  0  0  0  0  0  0  0  0  0
    3.0144    2.6518   19.3914 H   0  0  0  0  0  0  0  0  0  0  0  0
    5.6994    0.6999   22.1043 H   0  0  0  0  0  0  0  0  0  0  0  0
    4.4044    1.9727   17.4490 H   0  0  0  0  0  0  0  0  0  0  0  0
    8.6895   -2.3529   26.5807 H   0  0  0  0  0  0  0  0  0  0  0  0
    9.9262   -4.3897   22.9916 H   0  0  0  0  0  0  0  0  0  0  0  0
    8.9224   -0.1998   25.4238 H   0  0  0  0  0  0  0  0  0  0  0  0
   10.0649   -2.2343   21.8258 H   0  0  0  0  0  0  0  0  0  0  0  0
   12.0045    1.4365   21.5915 H   0  0  0  0  0  0  0  0  0  0  0  0
    8.4839   -0.7930   18.0639 H   0  0  0  0  0  0  0  0  0  0  0  0
   14.4914    1.5078   22.4431 H   0  0  0  0  0  0  0  0  0  0  0  0
   11.5886    1.3416   25.9314 H   0  0  0  0  0  0  0  0  0  0  0  0
    9.3705   -6.4744   27.7885 H   0  0  0  0  0  0  0  0  0  0  0  0
    7.6055   -6.5496   27.8636 H   0  0  0  0  0  0  0  0  0  0  0  0
    8.6096   -8.4604   26.5551 H   0  0  0  0  0  0  0  0  0  0  0  0
    7.4835   -7.4764   25.6143 H   0  0  0  0  0  0  0  0  0  0  0  0
   10.3359   -7.9850   25.1533 H   0  0  0  0  0  0  0  0  0  0  0  0
    9.1459   -7.2796   24.0583 H   0  0  0  0  0  0  0  0  0  0  0  0
   10.9405   -5.8647   26.0716 H   0  0  0  0  0  0  0  0  0  0  0  0
   10.7494   -5.5628   24.3343 H   0  0  0  0  0  0  0  0  0  0  0  0
    7.6077   -1.2085   21.6613 H   0  0  0  0  0  0  0  0  0  0  0  0
    8.8716   -1.4650   20.4448 H   0  0  0  0  0  0  0  0  0  0  0  0
    9.3974    1.2912   24.5523 H   0  0  0  0  0  0  0  0  0  0  0  0
    9.5159    2.2168   23.0553 H   0  0  0  0  0  0  0  0  0  0  0  0
    6.7270    0.4925   16.8305 H   0  0  0  0  0  0  0  0  0  0  0  0
  1  2  1  0  0  0  0
  1  3  2  0  0  0  0
  2  4  2  0  0  0  0
  3 13  1  0  0  0  0
  4 16  1  0  0  0  0
  5  7  2  0  0  0  0
  5 17  1  0  0  0  0
  6  8  1  0  0  0  0
  6 17  2  0  0  0  0
  7 18  1  0  0  0  0
  8 18  2  0  0  0  0
  9 11  2  0  0  0  0
  9 14  1  0  0  0  0
 10 15  2  0  0  0  0
 10 27  1  0  0  0  0
 11 32  1  0  0  0  0
 12 14  2  0  0  0  0
 12 32  1  0  0  0  0
 13 15  1  0  0  0  0
 13 16  2  0  0  0  0
 14 26  1  0  0  0  0
 15 25  1  0  0  0  0
 16 27  1  0  0  0  0
 17 28  1  0  0  0  0
 18 29  1  0  0  0  0
 19 21  1  0  0  0  0
 19 28  1  0  0  0  0
 19 30  2  0  0  0  0
 20 25  1  0  0  0  0
 20 29  1  0  0  0  0
 20 31  2  0  0  0  0
 21 22  1  0  0  0  0
 22 23  1  0  0  0  0
 23 24  1  0  0  0  0
 24 28  1  0  0  0  0
 26 29  1  0  0  0  0
  1 33  1  0  0  0  0
  2 34  1  0  0  0  0
  3 35  1  0  0  0  0
  4 36  1  0  0  0  0
  5 37  1  0  0  0  0
  6 38  1  0  0  0  0
  7 39  1  0  0  0  0
  8 40  1  0  0  0  0
  9 41  1  0  0  0  0
 10 42  1  0  0  0  0
 11 43  1  0  0  0  0
 12 44  1  0  0  0  0
 21 45  1  0  0  0  0
 21 46  1  0  0  0  0
 22 47  1  0  0  0  0
 22 48  1  0  0  0  0
 23 49  1  0  0  0  0
 23 50  1  0  0  0  0
 24 51  1  0  0  0  0
 24 52  1  0  0  0  0
 25 53  1  0  0  0  0
 25 54  1  0  0  0  0
 26 55  1  0  0  0  0
 26 56  1  0  0  0  0
 27 57  1  0  0  0  0
M  END
> <clash_score>
0.6354535061896481

> <docking_score>
-7.66180419921875

> <overlap_score>
0.9877999424934387

$$$$
BENZO_473_1
  -OEChem-08222022203D

 59 63  0     0  0  0  0  0  0999 V2000
   14.1526    1.4694   24.0176 C   0  0  0  0  0  0  0  0  0  0  0  0
    4.2750    1.7050   20.8490 C   0  0  0  0  0  0  0  0  0  0  0  0
   13.3741    0.8121   24.9701 C   0  0  0  0  0  0  0  0  0  0  0  0
   13.5446    2.0802   22.9208 C   0  0  0  0  0  0  0  0  0  0  0  0
    3.9160    2.0630   19.5520 C   0  0  0  0  0  0  0  0  0  0  0  0
    5.4210    0.9600   21.0930 C   0  0  0  0  0  0  0  0  0  0  0  0
   11.9875    0.7654   24.8258 C   0  0  0  0  0  0  0  0  0  0  0  0
   12.1580    2.0335   22.7765 C   0  0  0  0  0  0  0  0  0  0  0  0
    4.6890    1.6810   18.4640 C   0  0  0  0  0  0  0  0  0  0  0  0
    8.9960   -2.3380   25.5320 C   0  0  0  0  0  0  0  0  0  0  0  0
    9.6730   -3.4710   23.5300 C   0  0  0  0  0  0  0  0  0  0  0  0
    9.0720   -1.1280   24.8640 C   0  0  0  0  0  0  0  0  0  0  0  0
    9.7200   -2.2600   22.8630 C   0  0  0  0  0  0  0  0  0  0  0  0
    7.6390   -0.2680   18.5410 C   0  0  0  0  0  0  0  0  0  0  0  0
    6.1790    0.5730   19.9990 C   0  0  0  0  0  0  0  0  0  0  0  0
   11.3794    1.3761   23.7290 C   0  0  0  0  0  0  0  0  0  0  0  0
    7.3170   -0.1610   19.8550 C   0  0  0  0  0  0  0  0  0  0  0  0
    5.8300    0.9190   18.6970 C   0  0  0  0  0  0  0  0  0  0  0  0
    9.3070   -3.5340   24.8780 C   0  0  0  0  0  0  0  0  0  0  0  0
    9.3350   -1.0880   23.5010 C   0  0  0  0  0  0  0  0  0  0  0  0
    9.0420    0.3700   21.5280 C   0  0  0  0  0  0  0  0  0  0  0  0
   10.0771   -5.0255   26.7193 C   0  0  0  0  0  0  0  0  0  0  0  0
    8.0926   -5.6195   25.4071 C   0  0  0  0  0  0  0  0  0  0  0  0
    9.1933   -4.9427   27.9592 C   0  0  0  0  0  0  0  0  0  0  0  0
    7.2756   -5.5290   26.6968 C   0  0  0  0  0  0  0  0  0  0  0  0
    8.1890   -0.7180   20.8700 C   0  0  0  0  0  0  0  0  0  0  0  0
    9.8870    1.3260   23.5730 C   0  0  0  0  0  0  0  0  0  0  0  0
    6.7580    0.3810   17.8350 N   0  0  0  0  0  0  0  0  0  0  0  0
    9.2563   -4.7368   25.5413 N   0  0  0  0  0  0  0  0  0  0  0  0
    9.4560    0.1560   22.8130 N   0  0  0  0  0  0  0  0  0  0  0  0
    9.2690    1.4140   20.9380 O   0  0  0  0  0  0  0  0  0  0  0  0
    8.0883   -5.8458   27.8325 O   0  0  0  0  0  0  0  0  0  0  0  0
   15.2322    1.5068   24.1308 H   0  0  0  0  0  0  0  0  0  0  0  0
    3.6455    2.0160   21.6826 H   0  0  0  0  0  0  0  0  0  0  0  0
   13.8473    0.3374   25.8248 H   0  0  0  0  0  0  0  0  0  0  0  0
   14.1503    2.5930   22.1795 H   0  0  0  0  0  0  0  0  0  0  0  0
    3.0144    2.6518   19.3914 H   0  0  0  0  0  0  0  0  0  0  0  0
    5.6994    0.6999   22.1043 H   0  0  0  0  0  0  0  0  0  0  0  0
   11.3889    0.2508   25.5729 H   0  0  0  0  0  0  0  0  0  0  0  0
   11.6930    2.5120   21.9187 H   0  0  0  0  0  0  0  0  0  0  0  0
    4.4044    1.9727   17.4490 H   0  0  0  0  0  0  0  0  0  0  0  0
    8.6905   -2.3533   26.5810 H   0  0  0  0  0  0  0  0  0  0  0  0
    9.9266   -4.3896   22.9917 H   0  0  0  0  0  0  0  0  0  0  0  0
    8.9233   -0.1992   25.4231 H   0  0  0  0  0  0  0  0  0  0  0  0
   10.0650   -2.2330   21.8256 H   0  0  0  0  0  0  0  0  0  0  0  0
    8.4839   -0.7930   18.0639 H   0  0  0  0  0  0  0  0  0  0  0  0
   10.9045   -4.3143   26.8097 H   0  0  0  0  0  0  0  0  0  0  0  0
   10.4942   -6.0352   26.6309 H   0  0  0  0  0  0  0  0  0  0  0  0
    8.4337   -6.6479   25.2595 H   0  0  0  0  0  0  0  0  0  0  0  0
    7.4706   -5.3291   24.5580 H   0  0  0  0  0  0  0  0  0  0  0  0
    9.7636   -5.2397   28.8419 H   0  0  0  0  0  0  0  0  0  0  0  0
    8.8237   -3.9268   28.1248 H   0  0  0  0  0  0  0  0  0  0  0  0
    6.8339   -4.5336   26.8232 H   0  0  0  0  0  0  0  0  0  0  0  0
    6.4550   -6.2521   26.6644 H   0  0  0  0  0  0  0  0  0  0  0  0
    7.6077   -1.2085   21.6613 H   0  0  0  0  0  0  0  0  0  0  0  0
    8.8716   -1.4650   20.4448 H   0  0  0  0  0  0  0  0  0  0  0  0
    9.3974    1.2912   24.5523 H   0  0  0  0  0  0  0  0  0  0  0  0
    9.5159    2.2168   23.0554 H   0  0  0  0  0  0  0  0  0  0  0  0
    6.7270    0.4925   16.8305 H   0  0  0  0  0  0  0  0  0  0  0  0
  1  3  1  0  0  0  0
  1  4  2  0  0  0  0
  2  5  1  0  0  0  0
  2  6  2  0  0  0  0
  3  7  2  0  0  0  0
  4  8  1  0  0  0  0
  5  9  2  0  0  0  0
  6 15  1  0  0  0  0
  7 16  1  0  0  0  0
  8 16  2  0  0  0  0
  9 18  1  0  0  0  0
 10 12  2  0  0  0  0
 10 19  1  0  0  0  0
 11 13  1  0  0  0  0
 11 19  2  0  0  0  0
 12 20  1  0  0  0  0
 13 20  2  0  0  0  0
 14 17  2  0  0  0  0
 14 28  1  0  0  0  0
 15 17  1  0  0  0  0
 15 18  2  0  0  0  0
 16 27  1  0  0  0  0
 17 26  1  0  0  0  0
 18 28  1  0  0  0  0
 19 29  1  0  0  0  0
 20 30  1  0  0  0  0
 21 26  1  0  0  0  0
 21 30  1  0  0  0  0
 21 31  2  0  0  0  0
 22 24  1  0  0  0  0
 22 29  1  0  0  0  0
 23 25  1  0  0  0  0
 23 29  1  0  0  0  0
 24 32  1  0  0  0  0
 25 32  1  0  0  0  0
 27 30  1  0  0  0  0
  1 33  1  0  0  0  0
  2 34  1  0  0  0  0
  3 35  1  0  0  0  0
  4 36  1  0  0  0  0
  5 37  1  0  0  0  0
  6 38  1  0  0  0  0
  7 39  1  0  0  0  0
  8 40  1  0  0  0  0
  9 41  1  0  0  0  0
 10 42  1  0  0  0  0
 11 43  1  0  0  0  0
 12 44  1  0  0  0  0
 13 45  1  0  0  0  0
 14 46  1  0  0  0  0
 22 47  1  0  0  0  0
 22 48  1  0  0  0  0
 23 49  1  0  0  0  0
 23 50  1  0  0  0  0
 24 51  1  0  0  0  0
 24 52  1  0  0  0  0
 25 53  1  0  0  0  0
 25 54  1  0  0  0  0
 26 55  1  0  0  0  0
 26 56  1  0  0  0  0
 27 57  1  0  0  0  0
 27 58  1  0  0  0  0
 28 59  1  0  0  0  0
M  END
> <clash_score>
0

> <docking_score>
-8.727516174316406

> <overlap_score>
0.9903324246406555

$$$$
BENZO_470_1
  -OEChem-08222022203D

 60 64  0     0  0  0  0  0  0999 V2000
    4.2750    1.7050   20.8490 C   0  0  0  0  0  0  0  0  0  0  0  0
    3.9160    2.0630   19.5520 C   0  0  0  0  0  0  0  0  0  0  0  0
   13.4007    0.5725   24.7805 C   0  0  0  0  0  0  0  0  0  0  0  0
    5.4210    0.9600   21.0930 C   0  0  0  0  0  0  0  0  0  0  0  0
   12.0141    0.5273   24.6359 C   0  0  0  0  0  0  0  0  0  0  0  0
    4.6890    1.6810   18.4640 C   0  0  0  0  0  0  0  0  0  0  0  0
    8.9960   -2.3380   25.5320 C   0  0  0  0  0  0  0  0  0  0  0  0
    9.6730   -3.4710   23.5300 C   0  0  0  0  0  0  0  0  0  0  0  0
    9.0720   -1.1280   24.8640 C   0  0  0  0  0  0  0  0  0  0  0  0
    9.7200   -2.2600   22.8630 C   0  0  0  0  0  0  0  0  0  0  0  0
   14.1526    1.4666   24.0184 C   0  0  0  0  0  0  0  0  0  0  0  0
   12.1314    2.2702   22.9668 C   0  0  0  0  0  0  0  0  0  0  0  0
    7.6390   -0.2680   18.5410 C   0  0  0  0  0  0  0  0  0  0  0  0
    6.1790    0.5730   19.9990 C   0  0  0  0  0  0  0  0  0  0  0  0
   11.3794    1.3761   23.7290 C   0  0  0  0  0  0  0  0  0  0  0  0
    7.3170   -0.1610   19.8550 C   0  0  0  0  0  0  0  0  0  0  0  0
    5.8300    0.9190   18.6970 C   0  0  0  0  0  0  0  0  0  0  0  0
    9.3070   -3.5340   24.8780 C   0  0  0  0  0  0  0  0  0  0  0  0
    9.3350   -1.0880   23.5010 C   0  0  0  0  0  0  0  0  0  0  0  0
   13.5180    2.3154   23.1115 C   0  0  0  0  0  0  0  0  0  0  0  0
    8.3597   -5.0072   26.6307 C   0  0  0  0  0  0  0  0  0  0  0  0
    9.0420    0.3700   21.5280 C   0  0  0  0  0  0  0  0  0  0  0  0
    8.4719   -6.3980   27.2297 C   0  0  0  0  0  0  0  0  0  0  0  0
    9.9251   -6.7605   27.4804 C   0  0  0  0  0  0  0  0  0  0  0  0
   10.7833   -6.6094   26.2282 C   0  0  0  0  0  0  0  0  0  0  0  0
   10.0539   -5.9100   25.0823 C   0  0  0  0  0  0  0  0  0  0  0  0
    8.1890   -0.7180   20.8700 C   0  0  0  0  0  0  0  0  0  0  0  0
    9.8870    1.3260   23.5730 C   0  0  0  0  0  0  0  0  0  0  0  0
    6.7580    0.3810   17.8350 N   0  0  0  0  0  0  0  0  0  0  0  0
    9.2530   -4.7797   25.5644 N   0  0  0  0  0  0  0  0  0  0  0  0
    9.4560    0.1560   22.8130 N   0  0  0  0  0  0  0  0  0  0  0  0
    7.4954   -4.2355   27.0449 O   0  0  0  0  0  0  0  0  0  0  0  0
    9.2690    1.4140   20.9380 O   0  0  0  0  0  0  0  0  0  0  0  0
   14.4463    3.4175   22.1707 Cl  0  0  0  0  0  0  0  0  0  0  0  0
    3.6455    2.0160   21.6826 H   0  0  0  0  0  0  0  0  0  0  0  0
    3.0144    2.6518   19.3914 H   0  0  0  0  0  0  0  0  0  0  0  0
   13.8945   -0.0888   25.4867 H   0  0  0  0  0  0  0  0  0  0  0  0
    5.6994    0.6999   22.1043 H   0  0  0  0  0  0  0  0  0  0  0  0
   11.4361   -0.1726   25.2338 H   0  0  0  0  0  0  0  0  0  0  0  0
    4.4044    1.9727   17.4490 H   0  0  0  0  0  0  0  0  0  0  0  0
    8.6895   -2.3529   26.5807 H   0  0  0  0  0  0  0  0  0  0  0  0
    9.9262   -4.3897   22.9916 H   0  0  0  0  0  0  0  0  0  0  0  0
    8.9224   -0.1998   25.4238 H   0  0  0  0  0  0  0  0  0  0  0  0
   10.0649   -2.2343   21.8258 H   0  0  0  0  0  0  0  0  0  0  0  0
   15.2326    1.4907   24.1414 H   0  0  0  0  0  0  0  0  0  0  0  0
   11.6318    2.9303   22.2615 H   0  0  0  0  0  0  0  0  0  0  0  0
    8.4839   -0.7930   18.0639 H   0  0  0  0  0  0  0  0  0  0  0  0
    7.9324   -6.4147   28.1641 H   0  0  0  0  0  0  0  0  0  0  0  0
    8.0253   -7.0920   26.5333 H   0  0  0  0  0  0  0  0  0  0  0  0
   10.3386   -6.1266   28.2923 H   0  0  0  0  0  0  0  0  0  0  0  0
    9.9903   -7.8023   27.8538 H   0  0  0  0  0  0  0  0  0  0  0  0
   11.7036   -6.0405   26.4772 H   0  0  0  0  0  0  0  0  0  0  0  0
   11.1410   -7.6068   25.8920 H   0  0  0  0  0  0  0  0  0  0  0  0
   10.7782   -5.5173   24.3764 H   0  0  0  0  0  0  0  0  0  0  0  0
    9.4030   -6.6182   24.5832 H   0  0  0  0  0  0  0  0  0  0  0  0
    7.6077   -1.2085   21.6613 H   0  0  0  0  0  0  0  0  0  0  0  0
    8.8716   -1.4650   20.4448 H   0  0  0  0  0  0  0  0  0  0  0  0
    9.3974    1.2912   24.5523 H   0  0  0  0  0  0  0  0  0  0  0  0
    9.5159    2.2168   23.0553 H   0  0  0  0  0  0  0  0  0  0  0  0
    6.7270    0.4925   16.8305 H   0  0  0  0  0  0  0  0  0  0  0  0
  1  2  1  0  0  0  0
  1  4  2  0  0  0  0
  2  6  2  0  0  0  0
  3  5  2  0  0  0  0
  3 11  1  0  0  0  0
  4 14  1  0  0  0  0
  5 15  1  0  0  0  0
  6 17  1  0  0  0  0
  7  9  2  0  0  0  0
  7 18  1  0  0  0  0
  8 10  1  0  0  0  0
  8 18  2  0  0  0  0
  9 19  1  0  0  0  0
 10 19  2  0  0  0  0
 11 20  2  0  0  0  0
 12 15  2  0  0  0  0
 12 20  1  0  0  0  0
 13 16  2  0  0  0  0
 13 29  1  0  0  0  0
 14 16  1  0  0  0  0
 14 17  2  0  0  0  0
 15 28  1  0  0  0  0
 16 27  1  0  0  0  0
 17 29  1  0  0  0  0
 18 30  1  0  0  0  0
 19 31  1  0  0  0  0
 20 34  1  0  0  0  0
 21 23  1  0  0  0  0
 21 30  1  0  0  0  0
 21 32  2  0  0  0  0
 22 27  1  0  0  0  0
 22 31  1  0  0  0  0
 22 33  2  0  0  0  0
 23 24  1  0  0  0  0
 24 25  1  0  0  0  0
 25 26  1  0  0  0  0
 26 30  1  0  0  0  0
 28 31  1  0  0  0  0
  1 35  1  0  0  0  0
  2 36  1  0  0  0  0
  3 37  1  0  0  0  0
  4 38  1  0  0  0  0
  5 39  1  0  0  0  0
  6 40  1  0  0  0  0
  7 41  1  0  0  0  0
  8 42  1  0  0  0  0
  9 43  1  0  0  0  0
 10 44  1  0  0  0  0
 11 45  1  0  0  0  0
 12 46  1  0  0  0  0
 13 47  1  0  0  0  0
 23 48  1  0  0  0  0
 23 49  1  0  0  0  0
 24 50  1  0  0  0  0
 24 51  1  0  0  0  0
 25 52  1  0  0  0  0
 25 53  1  0  0  0  0
 26 54  1  0  0  0  0
 26 55  1  0  0  0  0
 27 56  1  0  0  0  0
 27 57  1  0  0  0  0
 28 58  1  0  0  0  0
 28 59  1  0  0  0  0
 29 60  1  0  0  0  0
M  END
> <clash_score>
0.7790617508365236

> <docking_score>
-6.883512496948242

> <overlap_score>
1.0151578187942505

$$$$
BENZO_471_1
  -OEChem-08222022203D

 60 64  0     0  0  0  0  0  0999 V2000
    4.2750    1.7050   20.8490 C   0  0  0  0  0  0  0  0  0  0  0  0
    3.9160    2.0630   19.5520 C   0  0  0  0  0  0  0  0  0  0  0  0
    5.4210    0.9600   21.0930 C   0  0  0  0  0  0  0  0  0  0  0  0
    4.6890    1.6810   18.4640 C   0  0  0  0  0  0  0  0  0  0  0  0
    8.9960   -2.3380   25.5320 C   0  0  0  0  0  0  0  0  0  0  0  0
    9.6730   -3.4710   23.5300 C   0  0  0  0  0  0  0  0  0  0  0  0
    9.0720   -1.1280   24.8640 C   0  0  0  0  0  0  0  0  0  0  0  0
    9.7200   -2.2600   22.8630 C   0  0  0  0  0  0  0  0  0  0  0  0
   12.1233    1.3811   24.9242 C   0  0  0  0  0  0  0  0  0  0  0  0
    7.6390   -0.2680   18.5410 C   0  0  0  0  0  0  0  0  0  0  0  0
   12.3262    1.4247   22.7351 C   0  0  0  0  0  0  0  0  0  0  0  0
    6.1790    0.5730   19.9990 C   0  0  0  0  0  0  0  0  0  0  0  0
   11.3794    1.3761   23.7290 C   0  0  0  0  0  0  0  0  0  0  0  0
    7.3170   -0.1610   19.8550 C   0  0  0  0  0  0  0  0  0  0  0  0
    5.8300    0.9190   18.6970 C   0  0  0  0  0  0  0  0  0  0  0  0
    9.3070   -3.5340   24.8780 C   0  0  0  0  0  0  0  0  0  0  0  0
    9.3350   -1.0880   23.5010 C   0  0  0  0  0  0  0  0  0  0  0  0
    8.3597   -5.0072   26.6307 C   0  0  0  0  0  0  0  0  0  0  0  0
    9.0420    0.3700   21.5280 C   0  0  0  0  0  0  0  0  0  0  0  0
    8.4719   -6.3980   27.2297 C   0  0  0  0  0  0  0  0  0  0  0  0
    9.9251   -6.7605   27.4804 C   0  0  0  0  0  0  0  0  0  0  0  0
   10.7833   -6.6094   26.2282 C   0  0  0  0  0  0  0  0  0  0  0  0
   10.0539   -5.9100   25.0823 C   0  0  0  0  0  0  0  0  0  0  0  0
   14.8305    1.5084   22.7418 C   0  0  0  0  0  0  0  0  0  0  0  0
    8.1890   -0.7180   20.8700 C   0  0  0  0  0  0  0  0  0  0  0  0
    9.8870    1.3260   23.5730 C   0  0  0  0  0  0  0  0  0  0  0  0
   13.4410    1.4289   24.7112 N   0  0  0  0  0  0  0  0  0  0  0  0
    6.7580    0.3810   17.8350 N   0  0  0  0  0  0  0  0  0  0  0  0
   13.5326    1.4543   23.3706 N   0  0  0  0  0  0  0  0  0  0  0  0
    9.2530   -4.7797   25.5644 N   0  0  0  0  0  0  0  0  0  0  0  0
    9.4560    0.1560   22.8130 N   0  0  0  0  0  0  0  0  0  0  0  0
    7.4954   -4.2355   27.0449 O   0  0  0  0  0  0  0  0  0  0  0  0
    9.2690    1.4140   20.9380 O   0  0  0  0  0  0  0  0  0  0  0  0
    3.6455    2.0160   21.6826 H   0  0  0  0  0  0  0  0  0  0  0  0
    3.0144    2.6518   19.3914 H   0  0  0  0  0  0  0  0  0  0  0  0
    5.6994    0.6999   22.1043 H   0  0  0  0  0  0  0  0  0  0  0  0
    4.4044    1.9727   17.4490 H   0  0  0  0  0  0  0  0  0  0  0  0
    8.6895   -2.3529   26.5807 H   0  0  0  0  0  0  0  0  0  0  0  0
    9.9262   -4.3897   22.9916 H   0  0  0  0  0  0  0  0  0  0  0  0
    8.9224   -0.1998   25.4238 H   0  0  0  0  0  0  0  0  0  0  0  0
   10.0649   -2.2343   21.8258 H   0  0  0  0  0  0  0  0  0  0  0  0
   11.7624    1.3510   25.9426 H   0  0  0  0  0  0  0  0  0  0  0  0
    8.4839   -0.7930   18.0639 H   0  0  0  0  0  0  0  0  0  0  0  0
   12.2462    1.4390   21.6566 H   0  0  0  0  0  0  0  0  0  0  0  0
    7.9324   -6.4147   28.1641 H   0  0  0  0  0  0  0  0  0  0  0  0
    8.0253   -7.0920   26.5333 H   0  0  0  0  0  0  0  0  0  0  0  0
   10.3386   -6.1266   28.2923 H   0  0  0  0  0  0  0  0  0  0  0  0
    9.9903   -7.8023   27.8538 H   0  0  0  0  0  0  0  0  0  0  0  0
   11.7036   -6.0405   26.4772 H   0  0  0  0  0  0  0  0  0  0  0  0
   11.1410   -7.6068   25.8920 H   0  0  0  0  0  0  0  0  0  0  0  0
   10.7782   -5.5173   24.3764 H   0  0  0  0  0  0  0  0  0  0  0  0
    9.4030   -6.6182   24.5832 H   0  0  0  0  0  0  0  0  0  0  0  0
   15.0990    2.5601   22.6124 H   0  0  0  0  0  0  0  0  0  0  0  0
   15.5636    1.0018   23.3756 H   0  0  0  0  0  0  0  0  0  0  0  0
   14.7841    1.0025   21.7733 H   0  0  0  0  0  0  0  0  0  0  0  0
    7.6077   -1.2085   21.6613 H   0  0  0  0  0  0  0  0  0  0  0  0
    8.8716   -1.4650   20.4448 H   0  0  0  0  0  0  0  0  0  0  0  0
    9.3974    1.2912   24.5523 H   0  0  0  0  0  0  0  0  0  0  0  0
    9.5159    2.2168   23.0553 H   0  0  0  0  0  0  0  0  0  0  0  0
    6.7270    0.4925   16.8305 H   0  0  0  0  0  0  0  0  0  0  0  0
  1  2  1  0  0  0  0
  1  3  2  0  0  0  0
  2  4  2  0  0  0  0
  3 12  1  0  0  0  0
  4 15  1  0  0  0  0
  5  7  2  0  0  0  0
  5 16  1  0  0  0  0
  6  8  1  0  0  0  0
  6 16  2  0  0  0  0
  7 17  1  0  0  0  0
  8 17  2  0  0  0  0
  9 13  1  0  0  0  0
  9 27  2  0  0  0  0
 10 14  2  0  0  0  0
 10 28  1  0  0  0  0
 11 13  2  0  0  0  0
 11 29  1  0  0  0  0
 12 14  1  0  0  0  0
 12 15  2  0  0  0  0
 13 26  1  0  0  0  0
 14 25  1  0  0  0  0
 15 28  1  0  0  0  0
 16 30  1  0  0  0  0
 17 31  1  0  0  0  0
 18 20  1  0  0  0  0
 18 30  1  0  0  0  0
 18 32  2  0  0  0  0
 19 25  1  0  0  0  0
 19 31  1  0  0  0  0
 19 33  2  0  0  0  0
 20 21  1  0  0  0  0
 21 22  1  0  0  0  0
 22 23  1  0  0  0  0
 23 30  1  0  0  0  0
 24 29  1  0  0  0  0
 26 31  1  0  0  0  0
 27 29  1  0  0  0  0
  1 34  1  0  0  0  0
  2 35  1  0  0  0  0
  3 36  1  0  0  0  0
  4 37  1  0  0  0  0
  5 38  1  0  0  0  0
  6 39  1  0  0  0  0
  7 40  1  0  0  0  0
  8 41  1  0  0  0  0
  9 42  1  0  0  0  0
 10 43  1  0  0  0  0
 11 44  1  0  0  0  0
 20 45  1  0  0  0  0
 20 46  1  0  0  0  0
 21 47  1  0  0  0  0
 21 48  1  0  0  0  0
 22 49  1  0  0  0  0
 22 50  1  0  0  0  0
 23 51  1  0  0  0  0
 23 52  1  0  0  0  0
 24 53  1  0  0  0  0
 24 54  1  0  0  0  0
 24 55  1  0  0  0  0
 25 56  1  0  0  0  0
 25 57  1  0  0  0  0
 26 58  1  0  0  0  0
 26 59  1  0  0  0  0
 28 60  1  0  0  0  0
M  END
> <clash_score>
0.7790617508365236

> <docking_score>
-7.462676048278809

> <overlap_score>
0.999036431312561

$$$$
BENZO_472_1
  -OEChem-08222022203D

 56 60  0     0  0  0  0  0  0999 V2000
    4.2750    1.7050   20.8490 C   0  0  0  0  0  0  0  0  0  0  0  0
    3.9160    2.0630   19.5520 C   0  0  0  0  0  0  0  0  0  0  0  0
    5.4210    0.9600   21.0930 C   0  0  0  0  0  0  0  0  0  0  0  0
    4.6890    1.6810   18.4640 C   0  0  0  0  0  0  0  0  0  0  0  0
    8.9960   -2.3380   25.5320 C   0  0  0  0  0  0  0  0  0  0  0  0
    9.6730   -3.4710   23.5300 C   0  0  0  0  0  0  0  0  0  0  0  0
    9.0720   -1.1280   24.8640 C   0  0  0  0  0  0  0  0  0  0  0  0
    9.7200   -2.2600   22.8630 C   0  0  0  0  0  0  0  0  0  0  0  0
   12.2111    0.2208   23.7905 C   0  0  0  0  0  0  0  0  0  0  0  0
    7.6390   -0.2680   18.5410 C   0  0  0  0  0  0  0  0  0  0  0  0
   13.5412    0.5479   23.9363 C   0  0  0  0  0  0  0  0  0  0  0  0
   12.1057    2.5424   23.8305 C   0  0  0  0  0  0  0  0  0  0  0  0
    6.1790    0.5730   19.9990 C   0  0  0  0  0  0  0  0  0  0  0  0
   11.3794    1.3761   23.7290 C   0  0  0  0  0  0  0  0  0  0  0  0
    7.3170   -0.1610   19.8550 C   0  0  0  0  0  0  0  0  0  0  0  0
    5.8300    0.9190   18.6970 C   0  0  0  0  0  0  0  0  0  0  0  0
    9.3070   -3.5340   24.8780 C   0  0  0  0  0  0  0  0  0  0  0  0
    9.3350   -1.0880   23.5010 C   0  0  0  0  0  0  0  0  0  0  0  0
    9.0420    0.3700   21.5280 C   0  0  0  0  0  0  0  0  0  0  0  0
    9.5175   -4.8597   26.9771 C   0  0  0  0  0  0  0  0  0  0  0  0
    8.5165   -5.8725   24.9808 C   0  0  0  0  0  0  0  0  0  0  0  0
    8.1868   -5.0438   27.6987 C   0  0  0  0  0  0  0  0  0  0  0  0
    7.2200   -6.0346   25.7756 C   0  0  0  0  0  0  0  0  0  0  0  0
    8.1890   -0.7180   20.8700 C   0  0  0  0  0  0  0  0  0  0  0  0
    9.8870    1.3260   23.5730 C   0  0  0  0  0  0  0  0  0  0  0  0
    6.7580    0.3810   17.8350 N   0  0  0  0  0  0  0  0  0  0  0  0
    9.2563   -4.7368   25.5413 N   0  0  0  0  0  0  0  0  0  0  0  0
    9.4560    0.1560   22.8130 N   0  0  0  0  0  0  0  0  0  0  0  0
    9.2690    1.4140   20.9380 O   0  0  0  0  0  0  0  0  0  0  0  0
    7.4993   -6.1852   27.1720 O   0  0  0  0  0  0  0  0  0  0  0  0
   13.7831    2.2420   23.9988 S   0  0  0  0  0  0  0  0  0  0  0  0
    3.6455    2.0160   21.6826 H   0  0  0  0  0  0  0  0  0  0  0  0
    3.0144    2.6518   19.3914 H   0  0  0  0  0  0  0  0  0  0  0  0
    5.6994    0.6999   22.1043 H   0  0  0  0  0  0  0  0  0  0  0  0
    4.4044    1.9727   17.4490 H   0  0  0  0  0  0  0  0  0  0  0  0
    8.6905   -2.3533   26.5810 H   0  0  0  0  0  0  0  0  0  0  0  0
    9.9266   -4.3896   22.9917 H   0  0  0  0  0  0  0  0  0  0  0  0
    8.9233   -0.1992   25.4231 H   0  0  0  0  0  0  0  0  0  0  0  0
   10.0650   -2.2330   21.8256 H   0  0  0  0  0  0  0  0  0  0  0  0
   11.8558   -0.8003   23.7315 H   0  0  0  0  0  0  0  0  0  0  0  0
    8.4839   -0.7930   18.0639 H   0  0  0  0  0  0  0  0  0  0  0  0
   14.3824   -0.1267   24.0100 H   0  0  0  0  0  0  0  0  0  0  0  0
   11.7354    3.5581   23.8155 H   0  0  0  0  0  0  0  0  0  0  0  0
   10.0258   -3.9711   27.3648 H   0  0  0  0  0  0  0  0  0  0  0  0
   10.1569   -5.7319   27.1551 H   0  0  0  0  0  0  0  0  0  0  0  0
    9.1205   -6.7792   25.0739 H   0  0  0  0  0  0  0  0  0  0  0  0
    8.2824   -5.7116   23.9265 H   0  0  0  0  0  0  0  0  0  0  0  0
    8.3629   -5.2251   28.7611 H   0  0  0  0  0  0  0  0  0  0  0  0
    7.5530   -4.1569   27.6103 H   0  0  0  0  0  0  0  0  0  0  0  0
    6.5459   -5.1838   25.6221 H   0  0  0  0  0  0  0  0  0  0  0  0
    6.6947   -6.9354   25.4437 H   0  0  0  0  0  0  0  0  0  0  0  0
    7.6077   -1.2085   21.6613 H   0  0  0  0  0  0  0  0  0  0  0  0
    8.8716   -1.4650   20.4448 H   0  0  0  0  0  0  0  0  0  0  0  0
    9.3974    1.2912   24.5523 H   0  0  0  0  0  0  0  0  0  0  0  0
    9.5159    2.2168   23.0554 H   0  0  0  0  0  0  0  0  0  0  0  0
    6.7270    0.4925   16.8305 H   0  0  0  0  0  0  0  0  0  0  0  0
  1  2  1  0  0  0  0
  1  3  2  0  0  0  0
  2  4  2  0  0  0  0
  3 13  1  0  0  0  0
  4 16  1  0  0  0  0
  5  7  2  0  0  0  0
  5 17  1  0  0  0  0
  6  8  1  0  0  0  0
  6 17  2  0  0  0  0
  7 18  1  0  0  0  0
  8 18  2  0  0  0  0
  9 11  2  0  0  0  0
  9 14  1  0  0  0  0
 10 15  2  0  0  0  0
 10 26  1  0  0  0  0
 11 31  1  0  0  0  0
 12 14  2  0  0  0  0
 12 31  1  0  0  0  0
 13 15  1  0  0  0  0
 13 16  2  0  0  0  0
 14 25  1  0  0  0  0
 15 24  1  0  0  0  0
 16 26  1  0  0  0  0
 17 27  1  0  0  0  0
 18 28  1  0  0  0  0
 19 24  1  0  0  0  0
 19 28  1  0  0  0  0
 19 29  2  0  0  0  0
 20 22  1  0  0  0  0
 20 27  1  0  0  0  0
 21 23  1  0  0  0  0
 21 27  1  0  0  0  0
 22 30  1  0  0  0  0
 23 30  1  0  0  0  0
 25 28  1  0  0  0  0
  1 32  1  0  0  0  0
  2 33  1  0  0  0  0
  3 34  1  0  0  0  0
  4 35  1  0  0  0  0
  5 36  1  0  0  0  0
  6 37  1  0  0  0  0
  7 38  1  0  0  0  0
  8 39  1  0  0  0  0
  9 40  1  0  0  0  0
 10 41  1  0  0  0  0
 11 42  1  0  0  0  0
 12 43  1  0  0  0  0
 20 44  1  0  0  0  0
 20 45  1  0  0  0  0
 21 46  1  0  0  0  0
 21 47  1  0  0  0  0
 22 48  1  0  0  0  0
 22 49  1  0  0  0  0
 23 50  1  0  0  0  0
 23 51  1  0  0  0  0
 24 52  1  0  0  0  0
 24 53  1  0  0  0  0
 25 54  1  0  0  0  0
 25 55  1  0  0  0  0
 26 56  1  0  0  0  0
M  END
> <clash_score>
0

> <docking_score>
-7.962887763977051

> <overlap_score>
0.9791507720947266

$$$$
BENZO_477_1
  -OEChem-08222022203D

 52 55  0     0  0  0  0  0  0999 V2000
   14.1526    1.4694   24.0176 C   0  0  0  0  0  0  0  0  0  0  0  0
   13.3741    0.8121   24.9701 C   0  0  0  0  0  0  0  0  0  0  0  0
   13.5446    2.0802   22.9208 C   0  0  0  0  0  0  0  0  0  0  0  0
   11.9875    0.7654   24.8258 C   0  0  0  0  0  0  0  0  0  0  0  0
   12.1580    2.0335   22.7765 C   0  0  0  0  0  0  0  0  0  0  0  0
    9.0720   -1.1280   24.8640 C   0  0  0  0  0  0  0  0  0  0  0  0
    9.7200   -2.2600   22.8630 C   0  0  0  0  0  0  0  0  0  0  0  0
    8.9960   -2.3380   25.5320 C   0  0  0  0  0  0  0  0  0  0  0  0
    9.6730   -3.4710   23.5300 C   0  0  0  0  0  0  0  0  0  0  0  0
   11.3794    1.3761   23.7290 C   0  0  0  0  0  0  0  0  0  0  0  0
    9.3350   -1.0880   23.5010 C   0  0  0  0  0  0  0  0  0  0  0  0
    9.3070   -3.5340   24.8780 C   0  0  0  0  0  0  0  0  0  0  0  0
    5.8300    0.9190   18.6970 C   0  0  0  0  0  0  0  0  0  0  0  0
    7.3170   -0.1610   19.8550 C   0  0  0  0  0  0  0  0  0  0  0  0
    4.6890    1.6810   18.4640 C   0  0  0  0  0  0  0  0  0  0  0  0
    3.9160    2.0630   19.5520 C   0  0  0  0  0  0  0  0  0  0  0  0
    4.2750    1.7050   20.8490 C   0  0  0  0  0  0  0  0  0  0  0  0
    5.4210    0.9600   21.0930 C   0  0  0  0  0  0  0  0  0  0  0  0
    9.0420    0.3700   21.5280 C   0  0  0  0  0  0  0  0  0  0  0  0
    8.0128   -5.2151   26.1416 C   0  0  0  0  0  0  0  0  0  0  0  0
   10.4372   -5.5860   25.6589 C   0  0  0  0  0  0  0  0  0  0  0  0
    9.8870    1.3260   23.5730 C   0  0  0  0  0  0  0  0  0  0  0  0
    8.1890   -0.7180   20.8700 C   0  0  0  0  0  0  0  0  0  0  0  0
    6.7580    0.3810   17.8350 N   0  0  0  0  0  0  0  0  0  0  0  0
    7.6390   -0.2680   18.5410 N   0  0  0  0  0  0  0  0  0  0  0  0
    6.1790    0.5730   19.9990 N   0  0  0  0  0  0  0  0  0  0  0  0
    9.4560    0.1560   22.8130 N   0  0  0  0  0  0  0  0  0  0  0  0
    9.2543   -4.7552   25.5519 N   0  0  0  0  0  0  0  0  0  0  0  0
    9.2690    1.4140   20.9380 O   0  0  0  0  0  0  0  0  0  0  0  0
   15.2322    1.5068   24.1308 H   0  0  0  0  0  0  0  0  0  0  0  0
   13.8473    0.3374   25.8248 H   0  0  0  0  0  0  0  0  0  0  0  0
   14.1503    2.5930   22.1795 H   0  0  0  0  0  0  0  0  0  0  0  0
   11.3889    0.2508   25.5729 H   0  0  0  0  0  0  0  0  0  0  0  0
   11.6930    2.5120   21.9187 H   0  0  0  0  0  0  0  0  0  0  0  0
    8.9217   -0.1995   25.4232 H   0  0  0  0  0  0  0  0  0  0  0  0
   10.0643   -2.2341   21.8254 H   0  0  0  0  0  0  0  0  0  0  0  0
    8.6893   -2.3540   26.5808 H   0  0  0  0  0  0  0  0  0  0  0  0
    9.9257   -4.3898   22.9921 H   0  0  0  0  0  0  0  0  0  0  0  0
    4.3966    1.9781   17.4720 H   0  0  0  0  0  0  0  0  0  0  0  0
    3.0227    2.6498   19.3695 H   0  0  0  0  0  0  0  0  0  0  0  0
    3.6570    2.0037   21.7071 H   0  0  0  0  0  0  0  0  0  0  0  0
    5.7202    0.6868   22.0802 H   0  0  0  0  0  0  0  0  0  0  0  0
    8.1744   -6.1904   26.6238 H   0  0  0  0  0  0  0  0  0  0  0  0
    7.6718   -4.4870   26.8924 H   0  0  0  0  0  0  0  0  0  0  0  0
    7.2494   -5.3166   25.3561 H   0  0  0  0  0  0  0  0  0  0  0  0
   10.1946   -6.4996   26.2216 H   0  0  0  0  0  0  0  0  0  0  0  0
   10.7865   -5.8578   24.6518 H   0  0  0  0  0  0  0  0  0  0  0  0
   11.2285   -5.0312   26.1842 H   0  0  0  0  0  0  0  0  0  0  0  0
    9.3974    1.2912   24.5523 H   0  0  0  0  0  0  0  0  0  0  0  0
    9.5159    2.2168   23.0554 H   0  0  0  0  0  0  0  0  0  0  0  0
    7.6082   -1.2086   21.6619 H   0  0  0  0  0  0  0  0  0  0  0  0
    8.8721   -1.4652   20.4453 H   0  0  0  0  0  0  0  0  0  0  0  0
  1  2  1  0  0  0  0
  1  3  2  0  0  0  0
  2  4  2  0  0  0  0
  3  5  1  0  0  0  0
  4 10  1  0  0  0  0
  5 10  2  0  0  0  0
  6  8  2  0  0  0  0
  6 11  1  0  0  0  0
  7  9  1  0  0  0  0
  7 11  2  0  0  0  0
  8 12  1  0  0  0  0
  9 12  2  0  0  0  0
 10 22  1  0  0  0  0
 11 27  1  0  0  0  0
 12 28  1  0  0  0  0
 13 15  1  0  0  0  0
 13 24  2  0  0  0  0
 13 26  1  0  0  0  0
 14 23  1  0  0  0  0
 14 25  2  0  0  0  0
 14 26  1  0  0  0  0
 15 16  2  0  0  0  0
 16 17  1  0  0  0  0
 17 18  2  0  0  0  0
 18 26  1  0  0  0  0
 19 23  1  0  0  0  0
 19 27  1  0  0  0  0
 19 29  2  0  0  0  0
 20 28  1  0  0  0  0
 21 28  1  0  0  0  0
 22 27  1  0  0  0  0
 24 25  1  0  0  0  0
  1 30  1  0  0  0  0
  2 31  1  0  0  0  0
  3 32  1  0  0  0  0
  4 33  1  0  0  0  0
  5 34  1  0  0  0  0
  6 35  1  0  0  0  0
  7 36  1  0  0  0  0
  8 37  1  0  0  0  0
  9 38  1  0  0  0  0
 15 39  1  0  0  0  0
 16 40  1  0  0  0  0
 17 41  1  0  0  0  0
 18 42  1  0  0  0  0
 20 43  1  0  0  0  0
 20 44  1  0  0  0  0
 20 45  1  0  0  0  0
 21 46  1  0  0  0  0
 21 47  1  0  0  0  0
 21 48  1  0  0  0  0
 22 49  1  0  0  0  0
 22 50  1  0  0  0  0
 23 51  1  0  0  0  0
 23 52  1  0  0  0  0
M  END
> <clash_score>
0

> <docking_score>
-9.934853553771973

> <overlap_score>
0.9780116677284241

$$$$
BENZO_474_1
  -OEChem-08222022203D

 59 63  0     0  0  0  0  0  0999 V2000
    4.2750    1.7050   20.8490 C   0  0  0  0  0  0  0  0  0  0  0  0
    3.9160    2.0630   19.5520 C   0  0  0  0  0  0  0  0  0  0  0  0
   13.4007    0.5725   24.7805 C   0  0  0  0  0  0  0  0  0  0  0  0
    5.4210    0.9600   21.0930 C   0  0  0  0  0  0  0  0  0  0  0  0
   12.0141    0.5273   24.6359 C   0  0  0  0  0  0  0  0  0  0  0  0
    4.6890    1.6810   18.4640 C   0  0  0  0  0  0  0  0  0  0  0  0
    8.9960   -2.3380   25.5320 C   0  0  0  0  0  0  0  0  0  0  0  0
    9.6730   -3.4710   23.5300 C   0  0  0  0  0  0  0  0  0  0  0  0
    9.0720   -1.1280   24.8640 C   0  0  0  0  0  0  0  0  0  0  0  0
    9.7200   -2.2600   22.8630 C   0  0  0  0  0  0  0  0  0  0  0  0
   14.1526    1.4666   24.0184 C   0  0  0  0  0  0  0  0  0  0  0  0
   12.1314    2.2702   22.9668 C   0  0  0  0  0  0  0  0  0  0  0  0
    7.6390   -0.2680   18.5410 C   0  0  0  0  0  0  0  0  0  0  0  0
    6.1790    0.5730   19.9990 C   0  0  0  0  0  0  0  0  0  0  0  0
   11.3794    1.3761   23.7290 C   0  0  0  0  0  0  0  0  0  0  0  0
    7.3170   -0.1610   19.8550 C   0  0  0  0  0  0  0  0  0  0  0  0
    5.8300    0.9190   18.6970 C   0  0  0  0  0  0  0  0  0  0  0  0
    9.3070   -3.5340   24.8780 C   0  0  0  0  0  0  0  0  0  0  0  0
    9.3350   -1.0880   23.5010 C   0  0  0  0  0  0  0  0  0  0  0  0
   13.5180    2.3154   23.1115 C   0  0  0  0  0  0  0  0  0  0  0  0
    9.0420    0.3700   21.5280 C   0  0  0  0  0  0  0  0  0  0  0  0
   10.0771   -5.0255   26.7193 C   0  0  0  0  0  0  0  0  0  0  0  0
    8.0926   -5.6195   25.4071 C   0  0  0  0  0  0  0  0  0  0  0  0
    9.1933   -4.9427   27.9592 C   0  0  0  0  0  0  0  0  0  0  0  0
    7.2756   -5.5290   26.6968 C   0  0  0  0  0  0  0  0  0  0  0  0
    8.1890   -0.7180   20.8700 C   0  0  0  0  0  0  0  0  0  0  0  0
    9.8870    1.3260   23.5730 C   0  0  0  0  0  0  0  0  0  0  0  0
    6.7580    0.3810   17.8350 N   0  0  0  0  0  0  0  0  0  0  0  0
    9.2563   -4.7368   25.5413 N   0  0  0  0  0  0  0  0  0  0  0  0
    9.4560    0.1560   22.8130 N   0  0  0  0  0  0  0  0  0  0  0  0
    9.2690    1.4140   20.9380 O   0  0  0  0  0  0  0  0  0  0  0  0
    8.0883   -5.8458   27.8325 O   0  0  0  0  0  0  0  0  0  0  0  0
   14.4463    3.4175   22.1707 Cl  0  0  0  0  0  0  0  0  0  0  0  0
    3.6455    2.0160   21.6826 H   0  0  0  0  0  0  0  0  0  0  0  0
    3.0144    2.6518   19.3914 H   0  0  0  0  0  0  0  0  0  0  0  0
   13.8945   -0.0888   25.4867 H   0  0  0  0  0  0  0  0  0  0  0  0
    5.6994    0.6999   22.1043 H   0  0  0  0  0  0  0  0  0  0  0  0
   11.4361   -0.1726   25.2338 H   0  0  0  0  0  0  0  0  0  0  0  0
    4.4044    1.9727   17.4490 H   0  0  0  0  0  0  0  0  0  0  0  0
    8.6905   -2.3533   26.5810 H   0  0  0  0  0  0  0  0  0  0  0  0
    9.9266   -4.3896   22.9917 H   0  0  0  0  0  0  0  0  0  0  0  0
    8.9233   -0.1992   25.4231 H   0  0  0  0  0  0  0  0  0  0  0  0
   10.0650   -2.2330   21.8256 H   0  0  0  0  0  0  0  0  0  0  0  0
   15.2326    1.4907   24.1414 H   0  0  0  0  0  0  0  0  0  0  0  0
   11.6318    2.9303   22.2615 H   0  0  0  0  0  0  0  0  0  0  0  0
    8.4839   -0.7930   18.0639 H   0  0  0  0  0  0  0  0  0  0  0  0
   10.9045   -4.3143   26.8097 H   0  0  0  0  0  0  0  0  0  0  0  0
   10.4942   -6.0352   26.6309 H   0  0  0  0  0  0  0  0  0  0  0  0
    8.4337   -6.6479   25.2595 H   0  0  0  0  0  0  0  0  0  0  0  0
    7.4706   -5.3291   24.5580 H   0  0  0  0  0  0  0  0  0  0  0  0
    9.7636   -5.2397   28.8419 H   0  0  0  0  0  0  0  0  0  0  0  0
    8.8237   -3.9268   28.1248 H   0  0  0  0  0  0  0  0  0  0  0  0
    6.8339   -4.5336   26.8232 H   0  0  0  0  0  0  0  0  0  0  0  0
    6.4550   -6.2521   26.6644 H   0  0  0  0  0  0  0  0  0  0  0  0
    7.6077   -1.2085   21.6613 H   0  0  0  0  0  0  0  0  0  0  0  0
    8.8716   -1.4650   20.4448 H   0  0  0  0  0  0  0  0  0  0  0  0
    9.3974    1.2912   24.5523 H   0  0  0  0  0  0  0  0  0  0  0  0
    9.5159    2.2168   23.0554 H   0  0  0  0  0  0  0  0  0  0  0  0
    6.7270    0.4925   16.8305 H   0  0  0  0  0  0  0  0  0  0  0  0
  1  2  1  0  0  0  0
  1  4  2  0  0  0  0
  2  6  2  0  0  0  0
  3  5  2  0  0  0  0
  3 11  1  0  0  0  0
  4 14  1  0  0  0  0
  5 15  1  0  0  0  0
  6 17  1  0  0  0  0
  7  9  2  0  0  0  0
  7 18  1  0  0  0  0
  8 10  1  0  0  0  0
  8 18  2  0  0  0  0
  9 19  1  0  0  0  0
 10 19  2  0  0  0  0
 11 20  2  0  0  0  0
 12 15  2  0  0  0  0
 12 20  1  0  0  0  0
 13 16  2  0  0  0  0
 13 28  1  0  0  0  0
 14 16  1  0  0  0  0
 14 17  2  0  0  0  0
 15 27  1  0  0  0  0
 16 26  1  0  0  0  0
 17 28  1  0  0  0  0
 18 29  1  0  0  0  0
 19 30  1  0  0  0  0
 20 33  1  0  0  0  0
 21 26  1  0  0  0  0
 21 30  1  0  0  0  0
 21 31  2  0  0  0  0
 22 24  1  0  0  0  0
 22 29  1  0  0  0  0
 23 25  1  0  0  0  0
 23 29  1  0  0  0  0
 24 32  1  0  0  0  0
 25 32  1  0  0  0  0
 27 30  1  0  0  0  0
  1 34  1  0  0  0  0
  2 35  1  0  0  0  0
  3 36  1  0  0  0  0
  4 37  1  0  0  0  0
  5 38  1  0  0  0  0
  6 39  1  0  0  0  0
  7 40  1  0  0  0  0
  8 41  1  0  0  0  0
  9 42  1  0  0  0  0
 10 43  1  0  0  0  0
 11 44  1  0  0  0  0
 12 45  1  0  0  0  0
 13 46  1  0  0  0  0
 22 47  1  0  0  0  0
 22 48  1  0  0  0  0
 23 49  1  0  0  0  0
 23 50  1  0  0  0  0
 24 51  1  0  0  0  0
 24 52  1  0  0  0  0
 25 53  1  0  0  0  0
 25 54  1  0  0  0  0
 26 55  1  0  0  0  0
 26 56  1  0  0  0  0
 27 57  1  0  0  0  0
 27 58  1  0  0  0  0
 28 59  1  0  0  0  0
M  END
> <clash_score>
0

> <docking_score>
-7.864490032196045

> <overlap_score>
1.001426100730896

$$$$
BENZO_476_1
  -OEChem-08222022203D

 49 52  0     0  0  0  0  0  0999 V2000
    9.0720   -1.1280   24.8640 C   0  0  0  0  0  0  0  0  0  0  0  0
    9.7200   -2.2600   22.8630 C   0  0  0  0  0  0  0  0  0  0  0  0
    8.9960   -2.3380   25.5320 C   0  0  0  0  0  0  0  0  0  0  0  0
    9.6730   -3.4710   23.5300 C   0  0  0  0  0  0  0  0  0  0  0  0
   12.2913    1.4279   22.6355 C   0  0  0  0  0  0  0  0  0  0  0  0
   13.6024    1.4662   23.0564 C   0  0  0  0  0  0  0  0  0  0  0  0
   12.0284    1.3764   24.9443 C   0  0  0  0  0  0  0  0  0  0  0  0
   11.3794    1.3761   23.7290 C   0  0  0  0  0  0  0  0  0  0  0  0
    9.3350   -1.0880   23.5010 C   0  0  0  0  0  0  0  0  0  0  0  0
    9.3070   -3.5340   24.8780 C   0  0  0  0  0  0  0  0  0  0  0  0
    5.8300    0.9190   18.6970 C   0  0  0  0  0  0  0  0  0  0  0  0
    7.3170   -0.1610   19.8550 C   0  0  0  0  0  0  0  0  0  0  0  0
    4.6890    1.6810   18.4640 C   0  0  0  0  0  0  0  0  0  0  0  0
    3.9160    2.0630   19.5520 C   0  0  0  0  0  0  0  0  0  0  0  0
    4.2750    1.7050   20.8490 C   0  0  0  0  0  0  0  0  0  0  0  0
    5.4210    0.9600   21.0930 C   0  0  0  0  0  0  0  0  0  0  0  0
    9.0420    0.3700   21.5280 C   0  0  0  0  0  0  0  0  0  0  0  0
    8.8742   -4.8064   26.9496 C   0  0  0  0  0  0  0  0  0  0  0  0
    9.5655   -5.9897   24.8591 C   0  0  0  0  0  0  0  0  0  0  0  0
    9.8870    1.3260   23.5730 C   0  0  0  0  0  0  0  0  0  0  0  0
    8.1890   -0.7180   20.8700 C   0  0  0  0  0  0  0  0  0  0  0  0
    6.7580    0.3810   17.8350 N   0  0  0  0  0  0  0  0  0  0  0  0
    7.6390   -0.2680   18.5410 N   0  0  0  0  0  0  0  0  0  0  0  0
    6.1790    0.5730   19.9990 N   0  0  0  0  0  0  0  0  0  0  0  0
    9.4560    0.1560   22.8130 N   0  0  0  0  0  0  0  0  0  0  0  0
    9.2543   -4.7552   25.5519 N   0  0  0  0  0  0  0  0  0  0  0  0
    9.2690    1.4140   20.9380 O   0  0  0  0  0  0  0  0  0  0  0  0
   13.7301    1.4394   24.7638 S   0  0  0  0  0  0  0  0  0  0  0  0
    8.9217   -0.1995   25.4232 H   0  0  0  0  0  0  0  0  0  0  0  0
   10.0643   -2.2341   21.8254 H   0  0  0  0  0  0  0  0  0  0  0  0
    8.6893   -2.3540   26.5808 H   0  0  0  0  0  0  0  0  0  0  0  0
    9.9257   -4.3898   22.9921 H   0  0  0  0  0  0  0  0  0  0  0  0
   12.0045    1.4365   21.5915 H   0  0  0  0  0  0  0  0  0  0  0  0
   14.4914    1.5078   22.4430 H   0  0  0  0  0  0  0  0  0  0  0  0
   11.5886    1.3416   25.9314 H   0  0  0  0  0  0  0  0  0  0  0  0
    4.3966    1.9781   17.4720 H   0  0  0  0  0  0  0  0  0  0  0  0
    3.0227    2.6498   19.3695 H   0  0  0  0  0  0  0  0  0  0  0  0
    3.6570    2.0037   21.7071 H   0  0  0  0  0  0  0  0  0  0  0  0
    5.7202    0.6868   22.0802 H   0  0  0  0  0  0  0  0  0  0  0  0
    8.8922   -5.8499   27.2971 H   0  0  0  0  0  0  0  0  0  0  0  0
    9.5819   -4.2099   27.5440 H   0  0  0  0  0  0  0  0  0  0  0  0
    7.8599   -4.3978   27.0688 H   0  0  0  0  0  0  0  0  0  0  0  0
    9.4682   -6.8360   25.5551 H   0  0  0  0  0  0  0  0  0  0  0  0
    8.8685   -6.1243   24.0189 H   0  0  0  0  0  0  0  0  0  0  0  0
   10.5961   -5.9459   24.4772 H   0  0  0  0  0  0  0  0  0  0  0  0
    9.3974    1.2912   24.5523 H   0  0  0  0  0  0  0  0  0  0  0  0
    9.5159    2.2168   23.0554 H   0  0  0  0  0  0  0  0  0  0  0  0
    7.6082   -1.2086   21.6619 H   0  0  0  0  0  0  0  0  0  0  0  0
    8.8721   -1.4652   20.4453 H   0  0  0  0  0  0  0  0  0  0  0  0
  1  3  2  0  0  0  0
  1  9  1  0  0  0  0
  2  4  1  0  0  0  0
  2  9  2  0  0  0  0
  3 10  1  0  0  0  0
  4 10  2  0  0  0  0
  5  6  2  0  0  0  0
  5  8  1  0  0  0  0
  6 28  1  0  0  0  0
  7  8  2  0  0  0  0
  7 28  1  0  0  0  0
  8 20  1  0  0  0  0
  9 25  1  0  0  0  0
 10 26  1  0  0  0  0
 11 13  1  0  0  0  0
 11 22  2  0  0  0  0
 11 24  1  0  0  0  0
 12 21  1  0  0  0  0
 12 23  2  0  0  0  0
 12 24  1  0  0  0  0
 13 14  2  0  0  0  0
 14 15  1  0  0  0  0
 15 16  2  0  0  0  0
 16 24  1  0  0  0  0
 17 21  1  0  0  0  0
 17 25  1  0  0  0  0
 17 27  2  0  0  0  0
 18 26  1  0  0  0  0
 19 26  1  0  0  0  0
 20 25  1  0  0  0  0
 22 23  1  0  0  0  0
  1 29  1  0  0  0  0
  2 30  1  0  0  0  0
  3 31  1  0  0  0  0
  4 32  1  0  0  0  0
  5 33  1  0  0  0  0
  6 34  1  0  0  0  0
  7 35  1  0  0  0  0
 13 36  1  0  0  0  0
 14 37  1  0  0  0  0
 15 38  1  0  0  0  0
 16 39  1  0  0  0  0
 18 40  1  0  0  0  0
 18 41  1  0  0  0  0
 18 42  1  0  0  0  0
 19 43  1  0  0  0  0
 19 44  1  0  0  0  0
 19 45  1  0  0  0  0
 20 46  1  0  0  0  0
 20 47  1  0  0  0  0
 21 48  1  0  0  0  0
 21 49  1  0  0  0  0
M  END
> <clash_score>
0

> <docking_score>
-9.691826820373535

> <overlap_score>
0.963939368724823

$$$$
BENZO_475_1
  -OEChem-08222022203D

 59 63  0     0  0  0  0  0  0999 V2000
    4.2750    1.7050   20.8490 C   0  0  0  0  0  0  0  0  0  0  0  0
    3.9160    2.0630   19.5520 C   0  0  0  0  0  0  0  0  0  0  0  0
    5.4210    0.9600   21.0930 C   0  0  0  0  0  0  0  0  0  0  0  0
    4.6890    1.6810   18.4640 C   0  0  0  0  0  0  0  0  0  0  0  0
    8.9960   -2.3380   25.5320 C   0  0  0  0  0  0  0  0  0  0  0  0
    9.6730   -3.4710   23.5300 C   0  0  0  0  0  0  0  0  0  0  0  0
    9.0720   -1.1280   24.8640 C   0  0  0  0  0  0  0  0  0  0  0  0
    9.7200   -2.2600   22.8630 C   0  0  0  0  0  0  0  0  0  0  0  0
   12.2914    2.2071   23.0512 C   0  0  0  0  0  0  0  0  0  0  0  0
    7.6390   -0.2680   18.5410 C   0  0  0  0  0  0  0  0  0  0  0  0
   12.1614    0.6214   24.5689 C   0  0  0  0  0  0  0  0  0  0  0  0
    6.1790    0.5730   19.9990 C   0  0  0  0  0  0  0  0  0  0  0  0
   11.3794    1.3761   23.7290 C   0  0  0  0  0  0  0  0  0  0  0  0
    7.3170   -0.1610   19.8550 C   0  0  0  0  0  0  0  0  0  0  0  0
    5.8300    0.9190   18.6970 C   0  0  0  0  0  0  0  0  0  0  0  0
    9.3070   -3.5340   24.8780 C   0  0  0  0  0  0  0  0  0  0  0  0
    9.3350   -1.0880   23.5010 C   0  0  0  0  0  0  0  0  0  0  0  0
    9.0420    0.3700   21.5280 C   0  0  0  0  0  0  0  0  0  0  0  0
   10.0771   -5.0255   26.7193 C   0  0  0  0  0  0  0  0  0  0  0  0
    8.0926   -5.6195   25.4071 C   0  0  0  0  0  0  0  0  0  0  0  0
    9.1933   -4.9427   27.9592 C   0  0  0  0  0  0  0  0  0  0  0  0
    7.2756   -5.5290   26.6968 C   0  0  0  0  0  0  0  0  0  0  0  0
   14.6267    0.5248   25.0067 C   0  0  0  0  0  0  0  0  0  0  0  0
    8.1890   -0.7180   20.8700 C   0  0  0  0  0  0  0  0  0  0  0  0
    9.8870    1.3260   23.5730 C   0  0  0  0  0  0  0  0  0  0  0  0
   13.5560    2.0002   23.4280 N   0  0  0  0  0  0  0  0  0  0  0  0
    6.7580    0.3810   17.8350 N   0  0  0  0  0  0  0  0  0  0  0  0
   13.4442    1.0306   24.3518 N   0  0  0  0  0  0  0  0  0  0  0  0
    9.2563   -4.7368   25.5413 N   0  0  0  0  0  0  0  0  0  0  0  0
    9.4560    0.1560   22.8130 N   0  0  0  0  0  0  0  0  0  0  0  0
    9.2690    1.4140   20.9380 O   0  0  0  0  0  0  0  0  0  0  0  0
    8.0883   -5.8458   27.8325 O   0  0  0  0  0  0  0  0  0  0  0  0
    3.6455    2.0160   21.6826 H   0  0  0  0  0  0  0  0  0  0  0  0
    3.0144    2.6518   19.3914 H   0  0  0  0  0  0  0  0  0  0  0  0
    5.6994    0.6999   22.1043 H   0  0  0  0  0  0  0  0  0  0  0  0
    4.4044    1.9727   17.4490 H   0  0  0  0  0  0  0  0  0  0  0  0
    8.6905   -2.3533   26.5810 H   0  0  0  0  0  0  0  0  0  0  0  0
    9.9266   -4.3896   22.9917 H   0  0  0  0  0  0  0  0  0  0  0  0
    8.9233   -0.1992   25.4231 H   0  0  0  0  0  0  0  0  0  0  0  0
   10.0650   -2.2330   21.8256 H   0  0  0  0  0  0  0  0  0  0  0  0
   12.0895    2.9562   22.2987 H   0  0  0  0  0  0  0  0  0  0  0  0
    8.4839   -0.7930   18.0639 H   0  0  0  0  0  0  0  0  0  0  0  0
   11.9201   -0.1518   25.2857 H   0  0  0  0  0  0  0  0  0  0  0  0
   10.9045   -4.3143   26.8097 H   0  0  0  0  0  0  0  0  0  0  0  0
   10.4942   -6.0352   26.6309 H   0  0  0  0  0  0  0  0  0  0  0  0
    8.4337   -6.6479   25.2595 H   0  0  0  0  0  0  0  0  0  0  0  0
    7.4706   -5.3291   24.5580 H   0  0  0  0  0  0  0  0  0  0  0  0
    9.7636   -5.2397   28.8419 H   0  0  0  0  0  0  0  0  0  0  0  0
    8.8237   -3.9268   28.1248 H   0  0  0  0  0  0  0  0  0  0  0  0
    6.8339   -4.5336   26.8232 H   0  0  0  0  0  0  0  0  0  0  0  0
    6.4550   -6.2521   26.6644 H   0  0  0  0  0  0  0  0  0  0  0  0
   15.0068   -0.3132   24.4165 H   0  0  0  0  0  0  0  0  0  0  0  0
   15.3758    1.3189   25.0699 H   0  0  0  0  0  0  0  0  0  0  0  0
   14.3675    0.1958   26.0170 H   0  0  0  0  0  0  0  0  0  0  0  0
    7.6077   -1.2085   21.6613 H   0  0  0  0  0  0  0  0  0  0  0  0
    8.8716   -1.4650   20.4448 H   0  0  0  0  0  0  0  0  0  0  0  0
    9.3974    1.2912   24.5523 H   0  0  0  0  0  0  0  0  0  0  0  0
    9.5159    2.2168   23.0554 H   0  0  0  0  0  0  0  0  0  0  0  0
    6.7270    0.4925   16.8305 H   0  0  0  0  0  0  0  0  0  0  0  0
  1  2  1  0  0  0  0
  1  3  2  0  0  0  0
  2  4  2  0  0  0  0
  3 12  1  0  0  0  0
  4 15  1  0  0  0  0
  5  7  2  0  0  0  0
  5 16  1  0  0  0  0
  6  8  1  0  0  0  0
  6 16  2  0  0  0  0
  7 17  1  0  0  0  0
  8 17  2  0  0  0  0
  9 13  1  0  0  0  0
  9 26  2  0  0  0  0
 10 14  2  0  0  0  0
 10 27  1  0  0  0  0
 11 13  2  0  0  0  0
 11 28  1  0  0  0  0
 12 14  1  0  0  0  0
 12 15  2  0  0  0  0
 13 25  1  0  0  0  0
 14 24  1  0  0  0  0
 15 27  1  0  0  0  0
 16 29  1  0  0  0  0
 17 30  1  0  0  0  0
 18 24  1  0  0  0  0
 18 30  1  0  0  0  0
 18 31  2  0  0  0  0
 19 21  1  0  0  0  0
 19 29  1  0  0  0  0
 20 22  1  0  0  0  0
 20 29  1  0  0  0  0
 21 32  1  0  0  0  0
 22 32  1  0  0  0  0
 23 28  1  0  0  0  0
 25 30  1  0  0  0  0
 26 28  1  0  0  0  0
  1 33  1  0  0  0  0
  2 34  1  0  0  0  0
  3 35  1  0  0  0  0
  4 36  1  0  0  0  0
  5 37  1  0  0  0  0
  6 38  1  0  0  0  0
  7 39  1  0  0  0  0
  8 40  1  0  0  0  0
  9 41  1  0  0  0  0
 10 42  1  0  0  0  0
 11 43  1  0  0  0  0
 19 44  1  0  0  0  0
 19 45  1  0  0  0  0
 20 46  1  0  0  0  0
 20 47  1  0  0  0  0
 21 48  1  0  0  0  0
 21 49  1  0  0  0  0
 22 50  1  0  0  0  0
 22 51  1  0  0  0  0
 23 52  1  0  0  0  0
 23 53  1  0  0  0  0
 23 54  1  0  0  0  0
 24 55  1  0  0  0  0
 24 56  1  0  0  0  0
 25 57  1  0  0  0  0
 25 58  1  0  0  0  0
 27 59  1  0  0  0  0
M  END
> <clash_score>
0.6199413357764433

> <docking_score>
-8.435514450073242

> <overlap_score>
0.9891133904457092

$$$$
BENZO_479_1
  -OEChem-08222022203D

 52 55  0     0  0  0  0  0  0999 V2000
    9.0720   -1.1280   24.8640 C   0  0  0  0  0  0  0  0  0  0  0  0
    9.7200   -2.2600   22.8630 C   0  0  0  0  0  0  0  0  0  0  0  0
    8.9960   -2.3380   25.5320 C   0  0  0  0  0  0  0  0  0  0  0  0
    9.6730   -3.4710   23.5300 C   0  0  0  0  0  0  0  0  0  0  0  0
   12.2914    2.2071   23.0512 C   0  0  0  0  0  0  0  0  0  0  0  0
   12.1614    0.6214   24.5689 C   0  0  0  0  0  0  0  0  0  0  0  0
   11.3794    1.3761   23.7290 C   0  0  0  0  0  0  0  0  0  0  0  0
    9.3350   -1.0880   23.5010 C   0  0  0  0  0  0  0  0  0  0  0  0
    9.3070   -3.5340   24.8780 C   0  0  0  0  0  0  0  0  0  0  0  0
    5.8300    0.9190   18.6970 C   0  0  0  0  0  0  0  0  0  0  0  0
    7.3170   -0.1610   19.8550 C   0  0  0  0  0  0  0  0  0  0  0  0
    4.6890    1.6810   18.4640 C   0  0  0  0  0  0  0  0  0  0  0  0
    3.9160    2.0630   19.5520 C   0  0  0  0  0  0  0  0  0  0  0  0
    4.2750    1.7050   20.8490 C   0  0  0  0  0  0  0  0  0  0  0  0
    5.4210    0.9600   21.0930 C   0  0  0  0  0  0  0  0  0  0  0  0
    9.0420    0.3700   21.5280 C   0  0  0  0  0  0  0  0  0  0  0  0
   14.6267    0.5248   25.0067 C   0  0  0  0  0  0  0  0  0  0  0  0
    8.0128   -5.2151   26.1416 C   0  0  0  0  0  0  0  0  0  0  0  0
   10.4372   -5.5860   25.6589 C   0  0  0  0  0  0  0  0  0  0  0  0
    9.8870    1.3260   23.5730 C   0  0  0  0  0  0  0  0  0  0  0  0
    8.1890   -0.7180   20.8700 C   0  0  0  0  0  0  0  0  0  0  0  0
   13.5560    2.0002   23.4280 N   0  0  0  0  0  0  0  0  0  0  0  0
    6.7580    0.3810   17.8350 N   0  0  0  0  0  0  0  0  0  0  0  0
    7.6390   -0.2680   18.5410 N   0  0  0  0  0  0  0  0  0  0  0  0
   13.4442    1.0306   24.3518 N   0  0  0  0  0  0  0  0  0  0  0  0
    6.1790    0.5730   19.9990 N   0  0  0  0  0  0  0  0  0  0  0  0
    9.4560    0.1560   22.8130 N   0  0  0  0  0  0  0  0  0  0  0  0
    9.2543   -4.7552   25.5519 N   0  0  0  0  0  0  0  0  0  0  0  0
    9.2690    1.4140   20.9380 O   0  0  0  0  0  0  0  0  0  0  0  0
    8.9217   -0.1995   25.4232 H   0  0  0  0  0  0  0  0  0  0  0  0
   10.0643   -2.2341   21.8254 H   0  0  0  0  0  0  0  0  0  0  0  0
    8.6893   -2.3540   26.5808 H   0  0  0  0  0  0  0  0  0  0  0  0
    9.9257   -4.3898   22.9921 H   0  0  0  0  0  0  0  0  0  0  0  0
   12.0895    2.9562   22.2987 H   0  0  0  0  0  0  0  0  0  0  0  0
   11.9201   -0.1518   25.2857 H   0  0  0  0  0  0  0  0  0  0  0  0
    4.3966    1.9781   17.4720 H   0  0  0  0  0  0  0  0  0  0  0  0
    3.0227    2.6498   19.3695 H   0  0  0  0  0  0  0  0  0  0  0  0
    3.6570    2.0037   21.7071 H   0  0  0  0  0  0  0  0  0  0  0  0
    5.7202    0.6868   22.0802 H   0  0  0  0  0  0  0  0  0  0  0  0
   15.0068   -0.3132   24.4165 H   0  0  0  0  0  0  0  0  0  0  0  0
   15.3758    1.3189   25.0699 H   0  0  0  0  0  0  0  0  0  0  0  0
   14.3675    0.1958   26.0170 H   0  0  0  0  0  0  0  0  0  0  0  0
    8.1744   -6.1904   26.6238 H   0  0  0  0  0  0  0  0  0  0  0  0
    7.6718   -4.4870   26.8924 H   0  0  0  0  0  0  0  0  0  0  0  0
    7.2494   -5.3166   25.3561 H   0  0  0  0  0  0  0  0  0  0  0  0
   10.1946   -6.4996   26.2216 H   0  0  0  0  0  0  0  0  0  0  0  0
   10.7865   -5.8578   24.6518 H   0  0  0  0  0  0  0  0  0  0  0  0
   11.2285   -5.0312   26.1842 H   0  0  0  0  0  0  0  0  0  0  0  0
    9.3974    1.2912   24.5523 H   0  0  0  0  0  0  0  0  0  0  0  0
    9.5159    2.2168   23.0554 H   0  0  0  0  0  0  0  0  0  0  0  0
    7.6082   -1.2086   21.6619 H   0  0  0  0  0  0  0  0  0  0  0  0
    8.8721   -1.4652   20.4453 H   0  0  0  0  0  0  0  0  0  0  0  0
  1  3  2  0  0  0  0
  1  8  1  0  0  0  0
  2  4  1  0  0  0  0
  2  8  2  0  0  0  0
  3  9  1  0  0  0  0
  4  9  2  0  0  0  0
  5  7  1  0  0  0  0
  5 22  2  0  0  0  0
  6  7  2  0  0  0  0
  6 25  1  0  0  0  0
  7 20  1  0  0  0  0
  8 27  1  0  0  0  0
  9 28  1  0  0  0  0
 10 12  1  0  0  0  0
 10 23  2  0  0  0  0
 10 26  1  0  0  0  0
 11 21  1  0  0  0  0
 11 24  2  0  0  0  0
 11 26  1  0  0  0  0
 12 13  2  0  0  0  0
 13 14  1  0  0  0  0
 14 15  2  0  0  0  0
 15 26  1  0  0  0  0
 16 21  1  0  0  0  0
 16 27  1  0  0  0  0
 16 29  2  0  0  0  0
 17 25  1  0  0  0  0
 18 28  1  0  0  0  0
 19 28  1  0  0  0  0
 20 27  1  0  0  0  0
 22 25  1  0  0  0  0
 23 24  1  0  0  0  0
  1 30  1  0  0  0  0
  2 31  1  0  0  0  0
  3 32  1  0  0  0  0
  4 33  1  0  0  0  0
  5 34  1  0  0  0  0
  6 35  1  0  0  0  0
 12 36  1  0  0  0  0
 13 37  1  0  0  0  0
 14 38  1  0  0  0  0
 15 39  1  0  0  0  0
 17 40  1  0  0  0  0
 17 41  1  0  0  0  0
 17 42  1  0  0  0  0
 18 43  1  0  0  0  0
 18 44  1  0  0  0  0
 18 45  1  0  0  0  0
 19 46  1  0  0  0  0
 19 47  1  0  0  0  0
 19 48  1  0  0  0  0
 20 49  1  0  0  0  0
 20 50  1  0  0  0  0
 21 51  1  0  0  0  0
 21 52  1  0  0  0  0
M  END
> <clash_score>
0.6199445293946145

> <docking_score>
-9.642845153808594

> <overlap_score>
0.9767895936965942

$$$$
BENZO_478_1
  -OEChem-08222022203D

 52 55  0     0  0  0  0  0  0999 V2000
   13.4007    0.5725   24.7805 C   0  0  0  0  0  0  0  0  0  0  0  0
   12.0141    0.5273   24.6359 C   0  0  0  0  0  0  0  0  0  0  0  0
    9.0720   -1.1280   24.8640 C   0  0  0  0  0  0  0  0  0  0  0  0
    9.7200   -2.2600   22.8630 C   0  0  0  0  0  0  0  0  0  0  0  0
    8.9960   -2.3380   25.5320 C   0  0  0  0  0  0  0  0  0  0  0  0
    9.6730   -3.4710   23.5300 C   0  0  0  0  0  0  0  0  0  0  0  0
   14.1526    1.4666   24.0184 C   0  0  0  0  0  0  0  0  0  0  0  0
   12.1314    2.2702   22.9668 C   0  0  0  0  0  0  0  0  0  0  0  0
   11.3794    1.3761   23.7290 C   0  0  0  0  0  0  0  0  0  0  0  0
    9.3350   -1.0880   23.5010 C   0  0  0  0  0  0  0  0  0  0  0  0
    9.3070   -3.5340   24.8780 C   0  0  0  0  0  0  0  0  0  0  0  0
   13.5180    2.3154   23.1115 C   0  0  0  0  0  0  0  0  0  0  0  0
    5.8300    0.9190   18.6970 C   0  0  0  0  0  0  0  0  0  0  0  0
    7.3170   -0.1610   19.8550 C   0  0  0  0  0  0  0  0  0  0  0  0
    4.6890    1.6810   18.4640 C   0  0  0  0  0  0  0  0  0  0  0  0
    3.9160    2.0630   19.5520 C   0  0  0  0  0  0  0  0  0  0  0  0
    4.2750    1.7050   20.8490 C   0  0  0  0  0  0  0  0  0  0  0  0
    5.4210    0.9600   21.0930 C   0  0  0  0  0  0  0  0  0  0  0  0
    9.0420    0.3700   21.5280 C   0  0  0  0  0  0  0  0  0  0  0  0
    8.0128   -5.2151   26.1416 C   0  0  0  0  0  0  0  0  0  0  0  0
   10.4372   -5.5860   25.6589 C   0  0  0  0  0  0  0  0  0  0  0  0
    9.8870    1.3260   23.5730 C   0  0  0  0  0  0  0  0  0  0  0  0
    8.1890   -0.7180   20.8700 C   0  0  0  0  0  0  0  0  0  0  0  0
    6.7580    0.3810   17.8350 N   0  0  0  0  0  0  0  0  0  0  0  0
    7.6390   -0.2680   18.5410 N   0  0  0  0  0  0  0  0  0  0  0  0
    6.1790    0.5730   19.9990 N   0  0  0  0  0  0  0  0  0  0  0  0
    9.4560    0.1560   22.8130 N   0  0  0  0  0  0  0  0  0  0  0  0
    9.2543   -4.7552   25.5519 N   0  0  0  0  0  0  0  0  0  0  0  0
    9.2690    1.4140   20.9380 O   0  0  0  0  0  0  0  0  0  0  0  0
   14.4463    3.4175   22.1707 Cl  0  0  0  0  0  0  0  0  0  0  0  0
   13.8945   -0.0888   25.4867 H   0  0  0  0  0  0  0  0  0  0  0  0
   11.4361   -0.1726   25.2338 H   0  0  0  0  0  0  0  0  0  0  0  0
    8.9217   -0.1995   25.4232 H   0  0  0  0  0  0  0  0  0  0  0  0
   10.0643   -2.2341   21.8254 H   0  0  0  0  0  0  0  0  0  0  0  0
    8.6893   -2.3540   26.5808 H   0  0  0  0  0  0  0  0  0  0  0  0
    9.9257   -4.3898   22.9921 H   0  0  0  0  0  0  0  0  0  0  0  0
   15.2326    1.4907   24.1414 H   0  0  0  0  0  0  0  0  0  0  0  0
   11.6318    2.9303   22.2615 H   0  0  0  0  0  0  0  0  0  0  0  0
    4.3966    1.9781   17.4720 H   0  0  0  0  0  0  0  0  0  0  0  0
    3.0227    2.6498   19.3695 H   0  0  0  0  0  0  0  0  0  0  0  0
    3.6570    2.0037   21.7071 H   0  0  0  0  0  0  0  0  0  0  0  0
    5.7202    0.6868   22.0802 H   0  0  0  0  0  0  0  0  0  0  0  0
    8.1744   -6.1904   26.6238 H   0  0  0  0  0  0  0  0  0  0  0  0
    7.6718   -4.4870   26.8924 H   0  0  0  0  0  0  0  0  0  0  0  0
    7.2494   -5.3166   25.3561 H   0  0  0  0  0  0  0  0  0  0  0  0
   10.1946   -6.4996   26.2216 H   0  0  0  0  0  0  0  0  0  0  0  0
   10.7865   -5.8578   24.6518 H   0  0  0  0  0  0  0  0  0  0  0  0
   11.2285   -5.0312   26.1842 H   0  0  0  0  0  0  0  0  0  0  0  0
    9.3974    1.2912   24.5523 H   0  0  0  0  0  0  0  0  0  0  0  0
    9.5159    2.2168   23.0554 H   0  0  0  0  0  0  0  0  0  0  0  0
    7.6082   -1.2086   21.6619 H   0  0  0  0  0  0  0  0  0  0  0  0
    8.8721   -1.4652   20.4453 H   0  0  0  0  0  0  0  0  0  0  0  0
  1  2  2  0  0  0  0
  1  7  1  0  0  0  0
  2  9  1  0  0  0  0
  3  5  2  0  0  0  0
  3 10  1  0  0  0  0
  4  6  1  0  0  0  0
  4 10  2  0  0  0  0
  5 11  1  0  0  0  0
  6 11  2  0  0  0  0
  7 12  2  0  0  0  0
  8  9  2  0  0  0  0
  8 12  1  0  0  0  0
  9 22  1  0  0  0  0
 10 27  1  0  0  0  0
 11 28  1  0  0  0  0
 12 30  1  0  0  0  0
 13 15  1  0  0  0  0
 13 24  2  0  0  0  0
 13 26  1  0  0  0  0
 14 23  1  0  0  0  0
 14 25  2  0  0  0  0
 14 26  1  0  0  0  0
 15 16  2  0  0  0  0
 16 17  1  0  0  0  0
 17 18  2  0  0  0  0
 18 26  1  0  0  0  0
 19 23  1  0  0  0  0
 19 27  1  0  0  0  0
 19 29  2  0  0  0  0
 20 28  1  0  0  0  0
 21 28  1  0  0  0  0
 22 27  1  0  0  0  0
 24 25  1  0  0  0  0
  1 31  1  0  0  0  0
  2 32  1  0  0  0  0
  3 33  1  0  0  0  0
  4 34  1  0  0  0  0
  5 35  1  0  0  0  0
  6 36  1  0  0  0  0
  7 37  1  0  0  0  0
  8 38  1  0  0  0  0
 15 39  1  0  0  0  0
 16 40  1  0  0  0  0
 17 41  1  0  0  0  0
 18 42  1  0  0  0  0
 20 43  1  0  0  0  0
 20 44  1  0  0  0  0
 20 45  1  0  0  0  0
 21 46  1  0  0  0  0
 21 47  1  0  0  0  0
 21 48  1  0  0  0  0
 22 49  1  0  0  0  0
 22 50  1  0  0  0  0
 23 51  1  0  0  0  0
 23 52  1  0  0  0  0
M  END
> <clash_score>
0

> <docking_score>
-9.071834564208984

> <overlap_score>
0.9891859889030457

$$$$
BENZO_481_1
  -OEChem-08222022203D

 54 57  0     0  0  0  0  0  0999 V2000
   14.1526    1.4694   24.0176 C   0  0  0  0  0  0  0  0  0  0  0  0
   13.3741    0.8121   24.9701 C   0  0  0  0  0  0  0  0  0  0  0  0
   13.5446    2.0802   22.9208 C   0  0  0  0  0  0  0  0  0  0  0  0
   11.9875    0.7654   24.8258 C   0  0  0  0  0  0  0  0  0  0  0  0
   12.1580    2.0335   22.7765 C   0  0  0  0  0  0  0  0  0  0  0  0
    8.9960   -2.3380   25.5320 C   0  0  0  0  0  0  0  0  0  0  0  0
    9.6730   -3.4710   23.5300 C   0  0  0  0  0  0  0  0  0  0  0  0
    9.0720   -1.1280   24.8640 C   0  0  0  0  0  0  0  0  0  0  0  0
    9.7200   -2.2600   22.8630 C   0  0  0  0  0  0  0  0  0  0  0  0
   11.3794    1.3761   23.7290 C   0  0  0  0  0  0  0  0  0  0  0  0
    9.3070   -3.5340   24.8780 C   0  0  0  0  0  0  0  0  0  0  0  0
    9.3350   -1.0880   23.5010 C   0  0  0  0  0  0  0  0  0  0  0  0
    5.8300    0.9190   18.6970 C   0  0  0  0  0  0  0  0  0  0  0  0
    7.3170   -0.1610   19.8550 C   0  0  0  0  0  0  0  0  0  0  0  0
    4.6890    1.6810   18.4640 C   0  0  0  0  0  0  0  0  0  0  0  0
    3.9160    2.0630   19.5520 C   0  0  0  0  0  0  0  0  0  0  0  0
    4.2750    1.7050   20.8490 C   0  0  0  0  0  0  0  0  0  0  0  0
    5.4210    0.9600   21.0930 C   0  0  0  0  0  0  0  0  0  0  0  0
    9.0420    0.3700   21.5280 C   0  0  0  0  0  0  0  0  0  0  0  0
    9.5333   -6.0236   25.0414 C   0  0  0  0  0  0  0  0  0  0  0  0
   10.6329   -7.3747   26.8775 C   0  0  0  0  0  0  0  0  0  0  0  0
    9.8870    1.3260   23.5730 C   0  0  0  0  0  0  0  0  0  0  0  0
    8.1890   -0.7180   20.8700 C   0  0  0  0  0  0  0  0  0  0  0  0
    9.3522   -7.0865   26.1149 C   0  0  0  0  0  0  0  0  0  0  0  0
    6.7580    0.3810   17.8350 N   0  0  0  0  0  0  0  0  0  0  0  0
    7.6390   -0.2680   18.5410 N   0  0  0  0  0  0  0  0  0  0  0  0
    6.1790    0.5730   19.9990 N   0  0  0  0  0  0  0  0  0  0  0  0
    9.2546   -4.7422   25.5438 N   0  0  0  0  0  0  0  0  0  0  0  0
    9.4560    0.1560   22.8130 N   0  0  0  0  0  0  0  0  0  0  0  0
    9.2690    1.4140   20.9380 O   0  0  0  0  0  0  0  0  0  0  0  0
    9.8805   -6.3053   23.8992 O   0  0  0  0  0  0  0  0  0  0  0  0
   15.2322    1.5068   24.1308 H   0  0  0  0  0  0  0  0  0  0  0  0
   13.8473    0.3374   25.8248 H   0  0  0  0  0  0  0  0  0  0  0  0
   14.1503    2.5930   22.1795 H   0  0  0  0  0  0  0  0  0  0  0  0
   11.3889    0.2508   25.5729 H   0  0  0  0  0  0  0  0  0  0  0  0
   11.6930    2.5120   21.9187 H   0  0  0  0  0  0  0  0  0  0  0  0
    8.6895   -2.3529   26.5807 H   0  0  0  0  0  0  0  0  0  0  0  0
    9.9262   -4.3897   22.9916 H   0  0  0  0  0  0  0  0  0  0  0  0
    8.9224   -0.1998   25.4238 H   0  0  0  0  0  0  0  0  0  0  0  0
   10.0649   -2.2343   21.8258 H   0  0  0  0  0  0  0  0  0  0  0  0
    4.3966    1.9781   17.4720 H   0  0  0  0  0  0  0  0  0  0  0  0
    3.0227    2.6498   19.3695 H   0  0  0  0  0  0  0  0  0  0  0  0
    3.6570    2.0037   21.7071 H   0  0  0  0  0  0  0  0  0  0  0  0
    5.7202    0.6868   22.0802 H   0  0  0  0  0  0  0  0  0  0  0  0
   11.4241   -7.7171   26.2024 H   0  0  0  0  0  0  0  0  0  0  0  0
   10.4628   -8.1531   27.6276 H   0  0  0  0  0  0  0  0  0  0  0  0
   10.9949   -6.4779   27.3911 H   0  0  0  0  0  0  0  0  0  0  0  0
    9.3974    1.2912   24.5523 H   0  0  0  0  0  0  0  0  0  0  0  0
    9.5159    2.2168   23.0554 H   0  0  0  0  0  0  0  0  0  0  0  0
    7.6082   -1.2086   21.6619 H   0  0  0  0  0  0  0  0  0  0  0  0
    8.8721   -1.4652   20.4453 H   0  0  0  0  0  0  0  0  0  0  0  0
    8.5795   -6.7462   26.8138 H   0  0  0  0  0  0  0  0  0  0  0  0
    8.9965   -8.0064   25.6368 H   0  0  0  0  0  0  0  0  0  0  0  0
    8.9776   -4.7057   26.5317 H   0  0  0  0  0  0  0  0  0  0  0  0
  1  2  1  0  0  0  0
  1  3  2  0  0  0  0
  2  4  2  0  0  0  0
  3  5  1  0  0  0  0
  4 10  1  0  0  0  0
  5 10  2  0  0  0  0
  6  8  2  0  0  0  0
  6 11  1  0  0  0  0
  7  9  1  0  0  0  0
  7 11  2  0  0  0  0
  8 12  1  0  0  0  0
  9 12  2  0  0  0  0
 10 22  1  0  0  0  0
 11 28  1  0  0  0  0
 12 29  1  0  0  0  0
 13 15  1  0  0  0  0
 13 25  2  0  0  0  0
 13 27  1  0  0  0  0
 14 23  1  0  0  0  0
 14 26  2  0  0  0  0
 14 27  1  0  0  0  0
 15 16  2  0  0  0  0
 16 17  1  0  0  0  0
 17 18  2  0  0  0  0
 18 27  1  0  0  0  0
 19 23  1  0  0  0  0
 19 29  1  0  0  0  0
 19 30  2  0  0  0  0
 20 24  1  0  0  0  0
 20 28  1  0  0  0  0
 20 31  2  0  0  0  0
 21 24  1  0  0  0  0
 22 29  1  0  0  0  0
 25 26  1  0  0  0  0
  1 32  1  0  0  0  0
  2 33  1  0  0  0  0
  3 34  1  0  0  0  0
  4 35  1  0  0  0  0
  5 36  1  0  0  0  0
  6 37  1  0  0  0  0
  7 38  1  0  0  0  0
  8 39  1  0  0  0  0
  9 40  1  0  0  0  0
 15 41  1  0  0  0  0
 16 42  1  0  0  0  0
 17 43  1  0  0  0  0
 18 44  1  0  0  0  0
 21 45  1  0  0  0  0
 21 46  1  0  0  0  0
 21 47  1  0  0  0  0
 22 48  1  0  0  0  0
 22 49  1  0  0  0  0
 23 50  1  0  0  0  0
 23 51  1  0  0  0  0
 24 52  1  0  0  0  0
 24 53  1  0  0  0  0
 28 54  1  0  0  0  0
M  END
> <clash_score>
1.4986520705794621

> <docking_score>
-6.740574836730957

> <overlap_score>
0.9802290797233582

$$$$
BENZO_480_1
  -OEChem-08222022203D

 51 54  0     0  0  0  0  0  0999 V2000
    8.9960   -2.3380   25.5320 C   0  0  0  0  0  0  0  0  0  0  0  0
    9.6730   -3.4710   23.5300 C   0  0  0  0  0  0  0  0  0  0  0  0
    9.0720   -1.1280   24.8640 C   0  0  0  0  0  0  0  0  0  0  0  0
    9.7200   -2.2600   22.8630 C   0  0  0  0  0  0  0  0  0  0  0  0
   12.2111    0.2208   23.7905 C   0  0  0  0  0  0  0  0  0  0  0  0
   13.5412    0.5479   23.9363 C   0  0  0  0  0  0  0  0  0  0  0  0
   12.1057    2.5424   23.8305 C   0  0  0  0  0  0  0  0  0  0  0  0
   11.3794    1.3761   23.7290 C   0  0  0  0  0  0  0  0  0  0  0  0
    9.3070   -3.5340   24.8780 C   0  0  0  0  0  0  0  0  0  0  0  0
    9.3350   -1.0880   23.5010 C   0  0  0  0  0  0  0  0  0  0  0  0
    5.8300    0.9190   18.6970 C   0  0  0  0  0  0  0  0  0  0  0  0
    7.3170   -0.1610   19.8550 C   0  0  0  0  0  0  0  0  0  0  0  0
    4.6890    1.6810   18.4640 C   0  0  0  0  0  0  0  0  0  0  0  0
    3.9160    2.0630   19.5520 C   0  0  0  0  0  0  0  0  0  0  0  0
    4.2750    1.7050   20.8490 C   0  0  0  0  0  0  0  0  0  0  0  0
    5.4210    0.9600   21.0930 C   0  0  0  0  0  0  0  0  0  0  0  0
    9.0420    0.3700   21.5280 C   0  0  0  0  0  0  0  0  0  0  0  0
    9.5333   -6.0236   25.0414 C   0  0  0  0  0  0  0  0  0  0  0  0
   10.6329   -7.3747   26.8775 C   0  0  0  0  0  0  0  0  0  0  0  0
    9.8870    1.3260   23.5730 C   0  0  0  0  0  0  0  0  0  0  0  0
    8.1890   -0.7180   20.8700 C   0  0  0  0  0  0  0  0  0  0  0  0
    9.3522   -7.0865   26.1149 C   0  0  0  0  0  0  0  0  0  0  0  0
    6.7580    0.3810   17.8350 N   0  0  0  0  0  0  0  0  0  0  0  0
    7.6390   -0.2680   18.5410 N   0  0  0  0  0  0  0  0  0  0  0  0
    6.1790    0.5730   19.9990 N   0  0  0  0  0  0  0  0  0  0  0  0
    9.2546   -4.7422   25.5438 N   0  0  0  0  0  0  0  0  0  0  0  0
    9.4560    0.1560   22.8130 N   0  0  0  0  0  0  0  0  0  0  0  0
    9.2690    1.4140   20.9380 O   0  0  0  0  0  0  0  0  0  0  0  0
    9.8805   -6.3053   23.8992 O   0  0  0  0  0  0  0  0  0  0  0  0
   13.7831    2.2420   23.9988 S   0  0  0  0  0  0  0  0  0  0  0  0
    8.6895   -2.3529   26.5807 H   0  0  0  0  0  0  0  0  0  0  0  0
    9.9262   -4.3897   22.9916 H   0  0  0  0  0  0  0  0  0  0  0  0
    8.9224   -0.1998   25.4238 H   0  0  0  0  0  0  0  0  0  0  0  0
   10.0649   -2.2343   21.8258 H   0  0  0  0  0  0  0  0  0  0  0  0
   11.8558   -0.8003   23.7315 H   0  0  0  0  0  0  0  0  0  0  0  0
   14.3824   -0.1267   24.0100 H   0  0  0  0  0  0  0  0  0  0  0  0
   11.7354    3.5581   23.8155 H   0  0  0  0  0  0  0  0  0  0  0  0
    4.3966    1.9781   17.4720 H   0  0  0  0  0  0  0  0  0  0  0  0
    3.0227    2.6498   19.3695 H   0  0  0  0  0  0  0  0  0  0  0  0
    3.6570    2.0037   21.7071 H   0  0  0  0  0  0  0  0  0  0  0  0
    5.7202    0.6868   22.0802 H   0  0  0  0  0  0  0  0  0  0  0  0
   11.4241   -7.7171   26.2024 H   0  0  0  0  0  0  0  0  0  0  0  0
   10.4628   -8.1531   27.6276 H   0  0  0  0  0  0  0  0  0  0  0  0
   10.9949   -6.4779   27.3911 H   0  0  0  0  0  0  0  0  0  0  0  0
    9.3974    1.2912   24.5523 H   0  0  0  0  0  0  0  0  0  0  0  0
    9.5159    2.2168   23.0554 H   0  0  0  0  0  0  0  0  0  0  0  0
    7.6082   -1.2086   21.6619 H   0  0  0  0  0  0  0  0  0  0  0  0
    8.8721   -1.4652   20.4453 H   0  0  0  0  0  0  0  0  0  0  0  0
    8.5795   -6.7462   26.8138 H   0  0  0  0  0  0  0  0  0  0  0  0
    8.9965   -8.0064   25.6368 H   0  0  0  0  0  0  0  0  0  0  0  0
    8.9776   -4.7057   26.5317 H   0  0  0  0  0  0  0  0  0  0  0  0
  1  3  2  0  0  0  0
  1  9  1  0  0  0  0
  2  4  1  0  0  0  0
  2  9  2  0  0  0  0
  3 10  1  0  0  0  0
  4 10  2  0  0  0  0
  5  6  2  0  0  0  0
  5  8  1  0  0  0  0
  6 30  1  0  0  0  0
  7  8  2  0  0  0  0
  7 30  1  0  0  0  0
  8 20  1  0  0  0  0
  9 26  1  0  0  0  0
 10 27  1  0  0  0  0
 11 13  1  0  0  0  0
 11 23  2  0  0  0  0
 11 25  1  0  0  0  0
 12 21  1  0  0  0  0
 12 24  2  0  0  0  0
 12 25  1  0  0  0  0
 13 14  2  0  0  0  0
 14 15  1  0  0  0  0
 15 16  2  0  0  0  0
 16 25  1  0  0  0  0
 17 21  1  0  0  0  0
 17 27  1  0  0  0  0
 17 28  2  0  0  0  0
 18 22  1  0  0  0  0
 18 26  1  0  0  0  0
 18 29  2  0  0  0  0
 19 22  1  0  0  0  0
 20 27  1  0  0  0  0
 23 24  1  0  0  0  0
  1 31  1  0  0  0  0
  2 32  1  0  0  0  0
  3 33  1  0  0  0  0
  4 34  1  0  0  0  0
  5 35  1  0  0  0  0
  6 36  1  0  0  0  0
  7 37  1  0  0  0  0
 13 38  1  0  0  0  0
 14 39  1  0  0  0  0
 15 40  1  0  0  0  0
 16 41  1  0  0  0  0
 19 42  1  0  0  0  0
 19 43  1  0  0  0  0
 19 44  1  0  0  0  0
 20 45  1  0  0  0  0
 20 46  1  0  0  0  0
 21 47  1  0  0  0  0
 21 48  1  0  0  0  0
 22 49  1  0  0  0  0
 22 50  1  0  0  0  0
 26 51  1  0  0  0  0
M  END
> <clash_score>
1.4986520705794621

> <docking_score>
-6.013754367828369

> <overlap_score>
0.965243399143219

$$$$
BENZO_485_1
  -OEChem-08222022203D

 59 63  0     0  0  0  0  0  0999 V2000
   14.1526    1.4694   24.0176 C   0  0  0  0  0  0  0  0  0  0  0  0
   13.3741    0.8121   24.9701 C   0  0  0  0  0  0  0  0  0  0  0  0
   13.5446    2.0802   22.9208 C   0  0  0  0  0  0  0  0  0  0  0  0
   11.9875    0.7654   24.8258 C   0  0  0  0  0  0  0  0  0  0  0  0
   12.1580    2.0335   22.7765 C   0  0  0  0  0  0  0  0  0  0  0  0
    8.9960   -2.3380   25.5320 C   0  0  0  0  0  0  0  0  0  0  0  0
    9.6730   -3.4710   23.5300 C   0  0  0  0  0  0  0  0  0  0  0  0
    9.0720   -1.1280   24.8640 C   0  0  0  0  0  0  0  0  0  0  0  0
    9.7200   -2.2600   22.8630 C   0  0  0  0  0  0  0  0  0  0  0  0
   11.3794    1.3761   23.7290 C   0  0  0  0  0  0  0  0  0  0  0  0
    9.3070   -3.5340   24.8780 C   0  0  0  0  0  0  0  0  0  0  0  0
    9.3350   -1.0880   23.5010 C   0  0  0  0  0  0  0  0  0  0  0  0
    5.8300    0.9190   18.6970 C   0  0  0  0  0  0  0  0  0  0  0  0
    7.3170   -0.1610   19.8550 C   0  0  0  0  0  0  0  0  0  0  0  0
    4.6890    1.6810   18.4640 C   0  0  0  0  0  0  0  0  0  0  0  0
    3.9160    2.0630   19.5520 C   0  0  0  0  0  0  0  0  0  0  0  0
    4.2750    1.7050   20.8490 C   0  0  0  0  0  0  0  0  0  0  0  0
    5.4210    0.9600   21.0930 C   0  0  0  0  0  0  0  0  0  0  0  0
    9.0420    0.3700   21.5280 C   0  0  0  0  0  0  0  0  0  0  0  0
    7.3635   -6.1361   27.1888 C   0  0  0  0  0  0  0  0  0  0  0  0
    8.1961   -4.9735   27.7341 C   0  0  0  0  0  0  0  0  0  0  0  0
    7.1942   -6.0394   25.6709 C   0  0  0  0  0  0  0  0  0  0  0  0
    9.5196   -4.8490   26.9797 C   0  0  0  0  0  0  0  0  0  0  0  0
    8.5442   -5.8838   24.9639 C   0  0  0  0  0  0  0  0  0  0  0  0
    9.8870    1.3260   23.5730 C   0  0  0  0  0  0  0  0  0  0  0  0
    8.1890   -0.7180   20.8700 C   0  0  0  0  0  0  0  0  0  0  0  0
    6.7580    0.3810   17.8350 N   0  0  0  0  0  0  0  0  0  0  0  0
    7.6390   -0.2680   18.5410 N   0  0  0  0  0  0  0  0  0  0  0  0
    6.1790    0.5730   19.9990 N   0  0  0  0  0  0  0  0  0  0  0  0
    9.2562   -4.7384   25.5422 N   0  0  0  0  0  0  0  0  0  0  0  0
    9.4560    0.1560   22.8130 N   0  0  0  0  0  0  0  0  0  0  0  0
    9.2690    1.4140   20.9380 O   0  0  0  0  0  0  0  0  0  0  0  0
   15.2322    1.5068   24.1308 H   0  0  0  0  0  0  0  0  0  0  0  0
   13.8473    0.3374   25.8248 H   0  0  0  0  0  0  0  0  0  0  0  0
   14.1503    2.5930   22.1795 H   0  0  0  0  0  0  0  0  0  0  0  0
   11.3889    0.2508   25.5729 H   0  0  0  0  0  0  0  0  0  0  0  0
   11.6930    2.5120   21.9187 H   0  0  0  0  0  0  0  0  0  0  0  0
    8.6905   -2.3533   26.5810 H   0  0  0  0  0  0  0  0  0  0  0  0
    9.9266   -4.3896   22.9917 H   0  0  0  0  0  0  0  0  0  0  0  0
    8.9233   -0.1992   25.4231 H   0  0  0  0  0  0  0  0  0  0  0  0
   10.0650   -2.2330   21.8256 H   0  0  0  0  0  0  0  0  0  0  0  0
    4.3966    1.9781   17.4720 H   0  0  0  0  0  0  0  0  0  0  0  0
    3.0227    2.6498   19.3695 H   0  0  0  0  0  0  0  0  0  0  0  0
    3.6570    2.0037   21.7071 H   0  0  0  0  0  0  0  0  0  0  0  0
    5.7202    0.6868   22.0802 H   0  0  0  0  0  0  0  0  0  0  0  0
    7.8482   -7.0901   27.4469 H   0  0  0  0  0  0  0  0  0  0  0  0
    6.3760   -6.1438   27.6724 H   0  0  0  0  0  0  0  0  0  0  0  0
    7.6307   -4.0424   27.6403 H   0  0  0  0  0  0  0  0  0  0  0  0
    8.3915   -5.1310   28.7968 H   0  0  0  0  0  0  0  0  0  0  0  0
    6.6888   -6.9376   25.3010 H   0  0  0  0  0  0  0  0  0  0  0  0
    6.5515   -5.1859   25.4257 H   0  0  0  0  0  0  0  0  0  0  0  0
   10.0492   -3.9640   27.3414 H   0  0  0  0  0  0  0  0  0  0  0  0
   10.1431   -5.7254   27.1778 H   0  0  0  0  0  0  0  0  0  0  0  0
    9.1338   -6.7931   25.0868 H   0  0  0  0  0  0  0  0  0  0  0  0
    8.3656   -5.7264   23.8998 H   0  0  0  0  0  0  0  0  0  0  0  0
    9.3974    1.2912   24.5523 H   0  0  0  0  0  0  0  0  0  0  0  0
    9.5159    2.2168   23.0554 H   0  0  0  0  0  0  0  0  0  0  0  0
    7.5972   -1.2056   21.6500 H   0  0  0  0  0  0  0  0  0  0  0  0
    8.8612   -1.4622   20.4334 H   0  0  0  0  0  0  0  0  0  0  0  0
  1  2  1  0  0  0  0
  1  3  2  0  0  0  0
  2  4  2  0  0  0  0
  3  5  1  0  0  0  0
  4 10  1  0  0  0  0
  5 10  2  0  0  0  0
  6  8  2  0  0  0  0
  6 11  1  0  0  0  0
  7  9  1  0  0  0  0
  7 11  2  0  0  0  0
  8 12  1  0  0  0  0
  9 12  2  0  0  0  0
 10 25  1  0  0  0  0
 11 30  1  0  0  0  0
 12 31  1  0  0  0  0
 13 15  1  0  0  0  0
 13 27  2  0  0  0  0
 13 29  1  0  0  0  0
 14 26  1  0  0  0  0
 14 28  2  0  0  0  0
 14 29  1  0  0  0  0
 15 16  2  0  0  0  0
 16 17  1  0  0  0  0
 17 18  2  0  0  0  0
 18 29  1  0  0  0  0
 19 26  1  0  0  0  0
 19 31  1  0  0  0  0
 19 32  2  0  0  0  0
 20 21  1  0  0  0  0
 20 22  1  0  0  0  0
 21 23  1  0  0  0  0
 22 24  1  0  0  0  0
 23 30  1  0  0  0  0
 24 30  1  0  0  0  0
 25 31  1  0  0  0  0
 27 28  1  0  0  0  0
  1 33  1  0  0  0  0
  2 34  1  0  0  0  0
  3 35  1  0  0  0  0
  4 36  1  0  0  0  0
  5 37  1  0  0  0  0
  6 38  1  0  0  0  0
  7 39  1  0  0  0  0
  8 40  1  0  0  0  0
  9 41  1  0  0  0  0
 15 42  1  0  0  0  0
 16 43  1  0  0  0  0
 17 44  1  0  0  0  0
 18 45  1  0  0  0  0
 20 46  1  0  0  0  0
 20 47  1  0  0  0  0
 21 48  1  0  0  0  0
 21 49  1  0  0  0  0
 22 50  1  0  0  0  0
 22 51  1  0  0  0  0
 23 52  1  0  0  0  0
 23 53  1  0  0  0  0
 24 54  1  0  0  0  0
 24 55  1  0  0  0  0
 25 56  1  0  0  0  0
 25 57  1  0  0  0  0
 26 58  1  0  0  0  0
 26 59  1  0  0  0  0
M  END
> <clash_score>
0

> <docking_score>
-9.030623435974121

> <overlap_score>
0.9931821227073669

$$$$
BENZO_484_1
  -OEChem-08222022203D

 56 60  0     0  0  0  0  0  0999 V2000
    8.9960   -2.3380   25.5320 C   0  0  0  0  0  0  0  0  0  0  0  0
    9.6730   -3.4710   23.5300 C   0  0  0  0  0  0  0  0  0  0  0  0
    9.0720   -1.1280   24.8640 C   0  0  0  0  0  0  0  0  0  0  0  0
    9.7200   -2.2600   22.8630 C   0  0  0  0  0  0  0  0  0  0  0  0
   12.2913    1.4279   22.6355 C   0  0  0  0  0  0  0  0  0  0  0  0
   13.6024    1.4662   23.0564 C   0  0  0  0  0  0  0  0  0  0  0  0
   12.0284    1.3764   24.9443 C   0  0  0  0  0  0  0  0  0  0  0  0
   11.3794    1.3761   23.7290 C   0  0  0  0  0  0  0  0  0  0  0  0
    9.3070   -3.5340   24.8780 C   0  0  0  0  0  0  0  0  0  0  0  0
    9.3350   -1.0880   23.5010 C   0  0  0  0  0  0  0  0  0  0  0  0
    5.8300    0.9190   18.6970 C   0  0  0  0  0  0  0  0  0  0  0  0
    7.3170   -0.1610   19.8550 C   0  0  0  0  0  0  0  0  0  0  0  0
    4.6890    1.6810   18.4640 C   0  0  0  0  0  0  0  0  0  0  0  0
    3.9160    2.0630   19.5520 C   0  0  0  0  0  0  0  0  0  0  0  0
    4.2750    1.7050   20.8490 C   0  0  0  0  0  0  0  0  0  0  0  0
    5.4210    0.9600   21.0930 C   0  0  0  0  0  0  0  0  0  0  0  0
    9.0420    0.3700   21.5280 C   0  0  0  0  0  0  0  0  0  0  0  0
    7.2235   -6.6199   26.3009 C   0  0  0  0  0  0  0  0  0  0  0  0
    7.4293   -5.3101   27.0652 C   0  0  0  0  0  0  0  0  0  0  0  0
    7.7217   -6.5099   24.8580 C   0  0  0  0  0  0  0  0  0  0  0  0
    8.8782   -4.8357   26.9548 C   0  0  0  0  0  0  0  0  0  0  0  0
    9.1652   -6.0007   24.7995 C   0  0  0  0  0  0  0  0  0  0  0  0
    9.8870    1.3260   23.5730 C   0  0  0  0  0  0  0  0  0  0  0  0
    8.1890   -0.7180   20.8700 C   0  0  0  0  0  0  0  0  0  0  0  0
    6.7580    0.3810   17.8350 N   0  0  0  0  0  0  0  0  0  0  0  0
    7.6390   -0.2680   18.5410 N   0  0  0  0  0  0  0  0  0  0  0  0
    6.1790    0.5730   19.9990 N   0  0  0  0  0  0  0  0  0  0  0  0
    9.2562   -4.7384   25.5422 N   0  0  0  0  0  0  0  0  0  0  0  0
    9.4560    0.1560   22.8130 N   0  0  0  0  0  0  0  0  0  0  0  0
    9.2690    1.4140   20.9380 O   0  0  0  0  0  0  0  0  0  0  0  0
   13.7301    1.4394   24.7638 S   0  0  0  0  0  0  0  0  0  0  0  0
    8.6905   -2.3533   26.5810 H   0  0  0  0  0  0  0  0  0  0  0  0
    9.9266   -4.3896   22.9917 H   0  0  0  0  0  0  0  0  0  0  0  0
    8.9233   -0.1992   25.4231 H   0  0  0  0  0  0  0  0  0  0  0  0
   10.0650   -2.2330   21.8256 H   0  0  0  0  0  0  0  0  0  0  0  0
   12.0045    1.4365   21.5915 H   0  0  0  0  0  0  0  0  0  0  0  0
   14.4914    1.5078   22.4431 H   0  0  0  0  0  0  0  0  0  0  0  0
   11.5886    1.3416   25.9314 H   0  0  0  0  0  0  0  0  0  0  0  0
    4.3966    1.9781   17.4720 H   0  0  0  0  0  0  0  0  0  0  0  0
    3.0227    2.6498   19.3695 H   0  0  0  0  0  0  0  0  0  0  0  0
    3.6570    2.0037   21.7071 H   0  0  0  0  0  0  0  0  0  0  0  0
    5.7202    0.6868   22.0802 H   0  0  0  0  0  0  0  0  0  0  0  0
    7.7559   -7.4347   26.8149 H   0  0  0  0  0  0  0  0  0  0  0  0
    6.1572   -6.8883   26.3055 H   0  0  0  0  0  0  0  0  0  0  0  0
    6.7602   -4.5435   26.6651 H   0  0  0  0  0  0  0  0  0  0  0  0
    7.1684   -5.4551   28.1155 H   0  0  0  0  0  0  0  0  0  0  0  0
    7.6595   -7.4899   24.3736 H   0  0  0  0  0  0  0  0  0  0  0  0
    7.0706   -5.8317   24.2943 H   0  0  0  0  0  0  0  0  0  0  0  0
    8.9681   -3.8621   27.4435 H   0  0  0  0  0  0  0  0  0  0  0  0
    9.5387   -5.5390   27.4697 H   0  0  0  0  0  0  0  0  0  0  0  0
    9.8374   -6.7413   25.2344 H   0  0  0  0  0  0  0  0  0  0  0  0
    9.4414   -5.8515   23.7552 H   0  0  0  0  0  0  0  0  0  0  0  0
    9.3974    1.2912   24.5523 H   0  0  0  0  0  0  0  0  0  0  0  0
    9.5159    2.2168   23.0554 H   0  0  0  0  0  0  0  0  0  0  0  0
    7.5972   -1.2056   21.6500 H   0  0  0  0  0  0  0  0  0  0  0  0
    8.8612   -1.4622   20.4334 H   0  0  0  0  0  0  0  0  0  0  0  0
  1  3  2  0  0  0  0
  1  9  1  0  0  0  0
  2  4  1  0  0  0  0
  2  9  2  0  0  0  0
  3 10  1  0  0  0  0
  4 10  2  0  0  0  0
  5  6  2  0  0  0  0
  5  8  1  0  0  0  0
  6 31  1  0  0  0  0
  7  8  2  0  0  0  0
  7 31  1  0  0  0  0
  8 23  1  0  0  0  0
  9 28  1  0  0  0  0
 10 29  1  0  0  0  0
 11 13  1  0  0  0  0
 11 25  2  0  0  0  0
 11 27  1  0  0  0  0
 12 24  1  0  0  0  0
 12 26  2  0  0  0  0
 12 27  1  0  0  0  0
 13 14  2  0  0  0  0
 14 15  1  0  0  0  0
 15 16  2  0  0  0  0
 16 27  1  0  0  0  0
 17 24  1  0  0  0  0
 17 29  1  0  0  0  0
 17 30  2  0  0  0  0
 18 19  1  0  0  0  0
 18 20  1  0  0  0  0
 19 21  1  0  0  0  0
 20 22  1  0  0  0  0
 21 28  1  0  0  0  0
 22 28  1  0  0  0  0
 23 29  1  0  0  0  0
 25 26  1  0  0  0  0
  1 32  1  0  0  0  0
  2 33  1  0  0  0  0
  3 34  1  0  0  0  0
  4 35  1  0  0  0  0
  5 36  1  0  0  0  0
  6 37  1  0  0  0  0
  7 38  1  0  0  0  0
 13 39  1  0  0  0  0
 14 40  1  0  0  0  0
 15 41  1  0  0  0  0
 16 42  1  0  0  0  0
 18 43  1  0  0  0  0
 18 44  1  0  0  0  0
 19 45  1  0  0  0  0
 19 46  1  0  0  0  0
 20 47  1  0  0  0  0
 20 48  1  0  0  0  0
 21 49  1  0  0  0  0
 21 50  1  0  0  0  0
 22 51  1  0  0  0  0
 22 52  1  0  0  0  0
 23 53  1  0  0  0  0
 23 54  1  0  0  0  0
 24 55  1  0  0  0  0
 24 56  1  0  0  0  0
M  END
> <clash_score>
0

> <docking_score>
-8.933111190795898

> <overlap_score>
0.9782362580299377

$$$$
BENZO_483_1
  -OEChem-08222022203D

 54 57  0     0  0  0  0  0  0999 V2000
    8.9960   -2.3380   25.5320 C   0  0  0  0  0  0  0  0  0  0  0  0
    9.6730   -3.4710   23.5300 C   0  0  0  0  0  0  0  0  0  0  0  0
    9.0720   -1.1280   24.8640 C   0  0  0  0  0  0  0  0  0  0  0  0
    9.7200   -2.2600   22.8630 C   0  0  0  0  0  0  0  0  0  0  0  0
   12.2914    2.2071   23.0512 C   0  0  0  0  0  0  0  0  0  0  0  0
   12.1614    0.6214   24.5689 C   0  0  0  0  0  0  0  0  0  0  0  0
   11.3794    1.3761   23.7290 C   0  0  0  0  0  0  0  0  0  0  0  0
    9.3070   -3.5340   24.8780 C   0  0  0  0  0  0  0  0  0  0  0  0
    9.3350   -1.0880   23.5010 C   0  0  0  0  0  0  0  0  0  0  0  0
    5.8300    0.9190   18.6970 C   0  0  0  0  0  0  0  0  0  0  0  0
    7.3170   -0.1610   19.8550 C   0  0  0  0  0  0  0  0  0  0  0  0
    4.6890    1.6810   18.4640 C   0  0  0  0  0  0  0  0  0  0  0  0
    3.9160    2.0630   19.5520 C   0  0  0  0  0  0  0  0  0  0  0  0
    4.2750    1.7050   20.8490 C   0  0  0  0  0  0  0  0  0  0  0  0
    5.4210    0.9600   21.0930 C   0  0  0  0  0  0  0  0  0  0  0  0
    9.0420    0.3700   21.5280 C   0  0  0  0  0  0  0  0  0  0  0  0
    9.5333   -6.0236   25.0414 C   0  0  0  0  0  0  0  0  0  0  0  0
   10.6329   -7.3747   26.8775 C   0  0  0  0  0  0  0  0  0  0  0  0
   14.6267    0.5248   25.0067 C   0  0  0  0  0  0  0  0  0  0  0  0
    9.8870    1.3260   23.5730 C   0  0  0  0  0  0  0  0  0  0  0  0
    8.1890   -0.7180   20.8700 C   0  0  0  0  0  0  0  0  0  0  0  0
    9.3522   -7.0865   26.1149 C   0  0  0  0  0  0  0  0  0  0  0  0
   13.5560    2.0002   23.4280 N   0  0  0  0  0  0  0  0  0  0  0  0
    6.7580    0.3810   17.8350 N   0  0  0  0  0  0  0  0  0  0  0  0
    7.6390   -0.2680   18.5410 N   0  0  0  0  0  0  0  0  0  0  0  0
   13.4442    1.0306   24.3518 N   0  0  0  0  0  0  0  0  0  0  0  0
    6.1790    0.5730   19.9990 N   0  0  0  0  0  0  0  0  0  0  0  0
    9.2546   -4.7422   25.5438 N   0  0  0  0  0  0  0  0  0  0  0  0
    9.4560    0.1560   22.8130 N   0  0  0  0  0  0  0  0  0  0  0  0
    9.2690    1.4140   20.9380 O   0  0  0  0  0  0  0  0  0  0  0  0
    9.8805   -6.3053   23.8992 O   0  0  0  0  0  0  0  0  0  0  0  0
    8.6895   -2.3529   26.5807 H   0  0  0  0  0  0  0  0  0  0  0  0
    9.9262   -4.3897   22.9916 H   0  0  0  0  0  0  0  0  0  0  0  0
    8.9224   -0.1998   25.4238 H   0  0  0  0  0  0  0  0  0  0  0  0
   10.0649   -2.2343   21.8258 H   0  0  0  0  0  0  0  0  0  0  0  0
   12.0895    2.9562   22.2987 H   0  0  0  0  0  0  0  0  0  0  0  0
   11.9201   -0.1518   25.2857 H   0  0  0  0  0  0  0  0  0  0  0  0
    4.3966    1.9781   17.4720 H   0  0  0  0  0  0  0  0  0  0  0  0
    3.0227    2.6498   19.3695 H   0  0  0  0  0  0  0  0  0  0  0  0
    3.6570    2.0037   21.7071 H   0  0  0  0  0  0  0  0  0  0  0  0
    5.7202    0.6868   22.0802 H   0  0  0  0  0  0  0  0  0  0  0  0
   11.4241   -7.7171   26.2024 H   0  0  0  0  0  0  0  0  0  0  0  0
   10.4628   -8.1531   27.6276 H   0  0  0  0  0  0  0  0  0  0  0  0
   10.9949   -6.4779   27.3911 H   0  0  0  0  0  0  0  0  0  0  0  0
   15.0068   -0.3132   24.4165 H   0  0  0  0  0  0  0  0  0  0  0  0
   15.3758    1.3189   25.0699 H   0  0  0  0  0  0  0  0  0  0  0  0
   14.3675    0.1958   26.0170 H   0  0  0  0  0  0  0  0  0  0  0  0
    9.3974    1.2912   24.5523 H   0  0  0  0  0  0  0  0  0  0  0  0
    9.5159    2.2168   23.0554 H   0  0  0  0  0  0  0  0  0  0  0  0
    7.6082   -1.2086   21.6619 H   0  0  0  0  0  0  0  0  0  0  0  0
    8.8721   -1.4652   20.4453 H   0  0  0  0  0  0  0  0  0  0  0  0
    8.5795   -6.7462   26.8138 H   0  0  0  0  0  0  0  0  0  0  0  0
    8.9965   -8.0064   25.6368 H   0  0  0  0  0  0  0  0  0  0  0  0
    8.9776   -4.7057   26.5317 H   0  0  0  0  0  0  0  0  0  0  0  0
  1  3  2  0  0  0  0
  1  8  1  0  0  0  0
  2  4  1  0  0  0  0
  2  8  2  0  0  0  0
  3  9  1  0  0  0  0
  4  9  2  0  0  0  0
  5  7  1  0  0  0  0
  5 23  2  0  0  0  0
  6  7  2  0  0  0  0
  6 26  1  0  0  0  0
  7 20  1  0  0  0  0
  8 28  1  0  0  0  0
  9 29  1  0  0  0  0
 10 12  1  0  0  0  0
 10 24  2  0  0  0  0
 10 27  1  0  0  0  0
 11 21  1  0  0  0  0
 11 25  2  0  0  0  0
 11 27  1  0  0  0  0
 12 13  2  0  0  0  0
 13 14  1  0  0  0  0
 14 15  2  0  0  0  0
 15 27  1  0  0  0  0
 16 21  1  0  0  0  0
 16 29  1  0  0  0  0
 16 30  2  0  0  0  0
 17 22  1  0  0  0  0
 17 28  1  0  0  0  0
 17 31  2  0  0  0  0
 18 22  1  0  0  0  0
 19 26  1  0  0  0  0
 20 29  1  0  0  0  0
 23 26  1  0  0  0  0
 24 25  1  0  0  0  0
  1 32  1  0  0  0  0
  2 33  1  0  0  0  0
  3 34  1  0  0  0  0
  4 35  1  0  0  0  0
  5 36  1  0  0  0  0
  6 37  1  0  0  0  0
 12 38  1  0  0  0  0
 13 39  1  0  0  0  0
 14 40  1  0  0  0  0
 15 41  1  0  0  0  0
 18 42  1  0  0  0  0
 18 43  1  0  0  0  0
 18 44  1  0  0  0  0
 19 45  1  0  0  0  0
 19 46  1  0  0  0  0
 19 47  1  0  0  0  0
 20 48  1  0  0  0  0
 20 49  1  0  0  0  0
 21 50  1  0  0  0  0
 21 51  1  0  0  0  0
 22 52  1  0  0  0  0
 22 53  1  0  0  0  0
 28 54  1  0  0  0  0
M  END
> <clash_score>
2.118596599974077

> <docking_score>
-6.448566436767578

> <overlap_score>
0.9790103435516357

$$$$
BENZO_482_1
  -OEChem-08222022203D

 54 57  0     0  0  0  0  0  0999 V2000
   13.4007    0.5725   24.7805 C   0  0  0  0  0  0  0  0  0  0  0  0
   12.0141    0.5273   24.6359 C   0  0  0  0  0  0  0  0  0  0  0  0
    8.9960   -2.3380   25.5320 C   0  0  0  0  0  0  0  0  0  0  0  0
    9.6730   -3.4710   23.5300 C   0  0  0  0  0  0  0  0  0  0  0  0
    9.0720   -1.1280   24.8640 C   0  0  0  0  0  0  0  0  0  0  0  0
    9.7200   -2.2600   22.8630 C   0  0  0  0  0  0  0  0  0  0  0  0
   14.1526    1.4666   24.0184 C   0  0  0  0  0  0  0  0  0  0  0  0
   12.1314    2.2702   22.9668 C   0  0  0  0  0  0  0  0  0  0  0  0
   11.3794    1.3761   23.7290 C   0  0  0  0  0  0  0  0  0  0  0  0
    9.3070   -3.5340   24.8780 C   0  0  0  0  0  0  0  0  0  0  0  0
    9.3350   -1.0880   23.5010 C   0  0  0  0  0  0  0  0  0  0  0  0
   13.5180    2.3154   23.1115 C   0  0  0  0  0  0  0  0  0  0  0  0
    5.8300    0.9190   18.6970 C   0  0  0  0  0  0  0  0  0  0  0  0
    7.3170   -0.1610   19.8550 C   0  0  0  0  0  0  0  0  0  0  0  0
    4.6890    1.6810   18.4640 C   0  0  0  0  0  0  0  0  0  0  0  0
    3.9160    2.0630   19.5520 C   0  0  0  0  0  0  0  0  0  0  0  0
    4.2750    1.7050   20.8490 C   0  0  0  0  0  0  0  0  0  0  0  0
    5.4210    0.9600   21.0930 C   0  0  0  0  0  0  0  0  0  0  0  0
    9.0420    0.3700   21.5280 C   0  0  0  0  0  0  0  0  0  0  0  0
    9.5333   -6.0236   25.0414 C   0  0  0  0  0  0  0  0  0  0  0  0
   10.6329   -7.3747   26.8775 C   0  0  0  0  0  0  0  0  0  0  0  0
    9.8870    1.3260   23.5730 C   0  0  0  0  0  0  0  0  0  0  0  0
    8.1890   -0.7180   20.8700 C   0  0  0  0  0  0  0  0  0  0  0  0
    9.3522   -7.0865   26.1149 C   0  0  0  0  0  0  0  0  0  0  0  0
    6.7580    0.3810   17.8350 N   0  0  0  0  0  0  0  0  0  0  0  0
    7.6390   -0.2680   18.5410 N   0  0  0  0  0  0  0  0  0  0  0  0
    6.1790    0.5730   19.9990 N   0  0  0  0  0  0  0  0  0  0  0  0
    9.2546   -4.7422   25.5438 N   0  0  0  0  0  0  0  0  0  0  0  0
    9.4560    0.1560   22.8130 N   0  0  0  0  0  0  0  0  0  0  0  0
    9.2690    1.4140   20.9380 O   0  0  0  0  0  0  0  0  0  0  0  0
    9.8805   -6.3053   23.8992 O   0  0  0  0  0  0  0  0  0  0  0  0
   14.4463    3.4175   22.1707 Cl  0  0  0  0  0  0  0  0  0  0  0  0
   13.8945   -0.0888   25.4867 H   0  0  0  0  0  0  0  0  0  0  0  0
   11.4361   -0.1726   25.2338 H   0  0  0  0  0  0  0  0  0  0  0  0
    8.6895   -2.3529   26.5807 H   0  0  0  0  0  0  0  0  0  0  0  0
    9.9262   -4.3897   22.9916 H   0  0  0  0  0  0  0  0  0  0  0  0
    8.9224   -0.1998   25.4238 H   0  0  0  0  0  0  0  0  0  0  0  0
   10.0649   -2.2343   21.8258 H   0  0  0  0  0  0  0  0  0  0  0  0
   15.2326    1.4907   24.1414 H   0  0  0  0  0  0  0  0  0  0  0  0
   11.6318    2.9303   22.2615 H   0  0  0  0  0  0  0  0  0  0  0  0
    4.3966    1.9781   17.4720 H   0  0  0  0  0  0  0  0  0  0  0  0
    3.0227    2.6498   19.3695 H   0  0  0  0  0  0  0  0  0  0  0  0
    3.6570    2.0037   21.7071 H   0  0  0  0  0  0  0  0  0  0  0  0
    5.7202    0.6868   22.0802 H   0  0  0  0  0  0  0  0  0  0  0  0
   11.4241   -7.7171   26.2024 H   0  0  0  0  0  0  0  0  0  0  0  0
   10.4628   -8.1531   27.6276 H   0  0  0  0  0  0  0  0  0  0  0  0
   10.9949   -6.4779   27.3911 H   0  0  0  0  0  0  0  0  0  0  0  0
    9.3974    1.2912   24.5523 H   0  0  0  0  0  0  0  0  0  0  0  0
    9.5159    2.2168   23.0554 H   0  0  0  0  0  0  0  0  0  0  0  0
    7.6082   -1.2086   21.6619 H   0  0  0  0  0  0  0  0  0  0  0  0
    8.8721   -1.4652   20.4453 H   0  0  0  0  0  0  0  0  0  0  0  0
    8.5795   -6.7462   26.8138 H   0  0  0  0  0  0  0  0  0  0  0  0
    8.9965   -8.0064   25.6368 H   0  0  0  0  0  0  0  0  0  0  0  0
    8.9776   -4.7057   26.5317 H   0  0  0  0  0  0  0  0  0  0  0  0
  1  2  2  0  0  0  0
  1  7  1  0  0  0  0
  2  9  1  0  0  0  0
  3  5  2  0  0  0  0
  3 10  1  0  0  0  0
  4  6  1  0  0  0  0
  4 10  2  0  0  0  0
  5 11  1  0  0  0  0
  6 11  2  0  0  0  0
  7 12  2  0  0  0  0
  8  9  2  0  0  0  0
  8 12  1  0  0  0  0
  9 22  1  0  0  0  0
 10 28  1  0  0  0  0
 11 29  1  0  0  0  0
 12 32  1  0  0  0  0
 13 15  1  0  0  0  0
 13 25  2  0  0  0  0
 13 27  1  0  0  0  0
 14 23  1  0  0  0  0
 14 26  2  0  0  0  0
 14 27  1  0  0  0  0
 15 16  2  0  0  0  0
 16 17  1  0  0  0  0
 17 18  2  0  0  0  0
 18 27  1  0  0  0  0
 19 23  1  0  0  0  0
 19 29  1  0  0  0  0
 19 30  2  0  0  0  0
 20 24  1  0  0  0  0
 20 28  1  0  0  0  0
 20 31  2  0  0  0  0
 21 24  1  0  0  0  0
 22 29  1  0  0  0  0
 25 26  1  0  0  0  0
  1 33  1  0  0  0  0
  2 34  1  0  0  0  0
  3 35  1  0  0  0  0
  4 36  1  0  0  0  0
  5 37  1  0  0  0  0
  6 38  1  0  0  0  0
  7 39  1  0  0  0  0
  8 40  1  0  0  0  0
 15 41  1  0  0  0  0
 16 42  1  0  0  0  0
 17 43  1  0  0  0  0
 18 44  1  0  0  0  0
 21 45  1  0  0  0  0
 21 46  1  0  0  0  0
 21 47  1  0  0  0  0
 22 48  1  0  0  0  0
 22 49  1  0  0  0  0
 23 50  1  0  0  0  0
 23 51  1  0  0  0  0
 24 52  1  0  0  0  0
 24 53  1  0  0  0  0
 28 54  1  0  0  0  0
M  END
> <clash_score>
1.4986520705794621

> <docking_score>
-5.877557754516602

> <overlap_score>
0.9913628697395325

$$$$
BENZO_489_1
  -OEChem-08222022203D

 47 50  0     0  0  0  0  0  0999 V2000
   14.1526    1.4694   24.0176 C   0  0  0  0  0  0  0  0  0  0  0  0
   13.3741    0.8121   24.9701 C   0  0  0  0  0  0  0  0  0  0  0  0
   13.5446    2.0802   22.9208 C   0  0  0  0  0  0  0  0  0  0  0  0
   11.9875    0.7654   24.8258 C   0  0  0  0  0  0  0  0  0  0  0  0
   12.1580    2.0335   22.7765 C   0  0  0  0  0  0  0  0  0  0  0  0
    8.9960   -2.3380   25.5320 C   0  0  0  0  0  0  0  0  0  0  0  0
    9.6730   -3.4710   23.5300 C   0  0  0  0  0  0  0  0  0  0  0  0
    9.0720   -1.1280   24.8640 C   0  0  0  0  0  0  0  0  0  0  0  0
    9.7200   -2.2600   22.8630 C   0  0  0  0  0  0  0  0  0  0  0  0
    9.3070   -3.5340   24.8780 C   0  0  0  0  0  0  0  0  0  0  0  0
   11.3794    1.3761   23.7290 C   0  0  0  0  0  0  0  0  0  0  0  0
    9.3350   -1.0880   23.5010 C   0  0  0  0  0  0  0  0  0  0  0  0
    5.8300    0.9190   18.6970 C   0  0  0  0  0  0  0  0  0  0  0  0
    7.3170   -0.1610   19.8550 C   0  0  0  0  0  0  0  0  0  0  0  0
    4.6890    1.6810   18.4640 C   0  0  0  0  0  0  0  0  0  0  0  0
    3.9160    2.0630   19.5520 C   0  0  0  0  0  0  0  0  0  0  0  0
    4.2750    1.7050   20.8490 C   0  0  0  0  0  0  0  0  0  0  0  0
    5.4210    0.9600   21.0930 C   0  0  0  0  0  0  0  0  0  0  0  0
    9.0420    0.3700   21.5280 C   0  0  0  0  0  0  0  0  0  0  0  0
    9.2505   -4.8264   25.5904 C   0  0  0  0  0  0  0  0  0  0  0  0
    9.8870    1.3260   23.5730 C   0  0  0  0  0  0  0  0  0  0  0  0
    8.1890   -0.7180   20.8700 C   0  0  0  0  0  0  0  0  0  0  0  0
    6.7580    0.3810   17.8350 N   0  0  0  0  0  0  0  0  0  0  0  0
    7.6390   -0.2680   18.5410 N   0  0  0  0  0  0  0  0  0  0  0  0
    6.1790    0.5730   19.9990 N   0  0  0  0  0  0  0  0  0  0  0  0
    9.4560    0.1560   22.8130 N   0  0  0  0  0  0  0  0  0  0  0  0
    9.2690    1.4140   20.9380 O   0  0  0  0  0  0  0  0  0  0  0  0
   15.2322    1.5068   24.1308 H   0  0  0  0  0  0  0  0  0  0  0  0
   13.8473    0.3374   25.8248 H   0  0  0  0  0  0  0  0  0  0  0  0
   14.1503    2.5930   22.1795 H   0  0  0  0  0  0  0  0  0  0  0  0
   11.3889    0.2508   25.5729 H   0  0  0  0  0  0  0  0  0  0  0  0
   11.6930    2.5120   21.9187 H   0  0  0  0  0  0  0  0  0  0  0  0
    8.6919   -2.3557   26.5813 H   0  0  0  0  0  0  0  0  0  0  0  0
    9.9267   -4.3907   22.9939 H   0  0  0  0  0  0  0  0  0  0  0  0
    8.9217   -0.1995   25.4231 H   0  0  0  0  0  0  0  0  0  0  0  0
   10.0653   -2.2339   21.8256 H   0  0  0  0  0  0  0  0  0  0  0  0
    4.3966    1.9781   17.4720 H   0  0  0  0  0  0  0  0  0  0  0  0
    3.0227    2.6498   19.3695 H   0  0  0  0  0  0  0  0  0  0  0  0
    3.6570    2.0037   21.7071 H   0  0  0  0  0  0  0  0  0  0  0  0
    5.7202    0.6868   22.0802 H   0  0  0  0  0  0  0  0  0  0  0  0
    8.2503   -5.2678   25.5020 H   0  0  0  0  0  0  0  0  0  0  0  0
    9.9817   -5.5374   25.1845 H   0  0  0  0  0  0  0  0  0  0  0  0
    9.4841   -4.7043   26.6562 H   0  0  0  0  0  0  0  0  0  0  0  0
    9.3974    1.2912   24.5523 H   0  0  0  0  0  0  0  0  0  0  0  0
    9.5159    2.2168   23.0554 H   0  0  0  0  0  0  0  0  0  0  0  0
    7.6082   -1.2086   21.6619 H   0  0  0  0  0  0  0  0  0  0  0  0
    8.8721   -1.4652   20.4453 H   0  0  0  0  0  0  0  0  0  0  0  0
  1  2  1  0  0  0  0
  1  3  2  0  0  0  0
  2  4  2  0  0  0  0
  3  5  1  0  0  0  0
  4 11  1  0  0  0  0
  5 11  2  0  0  0  0
  6  8  2  0  0  0  0
  6 10  1  0  0  0  0
  7  9  1  0  0  0  0
  7 10  2  0  0  0  0
  8 12  1  0  0  0  0
  9 12  2  0  0  0  0
 10 20  1  0  0  0  0
 11 21  1  0  0  0  0
 12 26  1  0  0  0  0
 13 15  1  0  0  0  0
 13 23  2  0  0  0  0
 13 25  1  0  0  0  0
 14 22  1  0  0  0  0
 14 24  2  0  0  0  0
 14 25  1  0  0  0  0
 15 16  2  0  0  0  0
 16 17  1  0  0  0  0
 17 18  2  0  0  0  0
 18 25  1  0  0  0  0
 19 22  1  0  0  0  0
 19 26  1  0  0  0  0
 19 27  2  0  0  0  0
 21 26  1  0  0  0  0
 23 24  1  0  0  0  0
  1 28  1  0  0  0  0
  2 29  1  0  0  0  0
  3 30  1  0  0  0  0
  4 31  1  0  0  0  0
  5 32  1  0  0  0  0
  6 33  1  0  0  0  0
  7 34  1  0  0  0  0
  8 35  1  0  0  0  0
  9 36  1  0  0  0  0
 15 37  1  0  0  0  0
 16 38  1  0  0  0  0
 17 39  1  0  0  0  0
 18 40  1  0  0  0  0
 20 41  1  0  0  0  0
 20 42  1  0  0  0  0
 20 43  1  0  0  0  0
 21 44  1  0  0  0  0
 21 45  1  0  0  0  0
 22 46  1  0  0  0  0
 22 47  1  0  0  0  0
M  END
> <clash_score>
0

> <docking_score>
-9.275653839111328

> <overlap_score>
0.9394524097442627

$$$$
BENZO_488_1
  -OEChem-08222022203D

 44 47  0     0  0  0  0  0  0999 V2000
    8.9960   -2.3380   25.5320 C   0  0  0  0  0  0  0  0  0  0  0  0
    9.6730   -3.4710   23.5300 C   0  0  0  0  0  0  0  0  0  0  0  0
    9.0720   -1.1280   24.8640 C   0  0  0  0  0  0  0  0  0  0  0  0
    9.7200   -2.2600   22.8630 C   0  0  0  0  0  0  0  0  0  0  0  0
   12.2111    0.2208   23.7905 C   0  0  0  0  0  0  0  0  0  0  0  0
   13.5412    0.5479   23.9363 C   0  0  0  0  0  0  0  0  0  0  0  0
   12.1057    2.5424   23.8305 C   0  0  0  0  0  0  0  0  0  0  0  0
    9.3070   -3.5340   24.8780 C   0  0  0  0  0  0  0  0  0  0  0  0
   11.3794    1.3761   23.7290 C   0  0  0  0  0  0  0  0  0  0  0  0
    9.3350   -1.0880   23.5010 C   0  0  0  0  0  0  0  0  0  0  0  0
    5.8300    0.9190   18.6970 C   0  0  0  0  0  0  0  0  0  0  0  0
    7.3170   -0.1610   19.8550 C   0  0  0  0  0  0  0  0  0  0  0  0
    4.6890    1.6810   18.4640 C   0  0  0  0  0  0  0  0  0  0  0  0
    3.9160    2.0630   19.5520 C   0  0  0  0  0  0  0  0  0  0  0  0
    4.2750    1.7050   20.8490 C   0  0  0  0  0  0  0  0  0  0  0  0
    5.4210    0.9600   21.0930 C   0  0  0  0  0  0  0  0  0  0  0  0
    9.0420    0.3700   21.5280 C   0  0  0  0  0  0  0  0  0  0  0  0
    9.2505   -4.8264   25.5904 C   0  0  0  0  0  0  0  0  0  0  0  0
    9.8870    1.3260   23.5730 C   0  0  0  0  0  0  0  0  0  0  0  0
    8.1890   -0.7180   20.8700 C   0  0  0  0  0  0  0  0  0  0  0  0
    6.7580    0.3810   17.8350 N   0  0  0  0  0  0  0  0  0  0  0  0
    7.6390   -0.2680   18.5410 N   0  0  0  0  0  0  0  0  0  0  0  0
    6.1790    0.5730   19.9990 N   0  0  0  0  0  0  0  0  0  0  0  0
    9.4560    0.1560   22.8130 N   0  0  0  0  0  0  0  0  0  0  0  0
    9.2690    1.4140   20.9380 O   0  0  0  0  0  0  0  0  0  0  0  0
   13.7831    2.2420   23.9988 S   0  0  0  0  0  0  0  0  0  0  0  0
    8.6919   -2.3557   26.5813 H   0  0  0  0  0  0  0  0  0  0  0  0
    9.9267   -4.3907   22.9939 H   0  0  0  0  0  0  0  0  0  0  0  0
    8.9217   -0.1995   25.4231 H   0  0  0  0  0  0  0  0  0  0  0  0
   10.0653   -2.2339   21.8256 H   0  0  0  0  0  0  0  0  0  0  0  0
   11.8558   -0.8003   23.7315 H   0  0  0  0  0  0  0  0  0  0  0  0
   14.3824   -0.1267   24.0100 H   0  0  0  0  0  0  0  0  0  0  0  0
   11.7354    3.5581   23.8155 H   0  0  0  0  0  0  0  0  0  0  0  0
    4.3966    1.9781   17.4720 H   0  0  0  0  0  0  0  0  0  0  0  0
    3.0227    2.6498   19.3695 H   0  0  0  0  0  0  0  0  0  0  0  0
    3.6570    2.0037   21.7071 H   0  0  0  0  0  0  0  0  0  0  0  0
    5.7202    0.6868   22.0802 H   0  0  0  0  0  0  0  0  0  0  0  0
    8.2503   -5.2678   25.5020 H   0  0  0  0  0  0  0  0  0  0  0  0
    9.9817   -5.5374   25.1845 H   0  0  0  0  0  0  0  0  0  0  0  0
    9.4841   -4.7043   26.6562 H   0  0  0  0  0  0  0  0  0  0  0  0
    9.3974    1.2912   24.5523 H   0  0  0  0  0  0  0  0  0  0  0  0
    9.5159    2.2168   23.0554 H   0  0  0  0  0  0  0  0  0  0  0  0
    7.6082   -1.2086   21.6619 H   0  0  0  0  0  0  0  0  0  0  0  0
    8.8721   -1.4652   20.4453 H   0  0  0  0  0  0  0  0  0  0  0  0
  1  3  2  0  0  0  0
  1  8  1  0  0  0  0
  2  4  1  0  0  0  0
  2  8  2  0  0  0  0
  3 10  1  0  0  0  0
  4 10  2  0  0  0  0
  5  6  2  0  0  0  0
  5  9  1  0  0  0  0
  6 26  1  0  0  0  0
  7  9  2  0  0  0  0
  7 26  1  0  0  0  0
  8 18  1  0  0  0  0
  9 19  1  0  0  0  0
 10 24  1  0  0  0  0
 11 13  1  0  0  0  0
 11 21  2  0  0  0  0
 11 23  1  0  0  0  0
 12 20  1  0  0  0  0
 12 22  2  0  0  0  0
 12 23  1  0  0  0  0
 13 14  2  0  0  0  0
 14 15  1  0  0  0  0
 15 16  2  0  0  0  0
 16 23  1  0  0  0  0
 17 20  1  0  0  0  0
 17 24  1  0  0  0  0
 17 25  2  0  0  0  0
 19 24  1  0  0  0  0
 21 22  1  0  0  0  0
  1 27  1  0  0  0  0
  2 28  1  0  0  0  0
  3 29  1  0  0  0  0
  4 30  1  0  0  0  0
  5 31  1  0  0  0  0
  6 32  1  0  0  0  0
  7 33  1  0  0  0  0
 13 34  1  0  0  0  0
 14 35  1  0  0  0  0
 15 36  1  0  0  0  0
 16 37  1  0  0  0  0
 18 38  1  0  0  0  0
 18 39  1  0  0  0  0
 18 40  1  0  0  0  0
 19 41  1  0  0  0  0
 19 42  1  0  0  0  0
 20 43  1  0  0  0  0
 20 44  1  0  0  0  0
M  END
> <clash_score>
0

> <docking_score>
-8.548831939697266

> <overlap_score>
0.9242714047431946

$$$$
BENZO_487_1
  -OEChem-08222022203D

 59 63  0     0  0  0  0  0  0999 V2000
    8.9960   -2.3380   25.5320 C   0  0  0  0  0  0  0  0  0  0  0  0
    9.6730   -3.4710   23.5300 C   0  0  0  0  0  0  0  0  0  0  0  0
    9.0720   -1.1280   24.8640 C   0  0  0  0  0  0  0  0  0  0  0  0
    9.7200   -2.2600   22.8630 C   0  0  0  0  0  0  0  0  0  0  0  0
   12.1233    1.3811   24.9242 C   0  0  0  0  0  0  0  0  0  0  0  0
   12.3261    1.4247   22.7351 C   0  0  0  0  0  0  0  0  0  0  0  0
   11.3794    1.3761   23.7290 C   0  0  0  0  0  0  0  0  0  0  0  0
    9.3070   -3.5340   24.8780 C   0  0  0  0  0  0  0  0  0  0  0  0
    9.3350   -1.0880   23.5010 C   0  0  0  0  0  0  0  0  0  0  0  0
    5.8300    0.9190   18.6970 C   0  0  0  0  0  0  0  0  0  0  0  0
    7.3170   -0.1610   19.8550 C   0  0  0  0  0  0  0  0  0  0  0  0
    4.6890    1.6810   18.4640 C   0  0  0  0  0  0  0  0  0  0  0  0
    3.9160    2.0630   19.5520 C   0  0  0  0  0  0  0  0  0  0  0  0
    4.2750    1.7050   20.8490 C   0  0  0  0  0  0  0  0  0  0  0  0
    5.4210    0.9600   21.0930 C   0  0  0  0  0  0  0  0  0  0  0  0
    9.0420    0.3700   21.5280 C   0  0  0  0  0  0  0  0  0  0  0  0
    7.3635   -6.1361   27.1888 C   0  0  0  0  0  0  0  0  0  0  0  0
    8.1961   -4.9735   27.7341 C   0  0  0  0  0  0  0  0  0  0  0  0
    7.1942   -6.0394   25.6709 C   0  0  0  0  0  0  0  0  0  0  0  0
    9.5196   -4.8490   26.9797 C   0  0  0  0  0  0  0  0  0  0  0  0
    8.5442   -5.8838   24.9639 C   0  0  0  0  0  0  0  0  0  0  0  0
   14.8305    1.5084   22.7418 C   0  0  0  0  0  0  0  0  0  0  0  0
    9.8870    1.3260   23.5730 C   0  0  0  0  0  0  0  0  0  0  0  0
    8.1890   -0.7180   20.8700 C   0  0  0  0  0  0  0  0  0  0  0  0
   13.4410    1.4289   24.7112 N   0  0  0  0  0  0  0  0  0  0  0  0
    6.7580    0.3810   17.8350 N   0  0  0  0  0  0  0  0  0  0  0  0
    7.6390   -0.2680   18.5410 N   0  0  0  0  0  0  0  0  0  0  0  0
   13.5326    1.4543   23.3706 N   0  0  0  0  0  0  0  0  0  0  0  0
    6.1790    0.5730   19.9990 N   0  0  0  0  0  0  0  0  0  0  0  0
    9.2562   -4.7384   25.5422 N   0  0  0  0  0  0  0  0  0  0  0  0
    9.4560    0.1560   22.8130 N   0  0  0  0  0  0  0  0  0  0  0  0
    9.2690    1.4140   20.9380 O   0  0  0  0  0  0  0  0  0  0  0  0
    8.6905   -2.3533   26.5810 H   0  0  0  0  0  0  0  0  0  0  0  0
    9.9266   -4.3896   22.9917 H   0  0  0  0  0  0  0  0  0  0  0  0
    8.9233   -0.1992   25.4231 H   0  0  0  0  0  0  0  0  0  0  0  0
   10.0650   -2.2330   21.8256 H   0  0  0  0  0  0  0  0  0  0  0  0
   11.7624    1.3510   25.9426 H   0  0  0  0  0  0  0  0  0  0  0  0
   12.2462    1.4390   21.6566 H   0  0  0  0  0  0  0  0  0  0  0  0
    4.3966    1.9781   17.4720 H   0  0  0  0  0  0  0  0  0  0  0  0
    3.0227    2.6498   19.3695 H   0  0  0  0  0  0  0  0  0  0  0  0
    3.6570    2.0037   21.7071 H   0  0  0  0  0  0  0  0  0  0  0  0
    5.7202    0.6868   22.0802 H   0  0  0  0  0  0  0  0  0  0  0  0
    7.8482   -7.0901   27.4469 H   0  0  0  0  0  0  0  0  0  0  0  0
    6.3760   -6.1438   27.6724 H   0  0  0  0  0  0  0  0  0  0  0  0
    7.6307   -4.0424   27.6403 H   0  0  0  0  0  0  0  0  0  0  0  0
    8.3915   -5.1310   28.7968 H   0  0  0  0  0  0  0  0  0  0  0  0
    6.6888   -6.9376   25.3010 H   0  0  0  0  0  0  0  0  0  0  0  0
    6.5515   -5.1859   25.4257 H   0  0  0  0  0  0  0  0  0  0  0  0
   10.0492   -3.9640   27.3414 H   0  0  0  0  0  0  0  0  0  0  0  0
   10.1431   -5.7254   27.1778 H   0  0  0  0  0  0  0  0  0  0  0  0
    9.1338   -6.7931   25.0868 H   0  0  0  0  0  0  0  0  0  0  0  0
    8.3656   -5.7264   23.8998 H   0  0  0  0  0  0  0  0  0  0  0  0
   15.0990    2.5601   22.6124 H   0  0  0  0  0  0  0  0  0  0  0  0
   15.5636    1.0018   23.3756 H   0  0  0  0  0  0  0  0  0  0  0  0
   14.7841    1.0025   21.7733 H   0  0  0  0  0  0  0  0  0  0  0  0
    9.3974    1.2912   24.5523 H   0  0  0  0  0  0  0  0  0  0  0  0
    9.5159    2.2168   23.0554 H   0  0  0  0  0  0  0  0  0  0  0  0
    7.5972   -1.2056   21.6500 H   0  0  0  0  0  0  0  0  0  0  0  0
    8.8612   -1.4622   20.4334 H   0  0  0  0  0  0  0  0  0  0  0  0
  1  3  2  0  0  0  0
  1  8  1  0  0  0  0
  2  4  1  0  0  0  0
  2  8  2  0  0  0  0
  3  9  1  0  0  0  0
  4  9  2  0  0  0  0
  5  7  1  0  0  0  0
  5 25  2  0  0  0  0
  6  7  2  0  0  0  0
  6 28  1  0  0  0  0
  7 23  1  0  0  0  0
  8 30  1  0  0  0  0
  9 31  1  0  0  0  0
 10 12  1  0  0  0  0
 10 26  2  0  0  0  0
 10 29  1  0  0  0  0
 11 24  1  0  0  0  0
 11 27  2  0  0  0  0
 11 29  1  0  0  0  0
 12 13  2  0  0  0  0
 13 14  1  0  0  0  0
 14 15  2  0  0  0  0
 15 29  1  0  0  0  0
 16 24  1  0  0  0  0
 16 31  1  0  0  0  0
 16 32  2  0  0  0  0
 17 18  1  0  0  0  0
 17 19  1  0  0  0  0
 18 20  1  0  0  0  0
 19 21  1  0  0  0  0
 20 30  1  0  0  0  0
 21 30  1  0  0  0  0
 22 28  1  0  0  0  0
 23 31  1  0  0  0  0
 25 28  1  0  0  0  0
 26 27  1  0  0  0  0
  1 33  1  0  0  0  0
  2 34  1  0  0  0  0
  3 35  1  0  0  0  0
  4 36  1  0  0  0  0
  5 37  1  0  0  0  0
  6 38  1  0  0  0  0
 12 39  1  0  0  0  0
 13 40  1  0  0  0  0
 14 41  1  0  0  0  0
 15 42  1  0  0  0  0
 17 43  1  0  0  0  0
 17 44  1  0  0  0  0
 18 45  1  0  0  0  0
 18 46  1  0  0  0  0
 19 47  1  0  0  0  0
 19 48  1  0  0  0  0
 20 49  1  0  0  0  0
 20 50  1  0  0  0  0
 21 51  1  0  0  0  0
 21 52  1  0  0  0  0
 22 53  1  0  0  0  0
 22 54  1  0  0  0  0
 22 55  1  0  0  0  0
 23 56  1  0  0  0  0
 23 57  1  0  0  0  0
 24 58  1  0  0  0  0
 24 59  1  0  0  0  0
M  END
> <clash_score>
0

> <docking_score>
-8.746757507324219

> <overlap_score>
0.9881091713905334

$$$$
BENZO_486_1
  -OEChem-08222022203D

 59 63  0     0  0  0  0  0  0999 V2000
   13.4006    0.5725   24.7805 C   0  0  0  0  0  0  0  0  0  0  0  0
   12.0141    0.5273   24.6359 C   0  0  0  0  0  0  0  0  0  0  0  0
    8.9960   -2.3380   25.5320 C   0  0  0  0  0  0  0  0  0  0  0  0
    9.6730   -3.4710   23.5300 C   0  0  0  0  0  0  0  0  0  0  0  0
    9.0720   -1.1280   24.8640 C   0  0  0  0  0  0  0  0  0  0  0  0
    9.7200   -2.2600   22.8630 C   0  0  0  0  0  0  0  0  0  0  0  0
   14.1526    1.4666   24.0184 C   0  0  0  0  0  0  0  0  0  0  0  0
   12.1314    2.2702   22.9668 C   0  0  0  0  0  0  0  0  0  0  0  0
   11.3794    1.3761   23.7290 C   0  0  0  0  0  0  0  0  0  0  0  0
    9.3070   -3.5340   24.8780 C   0  0  0  0  0  0  0  0  0  0  0  0
    9.3350   -1.0880   23.5010 C   0  0  0  0  0  0  0  0  0  0  0  0
   13.5180    2.3154   23.1115 C   0  0  0  0  0  0  0  0  0  0  0  0
    5.8300    0.9190   18.6970 C   0  0  0  0  0  0  0  0  0  0  0  0
    7.3170   -0.1610   19.8550 C   0  0  0  0  0  0  0  0  0  0  0  0
    4.6890    1.6810   18.4640 C   0  0  0  0  0  0  0  0  0  0  0  0
    3.9160    2.0630   19.5520 C   0  0  0  0  0  0  0  0  0  0  0  0
    4.2750    1.7050   20.8490 C   0  0  0  0  0  0  0  0  0  0  0  0
    5.4210    0.9600   21.0930 C   0  0  0  0  0  0  0  0  0  0  0  0
    9.0420    0.3700   21.5280 C   0  0  0  0  0  0  0  0  0  0  0  0
    7.3635   -6.1361   27.1888 C   0  0  0  0  0  0  0  0  0  0  0  0
    8.1961   -4.9735   27.7341 C   0  0  0  0  0  0  0  0  0  0  0  0
    7.1942   -6.0394   25.6709 C   0  0  0  0  0  0  0  0  0  0  0  0
    9.5196   -4.8490   26.9797 C   0  0  0  0  0  0  0  0  0  0  0  0
    8.5442   -5.8838   24.9639 C   0  0  0  0  0  0  0  0  0  0  0  0
    9.8870    1.3260   23.5730 C   0  0  0  0  0  0  0  0  0  0  0  0
    8.1890   -0.7180   20.8700 C   0  0  0  0  0  0  0  0  0  0  0  0
    6.7580    0.3810   17.8350 N   0  0  0  0  0  0  0  0  0  0  0  0
    7.6390   -0.2680   18.5410 N   0  0  0  0  0  0  0  0  0  0  0  0
    6.1790    0.5730   19.9990 N   0  0  0  0  0  0  0  0  0  0  0  0
    9.2562   -4.7384   25.5422 N   0  0  0  0  0  0  0  0  0  0  0  0
    9.4560    0.1560   22.8130 N   0  0  0  0  0  0  0  0  0  0  0  0
    9.2690    1.4140   20.9380 O   0  0  0  0  0  0  0  0  0  0  0  0
   14.4463    3.4175   22.1707 Cl  0  0  0  0  0  0  0  0  0  0  0  0
   13.8945   -0.0888   25.4867 H   0  0  0  0  0  0  0  0  0  0  0  0
   11.4361   -0.1726   25.2338 H   0  0  0  0  0  0  0  0  0  0  0  0
    8.6905   -2.3533   26.5810 H   0  0  0  0  0  0  0  0  0  0  0  0
    9.9266   -4.3896   22.9917 H   0  0  0  0  0  0  0  0  0  0  0  0
    8.9233   -0.1992   25.4231 H   0  0  0  0  0  0  0  0  0  0  0  0
   10.0650   -2.2330   21.8256 H   0  0  0  0  0  0  0  0  0  0  0  0
   15.2326    1.4907   24.1414 H   0  0  0  0  0  0  0  0  0  0  0  0
   11.6318    2.9303   22.2615 H   0  0  0  0  0  0  0  0  0  0  0  0
    4.3966    1.9781   17.4720 H   0  0  0  0  0  0  0  0  0  0  0  0
    3.0227    2.6498   19.3695 H   0  0  0  0  0  0  0  0  0  0  0  0
    3.6570    2.0037   21.7071 H   0  0  0  0  0  0  0  0  0  0  0  0
    5.7202    0.6868   22.0802 H   0  0  0  0  0  0  0  0  0  0  0  0
    7.8482   -7.0901   27.4469 H   0  0  0  0  0  0  0  0  0  0  0  0
    6.3760   -6.1438   27.6724 H   0  0  0  0  0  0  0  0  0  0  0  0
    7.6307   -4.0424   27.6403 H   0  0  0  0  0  0  0  0  0  0  0  0
    8.3915   -5.1310   28.7968 H   0  0  0  0  0  0  0  0  0  0  0  0
    6.6888   -6.9376   25.3010 H   0  0  0  0  0  0  0  0  0  0  0  0
    6.5515   -5.1859   25.4257 H   0  0  0  0  0  0  0  0  0  0  0  0
   10.0492   -3.9640   27.3414 H   0  0  0  0  0  0  0  0  0  0  0  0
   10.1431   -5.7254   27.1778 H   0  0  0  0  0  0  0  0  0  0  0  0
    9.1338   -6.7931   25.0868 H   0  0  0  0  0  0  0  0  0  0  0  0
    8.3656   -5.7264   23.8998 H   0  0  0  0  0  0  0  0  0  0  0  0
    9.3974    1.2912   24.5523 H   0  0  0  0  0  0  0  0  0  0  0  0
    9.5159    2.2168   23.0554 H   0  0  0  0  0  0  0  0  0  0  0  0
    7.5972   -1.2056   21.6500 H   0  0  0  0  0  0  0  0  0  0  0  0
    8.8612   -1.4622   20.4334 H   0  0  0  0  0  0  0  0  0  0  0  0
  1  2  2  0  0  0  0
  1  7  1  0  0  0  0
  2  9  1  0  0  0  0
  3  5  2  0  0  0  0
  3 10  1  0  0  0  0
  4  6  1  0  0  0  0
  4 10  2  0  0  0  0
  5 11  1  0  0  0  0
  6 11  2  0  0  0  0
  7 12  2  0  0  0  0
  8  9  2  0  0  0  0
  8 12  1  0  0  0  0
  9 25  1  0  0  0  0
 10 30  1  0  0  0  0
 11 31  1  0  0  0  0
 12 33  1  0  0  0  0
 13 15  1  0  0  0  0
 13 27  2  0  0  0  0
 13 29  1  0  0  0  0
 14 26  1  0  0  0  0
 14 28  2  0  0  0  0
 14 29  1  0  0  0  0
 15 16  2  0  0  0  0
 16 17  1  0  0  0  0
 17 18  2  0  0  0  0
 18 29  1  0  0  0  0
 19 26  1  0  0  0  0
 19 31  1  0  0  0  0
 19 32  2  0  0  0  0
 20 21  1  0  0  0  0
 20 22  1  0  0  0  0
 21 23  1  0  0  0  0
 22 24  1  0  0  0  0
 23 30  1  0  0  0  0
 24 30  1  0  0  0  0
 25 31  1  0  0  0  0
 27 28  1  0  0  0  0
  1 34  1  0  0  0  0
  2 35  1  0  0  0  0
  3 36  1  0  0  0  0
  4 37  1  0  0  0  0
  5 38  1  0  0  0  0
  6 39  1  0  0  0  0
  7 40  1  0  0  0  0
  8 41  1  0  0  0  0
 15 42  1  0  0  0  0
 16 43  1  0  0  0  0
 17 44  1  0  0  0  0
 18 45  1  0  0  0  0
 20 46  1  0  0  0  0
 20 47  1  0  0  0  0
 21 48  1  0  0  0  0
 21 49  1  0  0  0  0
 22 50  1  0  0  0  0
 22 51  1  0  0  0  0
 23 52  1  0  0  0  0
 23 53  1  0  0  0  0
 24 54  1  0  0  0  0
 24 55  1  0  0  0  0
 25 56  1  0  0  0  0
 25 57  1  0  0  0  0
 26 58  1  0  0  0  0
 26 59  1  0  0  0  0
M  END
> <clash_score>
0

> <docking_score>
-8.167608261108398

> <overlap_score>
1.0042747259140015

$$$$
BENZO_490_1
  -OEChem-08222022203D

 47 50  0     0  0  0  0  0  0999 V2000
   13.4007    0.5725   24.7805 C   0  0  0  0  0  0  0  0  0  0  0  0
   12.0141    0.5273   24.6359 C   0  0  0  0  0  0  0  0  0  0  0  0
    8.9960   -2.3380   25.5320 C   0  0  0  0  0  0  0  0  0  0  0  0
    9.6730   -3.4710   23.5300 C   0  0  0  0  0  0  0  0  0  0  0  0
    9.0720   -1.1280   24.8640 C   0  0  0  0  0  0  0  0  0  0  0  0
    9.7200   -2.2600   22.8630 C   0  0  0  0  0  0  0  0  0  0  0  0
   14.1526    1.4666   24.0184 C   0  0  0  0  0  0  0  0  0  0  0  0
   12.1314    2.2702   22.9668 C   0  0  0  0  0  0  0  0  0  0  0  0
    9.3070   -3.5340   24.8780 C   0  0  0  0  0  0  0  0  0  0  0  0
   11.3794    1.3761   23.7290 C   0  0  0  0  0  0  0  0  0  0  0  0
    9.3350   -1.0880   23.5010 C   0  0  0  0  0  0  0  0  0  0  0  0
   13.5180    2.3154   23.1115 C   0  0  0  0  0  0  0  0  0  0  0  0
    5.8300    0.9190   18.6970 C   0  0  0  0  0  0  0  0  0  0  0  0
    7.3170   -0.1610   19.8550 C   0  0  0  0  0  0  0  0  0  0  0  0
    4.6890    1.6810   18.4640 C   0  0  0  0  0  0  0  0  0  0  0  0
    3.9160    2.0630   19.5520 C   0  0  0  0  0  0  0  0  0  0  0  0
    4.2750    1.7050   20.8490 C   0  0  0  0  0  0  0  0  0  0  0  0
    5.4210    0.9600   21.0930 C   0  0  0  0  0  0  0  0  0  0  0  0
    9.0420    0.3700   21.5280 C   0  0  0  0  0  0  0  0  0  0  0  0
    9.2505   -4.8264   25.5904 C   0  0  0  0  0  0  0  0  0  0  0  0
    9.8870    1.3260   23.5730 C   0  0  0  0  0  0  0  0  0  0  0  0
    8.1890   -0.7180   20.8700 C   0  0  0  0  0  0  0  0  0  0  0  0
    6.7580    0.3810   17.8350 N   0  0  0  0  0  0  0  0  0  0  0  0
    7.6390   -0.2680   18.5410 N   0  0  0  0  0  0  0  0  0  0  0  0
    6.1790    0.5730   19.9990 N   0  0  0  0  0  0  0  0  0  0  0  0
    9.4560    0.1560   22.8130 N   0  0  0  0  0  0  0  0  0  0  0  0
    9.2690    1.4140   20.9380 O   0  0  0  0  0  0  0  0  0  0  0  0
   14.4463    3.4175   22.1707 Cl  0  0  0  0  0  0  0  0  0  0  0  0
   13.8945   -0.0888   25.4867 H   0  0  0  0  0  0  0  0  0  0  0  0
   11.4361   -0.1726   25.2338 H   0  0  0  0  0  0  0  0  0  0  0  0
    8.6919   -2.3557   26.5813 H   0  0  0  0  0  0  0  0  0  0  0  0
    9.9267   -4.3907   22.9939 H   0  0  0  0  0  0  0  0  0  0  0  0
    8.9217   -0.1995   25.4231 H   0  0  0  0  0  0  0  0  0  0  0  0
   10.0653   -2.2339   21.8256 H   0  0  0  0  0  0  0  0  0  0  0  0
   15.2326    1.4907   24.1414 H   0  0  0  0  0  0  0  0  0  0  0  0
   11.6318    2.9303   22.2615 H   0  0  0  0  0  0  0  0  0  0  0  0
    4.3966    1.9781   17.4720 H   0  0  0  0  0  0  0  0  0  0  0  0
    3.0227    2.6498   19.3695 H   0  0  0  0  0  0  0  0  0  0  0  0
    3.6570    2.0037   21.7071 H   0  0  0  0  0  0  0  0  0  0  0  0
    5.7202    0.6868   22.0802 H   0  0  0  0  0  0  0  0  0  0  0  0
    8.2503   -5.2678   25.5020 H   0  0  0  0  0  0  0  0  0  0  0  0
    9.9817   -5.5374   25.1845 H   0  0  0  0  0  0  0  0  0  0  0  0
    9.4841   -4.7043   26.6562 H   0  0  0  0  0  0  0  0  0  0  0  0
    9.3974    1.2912   24.5523 H   0  0  0  0  0  0  0  0  0  0  0  0
    9.5159    2.2168   23.0554 H   0  0  0  0  0  0  0  0  0  0  0  0
    7.6082   -1.2086   21.6619 H   0  0  0  0  0  0  0  0  0  0  0  0
    8.8721   -1.4652   20.4453 H   0  0  0  0  0  0  0  0  0  0  0  0
  1  2  2  0  0  0  0
  1  7  1  0  0  0  0
  2 10  1  0  0  0  0
  3  5  2  0  0  0  0
  3  9  1  0  0  0  0
  4  6  1  0  0  0  0
  4  9  2  0  0  0  0
  5 11  1  0  0  0  0
  6 11  2  0  0  0  0
  7 12  2  0  0  0  0
  8 10  2  0  0  0  0
  8 12  1  0  0  0  0
  9 20  1  0  0  0  0
 10 21  1  0  0  0  0
 11 26  1  0  0  0  0
 12 28  1  0  0  0  0
 13 15  1  0  0  0  0
 13 23  2  0  0  0  0
 13 25  1  0  0  0  0
 14 22  1  0  0  0  0
 14 24  2  0  0  0  0
 14 25  1  0  0  0  0
 15 16  2  0  0  0  0
 16 17  1  0  0  0  0
 17 18  2  0  0  0  0
 18 25  1  0  0  0  0
 19 22  1  0  0  0  0
 19 26  1  0  0  0  0
 19 27  2  0  0  0  0
 21 26  1  0  0  0  0
 23 24  1  0  0  0  0
  1 29  1  0  0  0  0
  2 30  1  0  0  0  0
  3 31  1  0  0  0  0
  4 32  1  0  0  0  0
  5 33  1  0  0  0  0
  6 34  1  0  0  0  0
  7 35  1  0  0  0  0
  8 36  1  0  0  0  0
 15 37  1  0  0  0  0
 16 38  1  0  0  0  0
 17 39  1  0  0  0  0
 18 40  1  0  0  0  0
 20 41  1  0  0  0  0
 20 42  1  0  0  0  0
 20 43  1  0  0  0  0
 21 44  1  0  0  0  0
 21 45  1  0  0  0  0
 22 46  1  0  0  0  0
 22 47  1  0  0  0  0
M  END
> <clash_score>
0

> <docking_score>
-8.41263484954834

> <overlap_score>
0.9507185220718384

$$$$
BENZO_491_1
  -OEChem-08222022203D

 47 50  0     0  0  0  0  0  0999 V2000
    8.9960   -2.3380   25.5320 C   0  0  0  0  0  0  0  0  0  0  0  0
    9.6730   -3.4710   23.5300 C   0  0  0  0  0  0  0  0  0  0  0  0
    9.0720   -1.1280   24.8640 C   0  0  0  0  0  0  0  0  0  0  0  0
    9.7200   -2.2600   22.8630 C   0  0  0  0  0  0  0  0  0  0  0  0
   12.2914    2.2071   23.0512 C   0  0  0  0  0  0  0  0  0  0  0  0
   12.1614    0.6214   24.5689 C   0  0  0  0  0  0  0  0  0  0  0  0
    9.3070   -3.5340   24.8780 C   0  0  0  0  0  0  0  0  0  0  0  0
   11.3794    1.3761   23.7290 C   0  0  0  0  0  0  0  0  0  0  0  0
    9.3350   -1.0880   23.5010 C   0  0  0  0  0  0  0  0  0  0  0  0
    5.8300    0.9190   18.6970 C   0  0  0  0  0  0  0  0  0  0  0  0
    7.3170   -0.1610   19.8550 C   0  0  0  0  0  0  0  0  0  0  0  0
    4.6890    1.6810   18.4640 C   0  0  0  0  0  0  0  0  0  0  0  0
    3.9160    2.0630   19.5520 C   0  0  0  0  0  0  0  0  0  0  0  0
    4.2750    1.7050   20.8490 C   0  0  0  0  0  0  0  0  0  0  0  0
    5.4210    0.9600   21.0930 C   0  0  0  0  0  0  0  0  0  0  0  0
    9.0420    0.3700   21.5280 C   0  0  0  0  0  0  0  0  0  0  0  0
    9.2505   -4.8264   25.5904 C   0  0  0  0  0  0  0  0  0  0  0  0
   14.6267    0.5248   25.0067 C   0  0  0  0  0  0  0  0  0  0  0  0
    9.8870    1.3260   23.5730 C   0  0  0  0  0  0  0  0  0  0  0  0
    8.1890   -0.7180   20.8700 C   0  0  0  0  0  0  0  0  0  0  0  0
   13.5560    2.0002   23.4280 N   0  0  0  0  0  0  0  0  0  0  0  0
    6.7580    0.3810   17.8350 N   0  0  0  0  0  0  0  0  0  0  0  0
    7.6390   -0.2680   18.5410 N   0  0  0  0  0  0  0  0  0  0  0  0
   13.4442    1.0306   24.3518 N   0  0  0  0  0  0  0  0  0  0  0  0
    6.1790    0.5730   19.9990 N   0  0  0  0  0  0  0  0  0  0  0  0
    9.4560    0.1560   22.8130 N   0  0  0  0  0  0  0  0  0  0  0  0
    9.2690    1.4140   20.9380 O   0  0  0  0  0  0  0  0  0  0  0  0
    8.6919   -2.3557   26.5813 H   0  0  0  0  0  0  0  0  0  0  0  0
    9.9267   -4.3907   22.9939 H   0  0  0  0  0  0  0  0  0  0  0  0
    8.9217   -0.1995   25.4231 H   0  0  0  0  0  0  0  0  0  0  0  0
   10.0653   -2.2339   21.8256 H   0  0  0  0  0  0  0  0  0  0  0  0
   12.0895    2.9562   22.2987 H   0  0  0  0  0  0  0  0  0  0  0  0
   11.9201   -0.1518   25.2857 H   0  0  0  0  0  0  0  0  0  0  0  0
    4.3966    1.9781   17.4720 H   0  0  0  0  0  0  0  0  0  0  0  0
    3.0227    2.6498   19.3695 H   0  0  0  0  0  0  0  0  0  0  0  0
    3.6570    2.0037   21.7071 H   0  0  0  0  0  0  0  0  0  0  0  0
    5.7202    0.6868   22.0802 H   0  0  0  0  0  0  0  0  0  0  0  0
    8.2503   -5.2678   25.5020 H   0  0  0  0  0  0  0  0  0  0  0  0
    9.9817   -5.5374   25.1845 H   0  0  0  0  0  0  0  0  0  0  0  0
    9.4841   -4.7043   26.6562 H   0  0  0  0  0  0  0  0  0  0  0  0
   15.0068   -0.3132   24.4165 H   0  0  0  0  0  0  0  0  0  0  0  0
   15.3758    1.3189   25.0699 H   0  0  0  0  0  0  0  0  0  0  0  0
   14.3675    0.1958   26.0170 H   0  0  0  0  0  0  0  0  0  0  0  0
    9.3974    1.2912   24.5523 H   0  0  0  0  0  0  0  0  0  0  0  0
    9.5159    2.2168   23.0554 H   0  0  0  0  0  0  0  0  0  0  0  0
    7.6082   -1.2086   21.6619 H   0  0  0  0  0  0  0  0  0  0  0  0
    8.8721   -1.4652   20.4453 H   0  0  0  0  0  0  0  0  0  0  0  0
  1  3  2  0  0  0  0
  1  7  1  0  0  0  0
  2  4  1  0  0  0  0
  2  7  2  0  0  0  0
  3  9  1  0  0  0  0
  4  9  2  0  0  0  0
  5  8  1  0  0  0  0
  5 21  2  0  0  0  0
  6  8  2  0  0  0  0
  6 24  1  0  0  0  0
  7 17  1  0  0  0  0
  8 19  1  0  0  0  0
  9 26  1  0  0  0  0
 10 12  1  0  0  0  0
 10 22  2  0  0  0  0
 10 25  1  0  0  0  0
 11 20  1  0  0  0  0
 11 23  2  0  0  0  0
 11 25  1  0  0  0  0
 12 13  2  0  0  0  0
 13 14  1  0  0  0  0
 14 15  2  0  0  0  0
 15 25  1  0  0  0  0
 16 20  1  0  0  0  0
 16 26  1  0  0  0  0
 16 27  2  0  0  0  0
 18 24  1  0  0  0  0
 19 26  1  0  0  0  0
 21 24  1  0  0  0  0
 22 23  1  0  0  0  0
  1 28  1  0  0  0  0
  2 29  1  0  0  0  0
  3 30  1  0  0  0  0
  4 31  1  0  0  0  0
  5 32  1  0  0  0  0
  6 33  1  0  0  0  0
 12 34  1  0  0  0  0
 13 35  1  0  0  0  0
 14 36  1  0  0  0  0
 15 37  1  0  0  0  0
 17 38  1  0  0  0  0
 17 39  1  0  0  0  0
 17 40  1  0  0  0  0
 18 41  1  0  0  0  0
 18 42  1  0  0  0  0
 18 43  1  0  0  0  0
 19 44  1  0  0  0  0
 19 45  1  0  0  0  0
 20 46  1  0  0  0  0
 20 47  1  0  0  0  0
M  END
> <clash_score>
0.6199445293946145

> <docking_score>
-8.983646392822266

> <overlap_score>
0.9382386803627014

$$$$
BENZO_493_1
  -OEChem-08222022203D

 48 51  0     0  0  0  0  0  0999 V2000
   14.1526    1.4694   24.0176 C   0  0  0  0  0  0  0  0  0  0  0  0
   13.3741    0.8121   24.9701 C   0  0  0  0  0  0  0  0  0  0  0  0
   13.5446    2.0802   22.9208 C   0  0  0  0  0  0  0  0  0  0  0  0
   11.9875    0.7654   24.8258 C   0  0  0  0  0  0  0  0  0  0  0  0
   12.1580    2.0335   22.7765 C   0  0  0  0  0  0  0  0  0  0  0  0
    9.0720   -1.1280   24.8640 C   0  0  0  0  0  0  0  0  0  0  0  0
    9.7200   -2.2600   22.8630 C   0  0  0  0  0  0  0  0  0  0  0  0
    8.9960   -2.3380   25.5320 C   0  0  0  0  0  0  0  0  0  0  0  0
    9.6730   -3.4710   23.5300 C   0  0  0  0  0  0  0  0  0  0  0  0
   11.3794    1.3761   23.7290 C   0  0  0  0  0  0  0  0  0  0  0  0
    9.3350   -1.0880   23.5010 C   0  0  0  0  0  0  0  0  0  0  0  0
    9.3070   -3.5340   24.8780 C   0  0  0  0  0  0  0  0  0  0  0  0
    5.8300    0.9190   18.6970 C   0  0  0  0  0  0  0  0  0  0  0  0
    7.3170   -0.1610   19.8550 C   0  0  0  0  0  0  0  0  0  0  0  0
    4.6890    1.6810   18.4640 C   0  0  0  0  0  0  0  0  0  0  0  0
    3.9160    2.0630   19.5520 C   0  0  0  0  0  0  0  0  0  0  0  0
    4.2750    1.7050   20.8490 C   0  0  0  0  0  0  0  0  0  0  0  0
    5.4210    0.9600   21.0930 C   0  0  0  0  0  0  0  0  0  0  0  0
    9.0420    0.3700   21.5280 C   0  0  0  0  0  0  0  0  0  0  0  0
    9.5894   -5.8809   24.7798 C   0  0  0  0  0  0  0  0  0  0  0  0
    9.8870    1.3260   23.5730 C   0  0  0  0  0  0  0  0  0  0  0  0
    8.1890   -0.7180   20.8700 C   0  0  0  0  0  0  0  0  0  0  0  0
    6.7580    0.3810   17.8350 N   0  0  0  0  0  0  0  0  0  0  0  0
    7.6390   -0.2680   18.5410 N   0  0  0  0  0  0  0  0  0  0  0  0
    6.1790    0.5730   19.9990 N   0  0  0  0  0  0  0  0  0  0  0  0
    9.4560    0.1560   22.8130 N   0  0  0  0  0  0  0  0  0  0  0  0
    9.2690    1.4140   20.9380 O   0  0  0  0  0  0  0  0  0  0  0  0
    9.2555   -4.7124   25.5274 O   0  0  0  0  0  0  0  0  0  0  0  0
   15.2322    1.5068   24.1308 H   0  0  0  0  0  0  0  0  0  0  0  0
   13.8473    0.3374   25.8248 H   0  0  0  0  0  0  0  0  0  0  0  0
   14.1503    2.5930   22.1795 H   0  0  0  0  0  0  0  0  0  0  0  0
   11.3889    0.2508   25.5729 H   0  0  0  0  0  0  0  0  0  0  0  0
   11.6930    2.5120   21.9187 H   0  0  0  0  0  0  0  0  0  0  0  0
    8.9221   -0.1995   25.4231 H   0  0  0  0  0  0  0  0  0  0  0  0
   10.0642   -2.2347   21.8253 H   0  0  0  0  0  0  0  0  0  0  0  0
    8.6902   -2.3588   26.5805 H   0  0  0  0  0  0  0  0  0  0  0  0
    9.9254   -4.3921   22.9961 H   0  0  0  0  0  0  0  0  0  0  0  0
    4.3966    1.9781   17.4720 H   0  0  0  0  0  0  0  0  0  0  0  0
    3.0227    2.6498   19.3695 H   0  0  0  0  0  0  0  0  0  0  0  0
    3.6570    2.0037   21.7071 H   0  0  0  0  0  0  0  0  0  0  0  0
    5.7202    0.6868   22.0802 H   0  0  0  0  0  0  0  0  0  0  0  0
    9.5074   -6.7611   25.4222 H   0  0  0  0  0  0  0  0  0  0  0  0
   10.6088   -5.7902   24.3963 H   0  0  0  0  0  0  0  0  0  0  0  0
    8.8944   -5.9778   23.9424 H   0  0  0  0  0  0  0  0  0  0  0  0
    9.3974    1.2912   24.5523 H   0  0  0  0  0  0  0  0  0  0  0  0
    9.5159    2.2168   23.0554 H   0  0  0  0  0  0  0  0  0  0  0  0
    7.6082   -1.2086   21.6619 H   0  0  0  0  0  0  0  0  0  0  0  0
    8.8721   -1.4652   20.4453 H   0  0  0  0  0  0  0  0  0  0  0  0
  1  2  1  0  0  0  0
  1  3  2  0  0  0  0
  2  4  2  0  0  0  0
  3  5  1  0  0  0  0
  4 10  1  0  0  0  0
  5 10  2  0  0  0  0
  6  8  2  0  0  0  0
  6 11  1  0  0  0  0
  7  9  1  0  0  0  0
  7 11  2  0  0  0  0
  8 12  1  0  0  0  0
  9 12  2  0  0  0  0
 10 21  1  0  0  0  0
 11 26  1  0  0  0  0
 12 28  1  0  0  0  0
 13 15  1  0  0  0  0
 13 23  2  0  0  0  0
 13 25  1  0  0  0  0
 14 22  1  0  0  0  0
 14 24  2  0  0  0  0
 14 25  1  0  0  0  0
 15 16  2  0  0  0  0
 16 17  1  0  0  0  0
 17 18  2  0  0  0  0
 18 25  1  0  0  0  0
 19 22  1  0  0  0  0
 19 26  1  0  0  0  0
 19 27  2  0  0  0  0
 20 28  1  0  0  0  0
 21 26  1  0  0  0  0
 23 24  1  0  0  0  0
  1 29  1  0  0  0  0
  2 30  1  0  0  0  0
  3 31  1  0  0  0  0
  4 32  1  0  0  0  0
  5 33  1  0  0  0  0
  6 34  1  0  0  0  0
  7 35  1  0  0  0  0
  8 36  1  0  0  0  0
  9 37  1  0  0  0  0
 15 38  1  0  0  0  0
 16 39  1  0  0  0  0
 17 40  1  0  0  0  0
 18 41  1  0  0  0  0
 20 42  1  0  0  0  0
 20 43  1  0  0  0  0
 20 44  1  0  0  0  0
 21 45  1  0  0  0  0
 21 46  1  0  0  0  0
 22 47  1  0  0  0  0
 22 48  1  0  0  0  0
M  END
> <clash_score>
0

> <docking_score>
-8.981769561767578

> <overlap_score>
0.96425461769104

$$$$
BENZO_492_1
  -OEChem-08222022203D

 45 48  0     0  0  0  0  0  0999 V2000
    9.0720   -1.1280   24.8640 C   0  0  0  0  0  0  0  0  0  0  0  0
    9.7200   -2.2600   22.8630 C   0  0  0  0  0  0  0  0  0  0  0  0
    8.9960   -2.3380   25.5320 C   0  0  0  0  0  0  0  0  0  0  0  0
    9.6730   -3.4710   23.5300 C   0  0  0  0  0  0  0  0  0  0  0  0
   12.2111    0.2208   23.7905 C   0  0  0  0  0  0  0  0  0  0  0  0
   13.5412    0.5479   23.9363 C   0  0  0  0  0  0  0  0  0  0  0  0
   12.1057    2.5424   23.8305 C   0  0  0  0  0  0  0  0  0  0  0  0
   11.3794    1.3761   23.7290 C   0  0  0  0  0  0  0  0  0  0  0  0
    9.3350   -1.0880   23.5010 C   0  0  0  0  0  0  0  0  0  0  0  0
    9.3070   -3.5340   24.8780 C   0  0  0  0  0  0  0  0  0  0  0  0
    5.8300    0.9190   18.6970 C   0  0  0  0  0  0  0  0  0  0  0  0
    7.3170   -0.1610   19.8550 C   0  0  0  0  0  0  0  0  0  0  0  0
    4.6890    1.6810   18.4640 C   0  0  0  0  0  0  0  0  0  0  0  0
    3.9160    2.0630   19.5520 C   0  0  0  0  0  0  0  0  0  0  0  0
    4.2750    1.7050   20.8490 C   0  0  0  0  0  0  0  0  0  0  0  0
    5.4210    0.9600   21.0930 C   0  0  0  0  0  0  0  0  0  0  0  0
    9.0420    0.3700   21.5280 C   0  0  0  0  0  0  0  0  0  0  0  0
    9.5894   -5.8809   24.7798 C   0  0  0  0  0  0  0  0  0  0  0  0
    9.8870    1.3260   23.5730 C   0  0  0  0  0  0  0  0  0  0  0  0
    8.1890   -0.7180   20.8700 C   0  0  0  0  0  0  0  0  0  0  0  0
    6.7580    0.3810   17.8350 N   0  0  0  0  0  0  0  0  0  0  0  0
    7.6390   -0.2680   18.5410 N   0  0  0  0  0  0  0  0  0  0  0  0
    6.1790    0.5730   19.9990 N   0  0  0  0  0  0  0  0  0  0  0  0
    9.4560    0.1560   22.8130 N   0  0  0  0  0  0  0  0  0  0  0  0
    9.2690    1.4140   20.9380 O   0  0  0  0  0  0  0  0  0  0  0  0
    9.2555   -4.7124   25.5274 O   0  0  0  0  0  0  0  0  0  0  0  0
   13.7831    2.2420   23.9988 S   0  0  0  0  0  0  0  0  0  0  0  0
    8.9221   -0.1995   25.4231 H   0  0  0  0  0  0  0  0  0  0  0  0
   10.0642   -2.2347   21.8253 H   0  0  0  0  0  0  0  0  0  0  0  0
    8.6902   -2.3588   26.5805 H   0  0  0  0  0  0  0  0  0  0  0  0
    9.9254   -4.3921   22.9961 H   0  0  0  0  0  0  0  0  0  0  0  0
   11.8558   -0.8003   23.7315 H   0  0  0  0  0  0  0  0  0  0  0  0
   14.3824   -0.1267   24.0100 H   0  0  0  0  0  0  0  0  0  0  0  0
   11.7354    3.5581   23.8155 H   0  0  0  0  0  0  0  0  0  0  0  0
    4.3966    1.9781   17.4720 H   0  0  0  0  0  0  0  0  0  0  0  0
    3.0227    2.6498   19.3695 H   0  0  0  0  0  0  0  0  0  0  0  0
    3.6570    2.0037   21.7071 H   0  0  0  0  0  0  0  0  0  0  0  0
    5.7202    0.6868   22.0802 H   0  0  0  0  0  0  0  0  0  0  0  0
    9.5074   -6.7611   25.4222 H   0  0  0  0  0  0  0  0  0  0  0  0
   10.6088   -5.7902   24.3963 H   0  0  0  0  0  0  0  0  0  0  0  0
    8.8944   -5.9778   23.9424 H   0  0  0  0  0  0  0  0  0  0  0  0
    9.3974    1.2912   24.5523 H   0  0  0  0  0  0  0  0  0  0  0  0
    9.5159    2.2168   23.0554 H   0  0  0  0  0  0  0  0  0  0  0  0
    7.6082   -1.2086   21.6619 H   0  0  0  0  0  0  0  0  0  0  0  0
    8.8721   -1.4652   20.4453 H   0  0  0  0  0  0  0  0  0  0  0  0
  1  3  2  0  0  0  0
  1  9  1  0  0  0  0
  2  4  1  0  0  0  0
  2  9  2  0  0  0  0
  3 10  1  0  0  0  0
  4 10  2  0  0  0  0
  5  6  2  0  0  0  0
  5  8  1  0  0  0  0
  6 27  1  0  0  0  0
  7  8  2  0  0  0  0
  7 27  1  0  0  0  0
  8 19  1  0  0  0  0
  9 24  1  0  0  0  0
 10 26  1  0  0  0  0
 11 13  1  0  0  0  0
 11 21  2  0  0  0  0
 11 23  1  0  0  0  0
 12 20  1  0  0  0  0
 12 22  2  0  0  0  0
 12 23  1  0  0  0  0
 13 14  2  0  0  0  0
 14 15  1  0  0  0  0
 15 16  2  0  0  0  0
 16 23  1  0  0  0  0
 17 20  1  0  0  0  0
 17 24  1  0  0  0  0
 17 25  2  0  0  0  0
 18 26  1  0  0  0  0
 19 24  1  0  0  0  0
 21 22  1  0  0  0  0
  1 28  1  0  0  0  0
  2 29  1  0  0  0  0
  3 30  1  0  0  0  0
  4 31  1  0  0  0  0
  5 32  1  0  0  0  0
  6 33  1  0  0  0  0
  7 34  1  0  0  0  0
 13 35  1  0  0  0  0
 14 36  1  0  0  0  0
 15 37  1  0  0  0  0
 16 38  1  0  0  0  0
 18 39  1  0  0  0  0
 18 40  1  0  0  0  0
 18 41  1  0  0  0  0
 19 42  1  0  0  0  0
 19 43  1  0  0  0  0
 20 44  1  0  0  0  0
 20 45  1  0  0  0  0
M  END
> <clash_score>
0

> <docking_score>
-8.254948616027832

> <overlap_score>
0.9491584897041321

$$$$
BENZO_495_1
  -OEChem-08222022213D

 48 51  0     0  0  0  0  0  0999 V2000
    9.0720   -1.1280   24.8640 C   0  0  0  0  0  0  0  0  0  0  0  0
    9.7200   -2.2600   22.8630 C   0  0  0  0  0  0  0  0  0  0  0  0
    8.9960   -2.3380   25.5320 C   0  0  0  0  0  0  0  0  0  0  0  0
    9.6730   -3.4710   23.5300 C   0  0  0  0  0  0  0  0  0  0  0  0
   12.2914    2.2071   23.0512 C   0  0  0  0  0  0  0  0  0  0  0  0
   12.1614    0.6214   24.5689 C   0  0  0  0  0  0  0  0  0  0  0  0
   11.3794    1.3761   23.7290 C   0  0  0  0  0  0  0  0  0  0  0  0
    9.3350   -1.0880   23.5010 C   0  0  0  0  0  0  0  0  0  0  0  0
    9.3070   -3.5340   24.8780 C   0  0  0  0  0  0  0  0  0  0  0  0
    5.8300    0.9190   18.6970 C   0  0  0  0  0  0  0  0  0  0  0  0
    7.3170   -0.1610   19.8550 C   0  0  0  0  0  0  0  0  0  0  0  0
    4.6890    1.6810   18.4640 C   0  0  0  0  0  0  0  0  0  0  0  0
    3.9160    2.0630   19.5520 C   0  0  0  0  0  0  0  0  0  0  0  0
    4.2750    1.7050   20.8490 C   0  0  0  0  0  0  0  0  0  0  0  0
    5.4210    0.9600   21.0930 C   0  0  0  0  0  0  0  0  0  0  0  0
    9.0420    0.3700   21.5280 C   0  0  0  0  0  0  0  0  0  0  0  0
   14.6267    0.5248   25.0067 C   0  0  0  0  0  0  0  0  0  0  0  0
    8.8720   -4.6805   26.9013 C   0  0  0  0  0  0  0  0  0  0  0  0
    9.8870    1.3260   23.5730 C   0  0  0  0  0  0  0  0  0  0  0  0
    8.1890   -0.7180   20.8700 C   0  0  0  0  0  0  0  0  0  0  0  0
   13.5560    2.0002   23.4280 N   0  0  0  0  0  0  0  0  0  0  0  0
    6.7580    0.3810   17.8350 N   0  0  0  0  0  0  0  0  0  0  0  0
    7.6390   -0.2680   18.5410 N   0  0  0  0  0  0  0  0  0  0  0  0
   13.4442    1.0306   24.3518 N   0  0  0  0  0  0  0  0  0  0  0  0
    6.1790    0.5730   19.9990 N   0  0  0  0  0  0  0  0  0  0  0  0
    9.4560    0.1560   22.8130 N   0  0  0  0  0  0  0  0  0  0  0  0
    9.2690    1.4140   20.9380 O   0  0  0  0  0  0  0  0  0  0  0  0
    9.2555   -4.7124   25.5274 O   0  0  0  0  0  0  0  0  0  0  0  0
    8.9221   -0.1995   25.4231 H   0  0  0  0  0  0  0  0  0  0  0  0
   10.0642   -2.2347   21.8253 H   0  0  0  0  0  0  0  0  0  0  0  0
    8.6902   -2.3588   26.5805 H   0  0  0  0  0  0  0  0  0  0  0  0
    9.9254   -4.3921   22.9961 H   0  0  0  0  0  0  0  0  0  0  0  0
   12.0895    2.9562   22.2987 H   0  0  0  0  0  0  0  0  0  0  0  0
   11.9201   -0.1518   25.2857 H   0  0  0  0  0  0  0  0  0  0  0  0
    4.3966    1.9781   17.4720 H   0  0  0  0  0  0  0  0  0  0  0  0
    3.0227    2.6498   19.3695 H   0  0  0  0  0  0  0  0  0  0  0  0
    3.6570    2.0037   21.7071 H   0  0  0  0  0  0  0  0  0  0  0  0
    5.7202    0.6868   22.0802 H   0  0  0  0  0  0  0  0  0  0  0  0
   15.0068   -0.3132   24.4165 H   0  0  0  0  0  0  0  0  0  0  0  0
   15.3758    1.3189   25.0699 H   0  0  0  0  0  0  0  0  0  0  0  0
   14.3675    0.1958   26.0170 H   0  0  0  0  0  0  0  0  0  0  0  0
    8.8711   -5.6964   27.3038 H   0  0  0  0  0  0  0  0  0  0  0  0
    7.8758   -4.2402   26.9923 H   0  0  0  0  0  0  0  0  0  0  0  0
    9.5894   -4.0716   27.4566 H   0  0  0  0  0  0  0  0  0  0  0  0
    9.3974    1.2912   24.5523 H   0  0  0  0  0  0  0  0  0  0  0  0
    9.5159    2.2168   23.0554 H   0  0  0  0  0  0  0  0  0  0  0  0
    7.6082   -1.2086   21.6619 H   0  0  0  0  0  0  0  0  0  0  0  0
    8.8721   -1.4652   20.4453 H   0  0  0  0  0  0  0  0  0  0  0  0
  1  3  2  0  0  0  0
  1  8  1  0  0  0  0
  2  4  1  0  0  0  0
  2  8  2  0  0  0  0
  3  9  1  0  0  0  0
  4  9  2  0  0  0  0
  5  7  1  0  0  0  0
  5 21  2  0  0  0  0
  6  7  2  0  0  0  0
  6 24  1  0  0  0  0
  7 19  1  0  0  0  0
  8 26  1  0  0  0  0
  9 28  1  0  0  0  0
 10 12  1  0  0  0  0
 10 22  2  0  0  0  0
 10 25  1  0  0  0  0
 11 20  1  0  0  0  0
 11 23  2  0  0  0  0
 11 25  1  0  0  0  0
 12 13  2  0  0  0  0
 13 14  1  0  0  0  0
 14 15  2  0  0  0  0
 15 25  1  0  0  0  0
 16 20  1  0  0  0  0
 16 26  1  0  0  0  0
 16 27  2  0  0  0  0
 17 24  1  0  0  0  0
 18 28  1  0  0  0  0
 19 26  1  0  0  0  0
 21 24  1  0  0  0  0
 22 23  1  0  0  0  0
  1 29  1  0  0  0  0
  2 30  1  0  0  0  0
  3 31  1  0  0  0  0
  4 32  1  0  0  0  0
  5 33  1  0  0  0  0
  6 34  1  0  0  0  0
 12 35  1  0  0  0  0
 13 36  1  0  0  0  0
 14 37  1  0  0  0  0
 15 38  1  0  0  0  0
 17 39  1  0  0  0  0
 17 40  1  0  0  0  0
 17 41  1  0  0  0  0
 18 42  1  0  0  0  0
 18 43  1  0  0  0  0
 18 44  1  0  0  0  0
 19 45  1  0  0  0  0
 19 46  1  0  0  0  0
 20 47  1  0  0  0  0
 20 48  1  0  0  0  0
M  END
> <clash_score>
0.6199445293946145

> <docking_score>
-8.719951629638672

> <overlap_score>
0.9605904221534729

$$$$
BENZO_494_1
  -OEChem-08222022213D

 48 51  0     0  0  0  0  0  0999 V2000
   13.4007    0.5725   24.7805 C   0  0  0  0  0  0  0  0  0  0  0  0
   12.0141    0.5273   24.6359 C   0  0  0  0  0  0  0  0  0  0  0  0
    9.0720   -1.1280   24.8640 C   0  0  0  0  0  0  0  0  0  0  0  0
    9.7200   -2.2600   22.8630 C   0  0  0  0  0  0  0  0  0  0  0  0
    8.9960   -2.3380   25.5320 C   0  0  0  0  0  0  0  0  0  0  0  0
    9.6730   -3.4710   23.5300 C   0  0  0  0  0  0  0  0  0  0  0  0
   14.1526    1.4666   24.0184 C   0  0  0  0  0  0  0  0  0  0  0  0
   12.1314    2.2702   22.9668 C   0  0  0  0  0  0  0  0  0  0  0  0
   11.3794    1.3761   23.7290 C   0  0  0  0  0  0  0  0  0  0  0  0
    9.3350   -1.0880   23.5010 C   0  0  0  0  0  0  0  0  0  0  0  0
    9.3070   -3.5340   24.8780 C   0  0  0  0  0  0  0  0  0  0  0  0
   13.5180    2.3154   23.1115 C   0  0  0  0  0  0  0  0  0  0  0  0
    5.8300    0.9190   18.6970 C   0  0  0  0  0  0  0  0  0  0  0  0
    7.3170   -0.1610   19.8550 C   0  0  0  0  0  0  0  0  0  0  0  0
    4.6890    1.6810   18.4640 C   0  0  0  0  0  0  0  0  0  0  0  0
    3.9160    2.0630   19.5520 C   0  0  0  0  0  0  0  0  0  0  0  0
    4.2750    1.7050   20.8490 C   0  0  0  0  0  0  0  0  0  0  0  0
    5.4210    0.9600   21.0930 C   0  0  0  0  0  0  0  0  0  0  0  0
    9.0420    0.3700   21.5280 C   0  0  0  0  0  0  0  0  0  0  0  0
    8.8720   -4.6805   26.9013 C   0  0  0  0  0  0  0  0  0  0  0  0
    9.8870    1.3260   23.5730 C   0  0  0  0  0  0  0  0  0  0  0  0
    8.1890   -0.7180   20.8700 C   0  0  0  0  0  0  0  0  0  0  0  0
    6.7580    0.3810   17.8350 N   0  0  0  0  0  0  0  0  0  0  0  0
    7.6390   -0.2680   18.5410 N   0  0  0  0  0  0  0  0  0  0  0  0
    6.1790    0.5730   19.9990 N   0  0  0  0  0  0  0  0  0  0  0  0
    9.4560    0.1560   22.8130 N   0  0  0  0  0  0  0  0  0  0  0  0
    9.2690    1.4140   20.9380 O   0  0  0  0  0  0  0  0  0  0  0  0
    9.2555   -4.7124   25.5274 O   0  0  0  0  0  0  0  0  0  0  0  0
   14.4463    3.4175   22.1707 Cl  0  0  0  0  0  0  0  0  0  0  0  0
   13.8945   -0.0888   25.4867 H   0  0  0  0  0  0  0  0  0  0  0  0
   11.4361   -0.1726   25.2338 H   0  0  0  0  0  0  0  0  0  0  0  0
    8.9221   -0.1995   25.4231 H   0  0  0  0  0  0  0  0  0  0  0  0
   10.0642   -2.2347   21.8253 H   0  0  0  0  0  0  0  0  0  0  0  0
    8.6902   -2.3588   26.5805 H   0  0  0  0  0  0  0  0  0  0  0  0
    9.9254   -4.3921   22.9961 H   0  0  0  0  0  0  0  0  0  0  0  0
   15.2326    1.4907   24.1414 H   0  0  0  0  0  0  0  0  0  0  0  0
   11.6318    2.9303   22.2615 H   0  0  0  0  0  0  0  0  0  0  0  0
    4.3966    1.9781   17.4720 H   0  0  0  0  0  0  0  0  0  0  0  0
    3.0227    2.6498   19.3695 H   0  0  0  0  0  0  0  0  0  0  0  0
    3.6570    2.0037   21.7071 H   0  0  0  0  0  0  0  0  0  0  0  0
    5.7202    0.6868   22.0802 H   0  0  0  0  0  0  0  0  0  0  0  0
    8.8711   -5.6964   27.3038 H   0  0  0  0  0  0  0  0  0  0  0  0
    7.8758   -4.2402   26.9923 H   0  0  0  0  0  0  0  0  0  0  0  0
    9.5894   -4.0716   27.4566 H   0  0  0  0  0  0  0  0  0  0  0  0
    9.3974    1.2912   24.5523 H   0  0  0  0  0  0  0  0  0  0  0  0
    9.5159    2.2168   23.0554 H   0  0  0  0  0  0  0  0  0  0  0  0
    7.6082   -1.2086   21.6619 H   0  0  0  0  0  0  0  0  0  0  0  0
    8.8721   -1.4652   20.4453 H   0  0  0  0  0  0  0  0  0  0  0  0
  1  2  2  0  0  0  0
  1  7  1  0  0  0  0
  2  9  1  0  0  0  0
  3  5  2  0  0  0  0
  3 10  1  0  0  0  0
  4  6  1  0  0  0  0
  4 10  2  0  0  0  0
  5 11  1  0  0  0  0
  6 11  2  0  0  0  0
  7 12  2  0  0  0  0
  8  9  2  0  0  0  0
  8 12  1  0  0  0  0
  9 21  1  0  0  0  0
 10 26  1  0  0  0  0
 11 28  1  0  0  0  0
 12 29  1  0  0  0  0
 13 15  1  0  0  0  0
 13 23  2  0  0  0  0
 13 25  1  0  0  0  0
 14 22  1  0  0  0  0
 14 24  2  0  0  0  0
 14 25  1  0  0  0  0
 15 16  2  0  0  0  0
 16 17  1  0  0  0  0
 17 18  2  0  0  0  0
 18 25  1  0  0  0  0
 19 22  1  0  0  0  0
 19 26  1  0  0  0  0
 19 27  2  0  0  0  0
 20 28  1  0  0  0  0
 21 26  1  0  0  0  0
 23 24  1  0  0  0  0
  1 30  1  0  0  0  0
  2 31  1  0  0  0  0
  3 32  1  0  0  0  0
  4 33  1  0  0  0  0
  5 34  1  0  0  0  0
  6 35  1  0  0  0  0
  7 36  1  0  0  0  0
  8 37  1  0  0  0  0
 15 38  1  0  0  0  0
 16 39  1  0  0  0  0
 17 40  1  0  0  0  0
 18 41  1  0  0  0  0
 20 42  1  0  0  0  0
 20 43  1  0  0  0  0
 20 44  1  0  0  0  0
 21 45  1  0  0  0  0
 21 46  1  0  0  0  0
 22 47  1  0  0  0  0
 22 48  1  0  0  0  0
M  END
> <clash_score>
0

> <docking_score>
-8.148937225341797

> <overlap_score>
0.9730234742164612

$$$$
BENZO_497_1
  -OEChem-08222022213D

 58 62  0     0  0  0  0  0  0999 V2000
   14.1526    1.4694   24.0176 C   0  0  0  0  0  0  0  0  0  0  0  0
   13.3741    0.8121   24.9701 C   0  0  0  0  0  0  0  0  0  0  0  0
   13.5446    2.0802   22.9208 C   0  0  0  0  0  0  0  0  0  0  0  0
   11.9875    0.7654   24.8258 C   0  0  0  0  0  0  0  0  0  0  0  0
   12.1580    2.0335   22.7765 C   0  0  0  0  0  0  0  0  0  0  0  0
    8.9960   -2.3380   25.5320 C   0  0  0  0  0  0  0  0  0  0  0  0
    9.6730   -3.4710   23.5300 C   0  0  0  0  0  0  0  0  0  0  0  0
    9.0720   -1.1280   24.8640 C   0  0  0  0  0  0  0  0  0  0  0  0
    9.7200   -2.2600   22.8630 C   0  0  0  0  0  0  0  0  0  0  0  0
   11.3794    1.3761   23.7290 C   0  0  0  0  0  0  0  0  0  0  0  0
    9.3070   -3.5340   24.8780 C   0  0  0  0  0  0  0  0  0  0  0  0
    9.3350   -1.0880   23.5010 C   0  0  0  0  0  0  0  0  0  0  0  0
    5.8300    0.9190   18.6970 C   0  0  0  0  0  0  0  0  0  0  0  0
    7.3170   -0.1610   19.8550 C   0  0  0  0  0  0  0  0  0  0  0  0
    4.6890    1.6810   18.4640 C   0  0  0  0  0  0  0  0  0  0  0  0
    3.9160    2.0630   19.5520 C   0  0  0  0  0  0  0  0  0  0  0  0
    4.2750    1.7050   20.8490 C   0  0  0  0  0  0  0  0  0  0  0  0
    5.4210    0.9600   21.0930 C   0  0  0  0  0  0  0  0  0  0  0  0
    8.3597   -5.0073   26.6307 C   0  0  0  0  0  0  0  0  0  0  0  0
    9.0420    0.3700   21.5280 C   0  0  0  0  0  0  0  0  0  0  0  0
    8.4720   -6.3981   27.2296 C   0  0  0  0  0  0  0  0  0  0  0  0
    9.9252   -6.7605   27.4803 C   0  0  0  0  0  0  0  0  0  0  0  0
   10.7833   -6.6094   26.2282 C   0  0  0  0  0  0  0  0  0  0  0  0
   10.0539   -5.9099   25.0823 C   0  0  0  0  0  0  0  0  0  0  0  0
    9.8870    1.3260   23.5730 C   0  0  0  0  0  0  0  0  0  0  0  0
    8.1890   -0.7180   20.8700 C   0  0  0  0  0  0  0  0  0  0  0  0
    6.7580    0.3810   17.8350 N   0  0  0  0  0  0  0  0  0  0  0  0
    7.6390   -0.2680   18.5410 N   0  0  0  0  0  0  0  0  0  0  0  0
    6.1790    0.5730   19.9990 N   0  0  0  0  0  0  0  0  0  0  0  0
    9.2529   -4.7797   25.5644 N   0  0  0  0  0  0  0  0  0  0  0  0
    9.4560    0.1560   22.8130 N   0  0  0  0  0  0  0  0  0  0  0  0
    7.4954   -4.2356   27.0449 O   0  0  0  0  0  0  0  0  0  0  0  0
    9.2690    1.4140   20.9380 O   0  0  0  0  0  0  0  0  0  0  0  0
   15.2322    1.5068   24.1308 H   0  0  0  0  0  0  0  0  0  0  0  0
   13.8473    0.3374   25.8248 H   0  0  0  0  0  0  0  0  0  0  0  0
   14.1503    2.5930   22.1795 H   0  0  0  0  0  0  0  0  0  0  0  0
   11.3889    0.2508   25.5729 H   0  0  0  0  0  0  0  0  0  0  0  0
   11.6930    2.5120   21.9187 H   0  0  0  0  0  0  0  0  0  0  0  0
    8.6895   -2.3529   26.5807 H   0  0  0  0  0  0  0  0  0  0  0  0
    9.9262   -4.3897   22.9916 H   0  0  0  0  0  0  0  0  0  0  0  0
    8.9224   -0.1998   25.4238 H   0  0  0  0  0  0  0  0  0  0  0  0
   10.0649   -2.2343   21.8258 H   0  0  0  0  0  0  0  0  0  0  0  0
    4.3966    1.9781   17.4720 H   0  0  0  0  0  0  0  0  0  0  0  0
    3.0227    2.6498   19.3695 H   0  0  0  0  0  0  0  0  0  0  0  0
    3.6570    2.0037   21.7071 H   0  0  0  0  0  0  0  0  0  0  0  0
    5.7202    0.6868   22.0802 H   0  0  0  0  0  0  0  0  0  0  0  0
    7.9325   -6.4148   28.1641 H   0  0  0  0  0  0  0  0  0  0  0  0
    8.0254   -7.0920   26.5333 H   0  0  0  0  0  0  0  0  0  0  0  0
   10.3387   -6.1267   28.2923 H   0  0  0  0  0  0  0  0  0  0  0  0
    9.9904   -7.8023   27.8537 H   0  0  0  0  0  0  0  0  0  0  0  0
   11.7037   -6.0404   26.4771 H   0  0  0  0  0  0  0  0  0  0  0  0
   11.1411   -7.6068   25.8918 H   0  0  0  0  0  0  0  0  0  0  0  0
   10.7782   -5.5162   24.3756 H   0  0  0  0  0  0  0  0  0  0  0  0
    9.4042   -6.6189   24.5807 H   0  0  0  0  0  0  0  0  0  0  0  0
    9.3974    1.2912   24.5523 H   0  0  0  0  0  0  0  0  0  0  0  0
    9.5159    2.2168   23.0554 H   0  0  0  0  0  0  0  0  0  0  0  0
    7.5972   -1.2056   21.6500 H   0  0  0  0  0  0  0  0  0  0  0  0
    8.8612   -1.4622   20.4334 H   0  0  0  0  0  0  0  0  0  0  0  0
  1  2  1  0  0  0  0
  1  3  2  0  0  0  0
  2  4  2  0  0  0  0
  3  5  1  0  0  0  0
  4 10  1  0  0  0  0
  5 10  2  0  0  0  0
  6  8  2  0  0  0  0
  6 11  1  0  0  0  0
  7  9  1  0  0  0  0
  7 11  2  0  0  0  0
  8 12  1  0  0  0  0
  9 12  2  0  0  0  0
 10 25  1  0  0  0  0
 11 30  1  0  0  0  0
 12 31  1  0  0  0  0
 13 15  1  0  0  0  0
 13 27  2  0  0  0  0
 13 29  1  0  0  0  0
 14 26  1  0  0  0  0
 14 28  2  0  0  0  0
 14 29  1  0  0  0  0
 15 16  2  0  0  0  0
 16 17  1  0  0  0  0
 17 18  2  0  0  0  0
 18 29  1  0  0  0  0
 19 21  1  0  0  0  0
 19 30  1  0  0  0  0
 19 32  2  0  0  0  0
 20 26  1  0  0  0  0
 20 31  1  0  0  0  0
 20 33  2  0  0  0  0
 21 22  1  0  0  0  0
 22 23  1  0  0  0  0
 23 24  1  0  0  0  0
 24 30  1  0  0  0  0
 25 31  1  0  0  0  0
 27 28  1  0  0  0  0
  1 34  1  0  0  0  0
  2 35  1  0  0  0  0
  3 36  1  0  0  0  0
  4 37  1  0  0  0  0
  5 38  1  0  0  0  0
  6 39  1  0  0  0  0
  7 40  1  0  0  0  0
  8 41  1  0  0  0  0
  9 42  1  0  0  0  0
 15 43  1  0  0  0  0
 16 44  1  0  0  0  0
 17 45  1  0  0  0  0
 18 46  1  0  0  0  0
 21 47  1  0  0  0  0
 21 48  1  0  0  0  0
 22 49  1  0  0  0  0
 22 50  1  0  0  0  0
 23 51  1  0  0  0  0
 23 52  1  0  0  0  0
 24 53  1  0  0  0  0
 24 54  1  0  0  0  0
 25 55  1  0  0  0  0
 25 56  1  0  0  0  0
 26 57  1  0  0  0  0
 26 58  1  0  0  0  0
M  END
> <clash_score>
0.7790751876189459

> <docking_score>
-8.371596336364746

> <overlap_score>
1.0041024684906006

$$$$
BENZO_496_1
  -OEChem-08222022213D

 55 59  0     0  0  0  0  0  0999 V2000
    8.9960   -2.3380   25.5320 C   0  0  0  0  0  0  0  0  0  0  0  0
    9.6730   -3.4710   23.5300 C   0  0  0  0  0  0  0  0  0  0  0  0
    9.0720   -1.1280   24.8640 C   0  0  0  0  0  0  0  0  0  0  0  0
    9.7200   -2.2600   22.8630 C   0  0  0  0  0  0  0  0  0  0  0  0
   12.2913    1.4279   22.6355 C   0  0  0  0  0  0  0  0  0  0  0  0
   13.6024    1.4662   23.0564 C   0  0  0  0  0  0  0  0  0  0  0  0
   12.0284    1.3764   24.9443 C   0  0  0  0  0  0  0  0  0  0  0  0
   11.3794    1.3761   23.7290 C   0  0  0  0  0  0  0  0  0  0  0  0
    9.3070   -3.5340   24.8780 C   0  0  0  0  0  0  0  0  0  0  0  0
    9.3350   -1.0880   23.5010 C   0  0  0  0  0  0  0  0  0  0  0  0
    5.8300    0.9190   18.6970 C   0  0  0  0  0  0  0  0  0  0  0  0
    7.3170   -0.1610   19.8550 C   0  0  0  0  0  0  0  0  0  0  0  0
    4.6890    1.6810   18.4640 C   0  0  0  0  0  0  0  0  0  0  0  0
    3.9160    2.0630   19.5520 C   0  0  0  0  0  0  0  0  0  0  0  0
    4.2750    1.7050   20.8490 C   0  0  0  0  0  0  0  0  0  0  0  0
    5.4210    0.9600   21.0930 C   0  0  0  0  0  0  0  0  0  0  0  0
    8.3596   -5.0074   26.6308 C   0  0  0  0  0  0  0  0  0  0  0  0
    9.0420    0.3700   21.5280 C   0  0  0  0  0  0  0  0  0  0  0  0
    8.4579   -6.4047   27.2169 C   0  0  0  0  0  0  0  0  0  0  0  0
    8.4717   -7.4504   26.1159 C   0  0  0  0  0  0  0  0  0  0  0  0
    9.5645   -7.1893   25.0842 C   0  0  0  0  0  0  0  0  0  0  0  0
   10.2327   -5.8252   25.2501 C   0  0  0  0  0  0  0  0  0  0  0  0
    9.8870    1.3260   23.5730 C   0  0  0  0  0  0  0  0  0  0  0  0
    8.1890   -0.7180   20.8700 C   0  0  0  0  0  0  0  0  0  0  0  0
    6.7580    0.3810   17.8350 N   0  0  0  0  0  0  0  0  0  0  0  0
    7.6390   -0.2680   18.5410 N   0  0  0  0  0  0  0  0  0  0  0  0
    6.1790    0.5730   19.9990 N   0  0  0  0  0  0  0  0  0  0  0  0
    9.2529   -4.7798   25.5645 N   0  0  0  0  0  0  0  0  0  0  0  0
    9.4560    0.1560   22.8130 N   0  0  0  0  0  0  0  0  0  0  0  0
    7.5990   -4.1865   27.1424 O   0  0  0  0  0  0  0  0  0  0  0  0
    9.2690    1.4140   20.9380 O   0  0  0  0  0  0  0  0  0  0  0  0
   13.7301    1.4394   24.7638 S   0  0  0  0  0  0  0  0  0  0  0  0
    8.6895   -2.3529   26.5807 H   0  0  0  0  0  0  0  0  0  0  0  0
    9.9262   -4.3897   22.9916 H   0  0  0  0  0  0  0  0  0  0  0  0
    8.9224   -0.1998   25.4238 H   0  0  0  0  0  0  0  0  0  0  0  0
   10.0649   -2.2343   21.8258 H   0  0  0  0  0  0  0  0  0  0  0  0
   12.0045    1.4365   21.5915 H   0  0  0  0  0  0  0  0  0  0  0  0
   14.4914    1.5078   22.4431 H   0  0  0  0  0  0  0  0  0  0  0  0
   11.5886    1.3416   25.9314 H   0  0  0  0  0  0  0  0  0  0  0  0
    4.3966    1.9781   17.4720 H   0  0  0  0  0  0  0  0  0  0  0  0
    3.0227    2.6498   19.3695 H   0  0  0  0  0  0  0  0  0  0  0  0
    3.6570    2.0037   21.7071 H   0  0  0  0  0  0  0  0  0  0  0  0
    5.7202    0.6868   22.0802 H   0  0  0  0  0  0  0  0  0  0  0  0
    9.3706   -6.4745   27.7885 H   0  0  0  0  0  0  0  0  0  0  0  0
    7.6055   -6.5497   27.8636 H   0  0  0  0  0  0  0  0  0  0  0  0
    8.6095   -8.4604   26.5550 H   0  0  0  0  0  0  0  0  0  0  0  0
    7.4835   -7.4763   25.6142 H   0  0  0  0  0  0  0  0  0  0  0  0
   10.3359   -7.9850   25.1531 H   0  0  0  0  0  0  0  0  0  0  0  0
    9.1458   -7.2796   24.0582 H   0  0  0  0  0  0  0  0  0  0  0  0
   10.9408   -5.8640   26.0725 H   0  0  0  0  0  0  0  0  0  0  0  0
   10.7521   -5.5631   24.3347 H   0  0  0  0  0  0  0  0  0  0  0  0
    9.3974    1.2912   24.5523 H   0  0  0  0  0  0  0  0  0  0  0  0
    9.5159    2.2168   23.0554 H   0  0  0  0  0  0  0  0  0  0  0  0
    7.5972   -1.2056   21.6500 H   0  0  0  0  0  0  0  0  0  0  0  0
    8.8612   -1.4622   20.4334 H   0  0  0  0  0  0  0  0  0  0  0  0
  1  3  2  0  0  0  0
  1  9  1  0  0  0  0
  2  4  1  0  0  0  0
  2  9  2  0  0  0  0
  3 10  1  0  0  0  0
  4 10  2  0  0  0  0
  5  6  2  0  0  0  0
  5  8  1  0  0  0  0
  6 32  1  0  0  0  0
  7  8  2  0  0  0  0
  7 32  1  0  0  0  0
  8 23  1  0  0  0  0
  9 28  1  0  0  0  0
 10 29  1  0  0  0  0
 11 13  1  0  0  0  0
 11 25  2  0  0  0  0
 11 27  1  0  0  0  0
 12 24  1  0  0  0  0
 12 26  2  0  0  0  0
 12 27  1  0  0  0  0
 13 14  2  0  0  0  0
 14 15  1  0  0  0  0
 15 16  2  0  0  0  0
 16 27  1  0  0  0  0
 17 19  1  0  0  0  0
 17 28  1  0  0  0  0
 17 30  2  0  0  0  0
 18 24  1  0  0  0  0
 18 29  1  0  0  0  0
 18 31  2  0  0  0  0
 19 20  1  0  0  0  0
 20 21  1  0  0  0  0
 21 22  1  0  0  0  0
 22 28  1  0  0  0  0
 23 29  1  0  0  0  0
 25 26  1  0  0  0  0
  1 33  1  0  0  0  0
  2 34  1  0  0  0  0
  3 35  1  0  0  0  0
  4 36  1  0  0  0  0
  5 37  1  0  0  0  0
  6 38  1  0  0  0  0
  7 39  1  0  0  0  0
 13 40  1  0  0  0  0
 14 41  1  0  0  0  0
 15 42  1  0  0  0  0
 16 43  1  0  0  0  0
 19 44  1  0  0  0  0
 19 45  1  0  0  0  0
 20 46  1  0  0  0  0
 20 47  1  0  0  0  0
 21 48  1  0  0  0  0
 21 49  1  0  0  0  0
 22 50  1  0  0  0  0
 22 51  1  0  0  0  0
 23 52  1  0  0  0  0
 23 53  1  0  0  0  0
 24 54  1  0  0  0  0
 24 55  1  0  0  0  0
M  END
> <clash_score>
0.6354466317061015

> <docking_score>
-8.286897659301758

> <overlap_score>
0.9878003001213074

$$$$
BENZO_499_1
  -OEChem-08222022213D

 58 62  0     0  0  0  0  0  0999 V2000
    8.9960   -2.3380   25.5320 C   0  0  0  0  0  0  0  0  0  0  0  0
    9.6730   -3.4710   23.5300 C   0  0  0  0  0  0  0  0  0  0  0  0
    9.0720   -1.1280   24.8640 C   0  0  0  0  0  0  0  0  0  0  0  0
    9.7200   -2.2600   22.8630 C   0  0  0  0  0  0  0  0  0  0  0  0
   12.1233    1.3811   24.9242 C   0  0  0  0  0  0  0  0  0  0  0  0
   12.3262    1.4247   22.7351 C   0  0  0  0  0  0  0  0  0  0  0  0
   11.3794    1.3761   23.7290 C   0  0  0  0  0  0  0  0  0  0  0  0
    9.3070   -3.5340   24.8780 C   0  0  0  0  0  0  0  0  0  0  0  0
    9.3350   -1.0880   23.5010 C   0  0  0  0  0  0  0  0  0  0  0  0
    5.8300    0.9190   18.6970 C   0  0  0  0  0  0  0  0  0  0  0  0
    7.3170   -0.1610   19.8550 C   0  0  0  0  0  0  0  0  0  0  0  0
    4.6890    1.6810   18.4640 C   0  0  0  0  0  0  0  0  0  0  0  0
    3.9160    2.0630   19.5520 C   0  0  0  0  0  0  0  0  0  0  0  0
    4.2750    1.7050   20.8490 C   0  0  0  0  0  0  0  0  0  0  0  0
    5.4210    0.9600   21.0930 C   0  0  0  0  0  0  0  0  0  0  0  0
    8.3597   -5.0073   26.6307 C   0  0  0  0  0  0  0  0  0  0  0  0
    9.0420    0.3700   21.5280 C   0  0  0  0  0  0  0  0  0  0  0  0
    8.4720   -6.3981   27.2296 C   0  0  0  0  0  0  0  0  0  0  0  0
    9.9252   -6.7605   27.4803 C   0  0  0  0  0  0  0  0  0  0  0  0
   10.7833   -6.6094   26.2282 C   0  0  0  0  0  0  0  0  0  0  0  0
   10.0539   -5.9099   25.0823 C   0  0  0  0  0  0  0  0  0  0  0  0
   14.8305    1.5084   22.7418 C   0  0  0  0  0  0  0  0  0  0  0  0
    9.8870    1.3260   23.5730 C   0  0  0  0  0  0  0  0  0  0  0  0
    8.1890   -0.7180   20.8700 C   0  0  0  0  0  0  0  0  0  0  0  0
   13.4410    1.4289   24.7112 N   0  0  0  0  0  0  0  0  0  0  0  0
    6.7580    0.3810   17.8350 N   0  0  0  0  0  0  0  0  0  0  0  0
    7.6390   -0.2680   18.5410 N   0  0  0  0  0  0  0  0  0  0  0  0
   13.5326    1.4543   23.3707 N   0  0  0  0  0  0  0  0  0  0  0  0
    6.1790    0.5730   19.9990 N   0  0  0  0  0  0  0  0  0  0  0  0
    9.2529   -4.7797   25.5644 N   0  0  0  0  0  0  0  0  0  0  0  0
    9.4560    0.1560   22.8130 N   0  0  0  0  0  0  0  0  0  0  0  0
    7.4954   -4.2356   27.0449 O   0  0  0  0  0  0  0  0  0  0  0  0
    9.2690    1.4140   20.9380 O   0  0  0  0  0  0  0  0  0  0  0  0
    8.6895   -2.3529   26.5807 H   0  0  0  0  0  0  0  0  0  0  0  0
    9.9262   -4.3897   22.9916 H   0  0  0  0  0  0  0  0  0  0  0  0
    8.9224   -0.1998   25.4238 H   0  0  0  0  0  0  0  0  0  0  0  0
   10.0649   -2.2343   21.8258 H   0  0  0  0  0  0  0  0  0  0  0  0
   11.7624    1.3510   25.9426 H   0  0  0  0  0  0  0  0  0  0  0  0
   12.2462    1.4390   21.6566 H   0  0  0  0  0  0  0  0  0  0  0  0
    4.3966    1.9781   17.4720 H   0  0  0  0  0  0  0  0  0  0  0  0
    3.0227    2.6498   19.3695 H   0  0  0  0  0  0  0  0  0  0  0  0
    3.6570    2.0037   21.7071 H   0  0  0  0  0  0  0  0  0  0  0  0
    5.7202    0.6868   22.0802 H   0  0  0  0  0  0  0  0  0  0  0  0
    7.9325   -6.4148   28.1641 H   0  0  0  0  0  0  0  0  0  0  0  0
    8.0254   -7.0920   26.5333 H   0  0  0  0  0  0  0  0  0  0  0  0
   10.3387   -6.1267   28.2923 H   0  0  0  0  0  0  0  0  0  0  0  0
    9.9904   -7.8023   27.8537 H   0  0  0  0  0  0  0  0  0  0  0  0
   11.7037   -6.0404   26.4771 H   0  0  0  0  0  0  0  0  0  0  0  0
   11.1411   -7.6068   25.8918 H   0  0  0  0  0  0  0  0  0  0  0  0
   10.7782   -5.5162   24.3756 H   0  0  0  0  0  0  0  0  0  0  0  0
    9.4042   -6.6189   24.5807 H   0  0  0  0  0  0  0  0  0  0  0  0
   15.0990    2.5601   22.6124 H   0  0  0  0  0  0  0  0  0  0  0  0
   15.5636    1.0018   23.3756 H   0  0  0  0  0  0  0  0  0  0  0  0
   14.7841    1.0025   21.7733 H   0  0  0  0  0  0  0  0  0  0  0  0
    9.3974    1.2912   24.5523 H   0  0  0  0  0  0  0  0  0  0  0  0
    9.5159    2.2168   23.0554 H   0  0  0  0  0  0  0  0  0  0  0  0
    7.5972   -1.2056   21.6500 H   0  0  0  0  0  0  0  0  0  0  0  0
    8.8612   -1.4622   20.4334 H   0  0  0  0  0  0  0  0  0  0  0  0
  1  3  2  0  0  0  0
  1  8  1  0  0  0  0
  2  4  1  0  0  0  0
  2  8  2  0  0  0  0
  3  9  1  0  0  0  0
  4  9  2  0  0  0  0
  5  7  1  0  0  0  0
  5 25  2  0  0  0  0
  6  7  2  0  0  0  0
  6 28  1  0  0  0  0
  7 23  1  0  0  0  0
  8 30  1  0  0  0  0
  9 31  1  0  0  0  0
 10 12  1  0  0  0  0
 10 26  2  0  0  0  0
 10 29  1  0  0  0  0
 11 24  1  0  0  0  0
 11 27  2  0  0  0  0
 11 29  1  0  0  0  0
 12 13  2  0  0  0  0
 13 14  1  0  0  0  0
 14 15  2  0  0  0  0
 15 29  1  0  0  0  0
 16 18  1  0  0  0  0
 16 30  1  0  0  0  0
 16 32  2  0  0  0  0
 17 24  1  0  0  0  0
 17 31  1  0  0  0  0
 17 33  2  0  0  0  0
 18 19  1  0  0  0  0
 19 20  1  0  0  0  0
 20 21  1  0  0  0  0
 21 30  1  0  0  0  0
 22 28  1  0  0  0  0
 23 31  1  0  0  0  0
 25 28  1  0  0  0  0
 26 27  1  0  0  0  0
  1 34  1  0  0  0  0
  2 35  1  0  0  0  0
  3 36  1  0  0  0  0
  4 37  1  0  0  0  0
  5 38  1  0  0  0  0
  6 39  1  0  0  0  0
 12 40  1  0  0  0  0
 13 41  1  0  0  0  0
 14 42  1  0  0  0  0
 15 43  1  0  0  0  0
 18 44  1  0  0  0  0
 18 45  1  0  0  0  0
 19 46  1  0  0  0  0
 19 47  1  0  0  0  0
 20 48  1  0  0  0  0
 20 49  1  0  0  0  0
 21 50  1  0  0  0  0
 21 51  1  0  0  0  0
 22 52  1  0  0  0  0
 22 53  1  0  0  0  0
 22 54  1  0  0  0  0
 23 55  1  0  0  0  0
 23 56  1  0  0  0  0
 24 57  1  0  0  0  0
 24 58  1  0  0  0  0
M  END
> <clash_score>
0.7790751876189459

> <docking_score>
-8.087728500366211

> <overlap_score>
0.999036431312561

$$$$
BENZO_498_1
  -OEChem-08222022213D

 58 62  0     0  0  0  0  0  0999 V2000
   13.4007    0.5725   24.7805 C   0  0  0  0  0  0  0  0  0  0  0  0
   12.0141    0.5273   24.6359 C   0  0  0  0  0  0  0  0  0  0  0  0
    8.9960   -2.3380   25.5320 C   0  0  0  0  0  0  0  0  0  0  0  0
    9.6730   -3.4710   23.5300 C   0  0  0  0  0  0  0  0  0  0  0  0
    9.0720   -1.1280   24.8640 C   0  0  0  0  0  0  0  0  0  0  0  0
    9.7200   -2.2600   22.8630 C   0  0  0  0  0  0  0  0  0  0  0  0
   14.1526    1.4666   24.0184 C   0  0  0  0  0  0  0  0  0  0  0  0
   12.1314    2.2702   22.9668 C   0  0  0  0  0  0  0  0  0  0  0  0
   11.3794    1.3761   23.7290 C   0  0  0  0  0  0  0  0  0  0  0  0
    9.3070   -3.5340   24.8780 C   0  0  0  0  0  0  0  0  0  0  0  0
    9.3350   -1.0880   23.5010 C   0  0  0  0  0  0  0  0  0  0  0  0
   13.5180    2.3154   23.1115 C   0  0  0  0  0  0  0  0  0  0  0  0
    5.8300    0.9190   18.6970 C   0  0  0  0  0  0  0  0  0  0  0  0
    7.3170   -0.1610   19.8550 C   0  0  0  0  0  0  0  0  0  0  0  0
    4.6890    1.6810   18.4640 C   0  0  0  0  0  0  0  0  0  0  0  0
    3.9160    2.0630   19.5520 C   0  0  0  0  0  0  0  0  0  0  0  0
    4.2750    1.7050   20.8490 C   0  0  0  0  0  0  0  0  0  0  0  0
    5.4210    0.9600   21.0930 C   0  0  0  0  0  0  0  0  0  0  0  0
    8.3597   -5.0073   26.6307 C   0  0  0  0  0  0  0  0  0  0  0  0
    9.0420    0.3700   21.5280 C   0  0  0  0  0  0  0  0  0  0  0  0
    8.4720   -6.3981   27.2296 C   0  0  0  0  0  0  0  0  0  0  0  0
    9.9252   -6.7605   27.4803 C   0  0  0  0  0  0  0  0  0  0  0  0
   10.7833   -6.6094   26.2282 C   0  0  0  0  0  0  0  0  0  0  0  0
   10.0539   -5.9099   25.0823 C   0  0  0  0  0  0  0  0  0  0  0  0
    9.8870    1.3260   23.5730 C   0  0  0  0  0  0  0  0  0  0  0  0
    8.1890   -0.7180   20.8700 C   0  0  0  0  0  0  0  0  0  0  0  0
    6.7580    0.3810   17.8350 N   0  0  0  0  0  0  0  0  0  0  0  0
    7.6390   -0.2680   18.5410 N   0  0  0  0  0  0  0  0  0  0  0  0
    6.1790    0.5730   19.9990 N   0  0  0  0  0  0  0  0  0  0  0  0
    9.2529   -4.7797   25.5644 N   0  0  0  0  0  0  0  0  0  0  0  0
    9.4560    0.1560   22.8130 N   0  0  0  0  0  0  0  0  0  0  0  0
    7.4954   -4.2356   27.0449 O   0  0  0  0  0  0  0  0  0  0  0  0
    9.2690    1.4140   20.9380 O   0  0  0  0  0  0  0  0  0  0  0  0
   14.4464    3.4175   22.1707 Cl  0  0  0  0  0  0  0  0  0  0  0  0
   13.8945   -0.0888   25.4867 H   0  0  0  0  0  0  0  0  0  0  0  0
   11.4361   -0.1726   25.2338 H   0  0  0  0  0  0  0  0  0  0  0  0
    8.6895   -2.3529   26.5807 H   0  0  0  0  0  0  0  0  0  0  0  0
    9.9262   -4.3897   22.9916 H   0  0  0  0  0  0  0  0  0  0  0  0
    8.9224   -0.1998   25.4238 H   0  0  0  0  0  0  0  0  0  0  0  0
   10.0649   -2.2343   21.8258 H   0  0  0  0  0  0  0  0  0  0  0  0
   15.2326    1.4906   24.1414 H   0  0  0  0  0  0  0  0  0  0  0  0
   11.6318    2.9303   22.2615 H   0  0  0  0  0  0  0  0  0  0  0  0
    4.3966    1.9781   17.4720 H   0  0  0  0  0  0  0  0  0  0  0  0
    3.0227    2.6498   19.3695 H   0  0  0  0  0  0  0  0  0  0  0  0
    3.6570    2.0037   21.7071 H   0  0  0  0  0  0  0  0  0  0  0  0
    5.7202    0.6868   22.0802 H   0  0  0  0  0  0  0  0  0  0  0  0
    7.9325   -6.4148   28.1641 H   0  0  0  0  0  0  0  0  0  0  0  0
    8.0254   -7.0920   26.5333 H   0  0  0  0  0  0  0  0  0  0  0  0
   10.3387   -6.1267   28.2923 H   0  0  0  0  0  0  0  0  0  0  0  0
    9.9904   -7.8023   27.8537 H   0  0  0  0  0  0  0  0  0  0  0  0
   11.7037   -6.0404   26.4771 H   0  0  0  0  0  0  0  0  0  0  0  0
   11.1411   -7.6068   25.8918 H   0  0  0  0  0  0  0  0  0  0  0  0
   10.7782   -5.5162   24.3756 H   0  0  0  0  0  0  0  0  0  0  0  0
    9.4042   -6.6189   24.5807 H   0  0  0  0  0  0  0  0  0  0  0  0
    9.3974    1.2912   24.5523 H   0  0  0  0  0  0  0  0  0  0  0  0
    9.5159    2.2168   23.0554 H   0  0  0  0  0  0  0  0  0  0  0  0
    7.5972   -1.2056   21.6500 H   0  0  0  0  0  0  0  0  0  0  0  0
    8.8612   -1.4622   20.4334 H   0  0  0  0  0  0  0  0  0  0  0  0
  1  2  2  0  0  0  0
  1  7  1  0  0  0  0
  2  9  1  0  0  0  0
  3  5  2  0  0  0  0
  3 10  1  0  0  0  0
  4  6  1  0  0  0  0
  4 10  2  0  0  0  0
  5 11  1  0  0  0  0
  6 11  2  0  0  0  0
  7 12  2  0  0  0  0
  8  9  2  0  0  0  0
  8 12  1  0  0  0  0
  9 25  1  0  0  0  0
 10 30  1  0  0  0  0
 11 31  1  0  0  0  0
 12 34  1  0  0  0  0
 13 15  1  0  0  0  0
 13 27  2  0  0  0  0
 13 29  1  0  0  0  0
 14 26  1  0  0  0  0
 14 28  2  0  0  0  0
 14 29  1  0  0  0  0
 15 16  2  0  0  0  0
 16 17  1  0  0  0  0
 17 18  2  0  0  0  0
 18 29  1  0  0  0  0
 19 21  1  0  0  0  0
 19 30  1  0  0  0  0
 19 32  2  0  0  0  0
 20 26  1  0  0  0  0
 20 31  1  0  0  0  0
 20 33  2  0  0  0  0
 21 22  1  0  0  0  0
 22 23  1  0  0  0  0
 23 24  1  0  0  0  0
 24 30  1  0  0  0  0
 25 31  1  0  0  0  0
 27 28  1  0  0  0  0
  1 35  1  0  0  0  0
  2 36  1  0  0  0  0
  3 37  1  0  0  0  0
  4 38  1  0  0  0  0
  5 39  1  0  0  0  0
  6 40  1  0  0  0  0
  7 41  1  0  0  0  0
  8 42  1  0  0  0  0
 15 43  1  0  0  0  0
 16 44  1  0  0  0  0
 17 45  1  0  0  0  0
 18 46  1  0  0  0  0
 21 47  1  0  0  0  0
 21 48  1  0  0  0  0
 22 49  1  0  0  0  0
 22 50  1  0  0  0  0
 23 51  1  0  0  0  0
 23 52  1  0  0  0  0
 24 53  1  0  0  0  0
 24 54  1  0  0  0  0
 25 55  1  0  0  0  0
 25 56  1  0  0  0  0
 26 57  1  0  0  0  0
 26 58  1  0  0  0  0
M  END
> <clash_score>
0.7790751876189459

> <docking_score>
-7.508556365966797

> <overlap_score>
1.015157699584961

$$$$
BENZO_501_1
  -OEChem-08222022213D

 57 61  0     0  0  0  0  0  0999 V2000
   14.1526    1.4694   24.0176 C   0  0  0  0  0  0  0  0  0  0  0  0
   13.3741    0.8121   24.9701 C   0  0  0  0  0  0  0  0  0  0  0  0
   13.5446    2.0802   22.9208 C   0  0  0  0  0  0  0  0  0  0  0  0
   11.9875    0.7654   24.8258 C   0  0  0  0  0  0  0  0  0  0  0  0
   12.1580    2.0335   22.7765 C   0  0  0  0  0  0  0  0  0  0  0  0
    8.9960   -2.3380   25.5320 C   0  0  0  0  0  0  0  0  0  0  0  0
    9.6730   -3.4710   23.5300 C   0  0  0  0  0  0  0  0  0  0  0  0
    9.0720   -1.1280   24.8640 C   0  0  0  0  0  0  0  0  0  0  0  0
    9.7200   -2.2600   22.8630 C   0  0  0  0  0  0  0  0  0  0  0  0
   11.3794    1.3761   23.7290 C   0  0  0  0  0  0  0  0  0  0  0  0
    9.3070   -3.5340   24.8780 C   0  0  0  0  0  0  0  0  0  0  0  0
    9.3350   -1.0880   23.5010 C   0  0  0  0  0  0  0  0  0  0  0  0
    5.8300    0.9190   18.6970 C   0  0  0  0  0  0  0  0  0  0  0  0
    7.3170   -0.1610   19.8550 C   0  0  0  0  0  0  0  0  0  0  0  0
    4.6890    1.6810   18.4640 C   0  0  0  0  0  0  0  0  0  0  0  0
    3.9160    2.0630   19.5520 C   0  0  0  0  0  0  0  0  0  0  0  0
    4.2750    1.7050   20.8490 C   0  0  0  0  0  0  0  0  0  0  0  0
    5.4210    0.9600   21.0930 C   0  0  0  0  0  0  0  0  0  0  0  0
    9.0420    0.3700   21.5280 C   0  0  0  0  0  0  0  0  0  0  0  0
   10.0771   -5.0255   26.7193 C   0  0  0  0  0  0  0  0  0  0  0  0
    8.0927   -5.6195   25.4071 C   0  0  0  0  0  0  0  0  0  0  0  0
    9.1933   -4.9427   27.9592 C   0  0  0  0  0  0  0  0  0  0  0  0
    7.2756   -5.5290   26.6967 C   0  0  0  0  0  0  0  0  0  0  0  0
    9.8870    1.3260   23.5730 C   0  0  0  0  0  0  0  0  0  0  0  0
    8.1890   -0.7180   20.8700 C   0  0  0  0  0  0  0  0  0  0  0  0
    6.7580    0.3810   17.8350 N   0  0  0  0  0  0  0  0  0  0  0  0
    7.6390   -0.2680   18.5410 N   0  0  0  0  0  0  0  0  0  0  0  0
    6.1790    0.5730   19.9990 N   0  0  0  0  0  0  0  0  0  0  0  0
    9.2563   -4.7368   25.5413 N   0  0  0  0  0  0  0  0  0  0  0  0
    9.4560    0.1560   22.8130 N   0  0  0  0  0  0  0  0  0  0  0  0
    9.2690    1.4140   20.9380 O   0  0  0  0  0  0  0  0  0  0  0  0
    8.0883   -5.8459   27.8325 O   0  0  0  0  0  0  0  0  0  0  0  0
   15.2322    1.5068   24.1308 H   0  0  0  0  0  0  0  0  0  0  0  0
   13.8473    0.3374   25.8248 H   0  0  0  0  0  0  0  0  0  0  0  0
   14.1503    2.5930   22.1795 H   0  0  0  0  0  0  0  0  0  0  0  0
   11.3889    0.2508   25.5729 H   0  0  0  0  0  0  0  0  0  0  0  0
   11.6930    2.5120   21.9187 H   0  0  0  0  0  0  0  0  0  0  0  0
    8.6905   -2.3533   26.5810 H   0  0  0  0  0  0  0  0  0  0  0  0
    9.9266   -4.3896   22.9917 H   0  0  0  0  0  0  0  0  0  0  0  0
    8.9233   -0.1992   25.4232 H   0  0  0  0  0  0  0  0  0  0  0  0
   10.0650   -2.2330   21.8256 H   0  0  0  0  0  0  0  0  0  0  0  0
    4.3966    1.9781   17.4720 H   0  0  0  0  0  0  0  0  0  0  0  0
    3.0227    2.6498   19.3695 H   0  0  0  0  0  0  0  0  0  0  0  0
    3.6570    2.0037   21.7071 H   0  0  0  0  0  0  0  0  0  0  0  0
    5.7202    0.6868   22.0802 H   0  0  0  0  0  0  0  0  0  0  0  0
   10.8985   -4.3115   26.8085 H   0  0  0  0  0  0  0  0  0  0  0  0
   10.4915   -6.0334   26.6323 H   0  0  0  0  0  0  0  0  0  0  0  0
    8.4327   -6.6456   25.2620 H   0  0  0  0  0  0  0  0  0  0  0  0
    7.4725   -5.3241   24.5619 H   0  0  0  0  0  0  0  0  0  0  0  0
    9.7636   -5.2398   28.8419 H   0  0  0  0  0  0  0  0  0  0  0  0
    8.8236   -3.9268   28.1248 H   0  0  0  0  0  0  0  0  0  0  0  0
    6.8339   -4.5337   26.8232 H   0  0  0  0  0  0  0  0  0  0  0  0
    6.4550   -6.2521   26.6643 H   0  0  0  0  0  0  0  0  0  0  0  0
    9.3974    1.2912   24.5523 H   0  0  0  0  0  0  0  0  0  0  0  0
    9.5159    2.2168   23.0554 H   0  0  0  0  0  0  0  0  0  0  0  0
    7.5972   -1.2056   21.6500 H   0  0  0  0  0  0  0  0  0  0  0  0
    8.8612   -1.4622   20.4334 H   0  0  0  0  0  0  0  0  0  0  0  0
  1  2  1  0  0  0  0
  1  3  2  0  0  0  0
  2  4  2  0  0  0  0
  3  5  1  0  0  0  0
  4 10  1  0  0  0  0
  5 10  2  0  0  0  0
  6  8  2  0  0  0  0
  6 11  1  0  0  0  0
  7  9  1  0  0  0  0
  7 11  2  0  0  0  0
  8 12  1  0  0  0  0
  9 12  2  0  0  0  0
 10 24  1  0  0  0  0
 11 29  1  0  0  0  0
 12 30  1  0  0  0  0
 13 15  1  0  0  0  0
 13 26  2  0  0  0  0
 13 28  1  0  0  0  0
 14 25  1  0  0  0  0
 14 27  2  0  0  0  0
 14 28  1  0  0  0  0
 15 16  2  0  0  0  0
 16 17  1  0  0  0  0
 17 18  2  0  0  0  0
 18 28  1  0  0  0  0
 19 25  1  0  0  0  0
 19 30  1  0  0  0  0
 19 31  2  0  0  0  0
 20 22  1  0  0  0  0
 20 29  1  0  0  0  0
 21 23  1  0  0  0  0
 21 29  1  0  0  0  0
 22 32  1  0  0  0  0
 23 32  1  0  0  0  0
 24 30  1  0  0  0  0
 26 27  1  0  0  0  0
  1 33  1  0  0  0  0
  2 34  1  0  0  0  0
  3 35  1  0  0  0  0
  4 36  1  0  0  0  0
  5 37  1  0  0  0  0
  6 38  1  0  0  0  0
  7 39  1  0  0  0  0
  8 40  1  0  0  0  0
  9 41  1  0  0  0  0
 15 42  1  0  0  0  0
 16 43  1  0  0  0  0
 17 44  1  0  0  0  0
 18 45  1  0  0  0  0
 20 46  1  0  0  0  0
 20 47  1  0  0  0  0
 21 48  1  0  0  0  0
 21 49  1  0  0  0  0
 22 50  1  0  0  0  0
 22 51  1  0  0  0  0
 23 52  1  0  0  0  0
 23 53  1  0  0  0  0
 24 54  1  0  0  0  0
 24 55  1  0  0  0  0
 25 56  1  0  0  0  0
 25 57  1  0  0  0  0
M  END
> <clash_score>
0

> <docking_score>
-9.35270881652832

> <overlap_score>
0.9903321862220764

$$$$
BENZO_500_1
  -OEChem-08222022213D

 54 58  0     0  0  0  0  0  0999 V2000
    8.9960   -2.3380   25.5320 C   0  0  0  0  0  0  0  0  0  0  0  0
    9.6730   -3.4710   23.5300 C   0  0  0  0  0  0  0  0  0  0  0  0
    9.0720   -1.1280   24.8640 C   0  0  0  0  0  0  0  0  0  0  0  0
    9.7200   -2.2600   22.8630 C   0  0  0  0  0  0  0  0  0  0  0  0
   12.2111    0.2208   23.7905 C   0  0  0  0  0  0  0  0  0  0  0  0
   13.5412    0.5479   23.9363 C   0  0  0  0  0  0  0  0  0  0  0  0
   12.1057    2.5423   23.8305 C   0  0  0  0  0  0  0  0  0  0  0  0
   11.3794    1.3761   23.7290 C   0  0  0  0  0  0  0  0  0  0  0  0
    9.3070   -3.5340   24.8780 C   0  0  0  0  0  0  0  0  0  0  0  0
    9.3350   -1.0880   23.5010 C   0  0  0  0  0  0  0  0  0  0  0  0
    5.8300    0.9190   18.6970 C   0  0  0  0  0  0  0  0  0  0  0  0
    7.3170   -0.1610   19.8550 C   0  0  0  0  0  0  0  0  0  0  0  0
    4.6890    1.6810   18.4640 C   0  0  0  0  0  0  0  0  0  0  0  0
    3.9160    2.0630   19.5520 C   0  0  0  0  0  0  0  0  0  0  0  0
    4.2750    1.7050   20.8490 C   0  0  0  0  0  0  0  0  0  0  0  0
    5.4210    0.9600   21.0930 C   0  0  0  0  0  0  0  0  0  0  0  0
    9.0420    0.3700   21.5280 C   0  0  0  0  0  0  0  0  0  0  0  0
    9.5175   -4.8597   26.9771 C   0  0  0  0  0  0  0  0  0  0  0  0
    8.5165   -5.8725   24.9808 C   0  0  0  0  0  0  0  0  0  0  0  0
    8.1868   -5.0439   27.6987 C   0  0  0  0  0  0  0  0  0  0  0  0
    7.2200   -6.0347   25.7755 C   0  0  0  0  0  0  0  0  0  0  0  0
    9.8870    1.3260   23.5730 C   0  0  0  0  0  0  0  0  0  0  0  0
    8.1890   -0.7180   20.8700 C   0  0  0  0  0  0  0  0  0  0  0  0
    6.7580    0.3810   17.8350 N   0  0  0  0  0  0  0  0  0  0  0  0
    7.6390   -0.2680   18.5410 N   0  0  0  0  0  0  0  0  0  0  0  0
    6.1790    0.5730   19.9990 N   0  0  0  0  0  0  0  0  0  0  0  0
    9.2563   -4.7368   25.5413 N   0  0  0  0  0  0  0  0  0  0  0  0
    9.4560    0.1560   22.8130 N   0  0  0  0  0  0  0  0  0  0  0  0
    9.2690    1.4140   20.9380 O   0  0  0  0  0  0  0  0  0  0  0  0
    7.4994   -6.1853   27.1719 O   0  0  0  0  0  0  0  0  0  0  0  0
   13.7831    2.2420   23.9988 S   0  0  0  0  0  0  0  0  0  0  0  0
    8.6905   -2.3533   26.5810 H   0  0  0  0  0  0  0  0  0  0  0  0
    9.9266   -4.3896   22.9917 H   0  0  0  0  0  0  0  0  0  0  0  0
    8.9233   -0.1992   25.4232 H   0  0  0  0  0  0  0  0  0  0  0  0
   10.0650   -2.2330   21.8256 H   0  0  0  0  0  0  0  0  0  0  0  0
   11.8558   -0.8003   23.7315 H   0  0  0  0  0  0  0  0  0  0  0  0
   14.3824   -0.1267   24.0100 H   0  0  0  0  0  0  0  0  0  0  0  0
   11.7354    3.5581   23.8155 H   0  0  0  0  0  0  0  0  0  0  0  0
    4.3966    1.9781   17.4720 H   0  0  0  0  0  0  0  0  0  0  0  0
    3.0227    2.6498   19.3695 H   0  0  0  0  0  0  0  0  0  0  0  0
    3.6570    2.0037   21.7071 H   0  0  0  0  0  0  0  0  0  0  0  0
    5.7202    0.6868   22.0802 H   0  0  0  0  0  0  0  0  0  0  0  0
   10.0205   -3.9698   27.3609 H   0  0  0  0  0  0  0  0  0  0  0  0
   10.1535   -5.7310   27.1549 H   0  0  0  0  0  0  0  0  0  0  0  0
    9.1181   -6.7773   25.0755 H   0  0  0  0  0  0  0  0  0  0  0  0
    8.2812   -5.7064   23.9305 H   0  0  0  0  0  0  0  0  0  0  0  0
    8.3629   -5.2252   28.7611 H   0  0  0  0  0  0  0  0  0  0  0  0
    7.5530   -4.1570   27.6103 H   0  0  0  0  0  0  0  0  0  0  0  0
    6.5459   -5.1839   25.6221 H   0  0  0  0  0  0  0  0  0  0  0  0
    6.6948   -6.9354   25.4436 H   0  0  0  0  0  0  0  0  0  0  0  0
    9.3974    1.2912   24.5523 H   0  0  0  0  0  0  0  0  0  0  0  0
    9.5159    2.2168   23.0554 H   0  0  0  0  0  0  0  0  0  0  0  0
    7.5972   -1.2056   21.6500 H   0  0  0  0  0  0  0  0  0  0  0  0
    8.8612   -1.4622   20.4334 H   0  0  0  0  0  0  0  0  0  0  0  0
  1  3  2  0  0  0  0
  1  9  1  0  0  0  0
  2  4  1  0  0  0  0
  2  9  2  0  0  0  0
  3 10  1  0  0  0  0
  4 10  2  0  0  0  0
  5  6  2  0  0  0  0
  5  8  1  0  0  0  0
  6 31  1  0  0  0  0
  7  8  2  0  0  0  0
  7 31  1  0  0  0  0
  8 22  1  0  0  0  0
  9 27  1  0  0  0  0
 10 28  1  0  0  0  0
 11 13  1  0  0  0  0
 11 24  2  0  0  0  0
 11 26  1  0  0  0  0
 12 23  1  0  0  0  0
 12 25  2  0  0  0  0
 12 26  1  0  0  0  0
 13 14  2  0  0  0  0
 14 15  1  0  0  0  0
 15 16  2  0  0  0  0
 16 26  1  0  0  0  0
 17 23  1  0  0  0  0
 17 28  1  0  0  0  0
 17 29  2  0  0  0  0
 18 20  1  0  0  0  0
 18 27  1  0  0  0  0
 19 21  1  0  0  0  0
 19 27  1  0  0  0  0
 20 30  1  0  0  0  0
 21 30  1  0  0  0  0
 22 28  1  0  0  0  0
 24 25  1  0  0  0  0
  1 32  1  0  0  0  0
  2 33  1  0  0  0  0
  3 34  1  0  0  0  0
  4 35  1  0  0  0  0
  5 36  1  0  0  0  0
  6 37  1  0  0  0  0
  7 38  1  0  0  0  0
 13 39  1  0  0  0  0
 14 40  1  0  0  0  0
 15 41  1  0  0  0  0
 16 42  1  0  0  0  0
 18 43  1  0  0  0  0
 18 44  1  0  0  0  0
 19 45  1  0  0  0  0
 19 46  1  0  0  0  0
 20 47  1  0  0  0  0
 20 48  1  0  0  0  0
 21 49  1  0  0  0  0
 21 50  1  0  0  0  0
 22 51  1  0  0  0  0
 22 52  1  0  0  0  0
 23 53  1  0  0  0  0
 23 54  1  0  0  0  0
M  END
> <clash_score>
0

> <docking_score>
-8.587987899780273

> <overlap_score>
0.9791509509086609

$$$$
BENZO_503_1
  -OEChem-08222022213D

 57 61  0     0  0  0  0  0  0999 V2000
    8.9960   -2.3380   25.5320 C   0  0  0  0  0  0  0  0  0  0  0  0
    9.6730   -3.4710   23.5300 C   0  0  0  0  0  0  0  0  0  0  0  0
    9.0720   -1.1280   24.8640 C   0  0  0  0  0  0  0  0  0  0  0  0
    9.7200   -2.2600   22.8630 C   0  0  0  0  0  0  0  0  0  0  0  0
   12.2914    2.2071   23.0512 C   0  0  0  0  0  0  0  0  0  0  0  0
   12.1614    0.6214   24.5689 C   0  0  0  0  0  0  0  0  0  0  0  0
   11.3794    1.3761   23.7290 C   0  0  0  0  0  0  0  0  0  0  0  0
    9.3070   -3.5340   24.8780 C   0  0  0  0  0  0  0  0  0  0  0  0
    9.3350   -1.0880   23.5010 C   0  0  0  0  0  0  0  0  0  0  0  0
    5.8300    0.9190   18.6970 C   0  0  0  0  0  0  0  0  0  0  0  0
    7.3170   -0.1610   19.8550 C   0  0  0  0  0  0  0  0  0  0  0  0
    4.6890    1.6810   18.4640 C   0  0  0  0  0  0  0  0  0  0  0  0
    3.9160    2.0630   19.5520 C   0  0  0  0  0  0  0  0  0  0  0  0
    4.2750    1.7050   20.8490 C   0  0  0  0  0  0  0  0  0  0  0  0
    5.4210    0.9600   21.0930 C   0  0  0  0  0  0  0  0  0  0  0  0
    9.0420    0.3700   21.5280 C   0  0  0  0  0  0  0  0  0  0  0  0
   10.0771   -5.0255   26.7193 C   0  0  0  0  0  0  0  0  0  0  0  0
    8.0927   -5.6195   25.4071 C   0  0  0  0  0  0  0  0  0  0  0  0
    9.1933   -4.9427   27.9592 C   0  0  0  0  0  0  0  0  0  0  0  0
    7.2756   -5.5290   26.6967 C   0  0  0  0  0  0  0  0  0  0  0  0
   14.6267    0.5248   25.0067 C   0  0  0  0  0  0  0  0  0  0  0  0
    9.8870    1.3260   23.5730 C   0  0  0  0  0  0  0  0  0  0  0  0
    8.1890   -0.7180   20.8700 C   0  0  0  0  0  0  0  0  0  0  0  0
   13.5560    2.0002   23.4280 N   0  0  0  0  0  0  0  0  0  0  0  0
    6.7580    0.3810   17.8350 N   0  0  0  0  0  0  0  0  0  0  0  0
    7.6390   -0.2680   18.5410 N   0  0  0  0  0  0  0  0  0  0  0  0
   13.4442    1.0306   24.3518 N   0  0  0  0  0  0  0  0  0  0  0  0
    6.1790    0.5730   19.9990 N   0  0  0  0  0  0  0  0  0  0  0  0
    9.2563   -4.7368   25.5413 N   0  0  0  0  0  0  0  0  0  0  0  0
    9.4560    0.1560   22.8130 N   0  0  0  0  0  0  0  0  0  0  0  0
    9.2690    1.4140   20.9380 O   0  0  0  0  0  0  0  0  0  0  0  0
    8.0883   -5.8459   27.8325 O   0  0  0  0  0  0  0  0  0  0  0  0
    8.6905   -2.3533   26.5810 H   0  0  0  0  0  0  0  0  0  0  0  0
    9.9266   -4.3896   22.9917 H   0  0  0  0  0  0  0  0  0  0  0  0
    8.9233   -0.1992   25.4232 H   0  0  0  0  0  0  0  0  0  0  0  0
   10.0650   -2.2330   21.8256 H   0  0  0  0  0  0  0  0  0  0  0  0
   12.0895    2.9562   22.2987 H   0  0  0  0  0  0  0  0  0  0  0  0
   11.9201   -0.1519   25.2857 H   0  0  0  0  0  0  0  0  0  0  0  0
    4.3966    1.9781   17.4720 H   0  0  0  0  0  0  0  0  0  0  0  0
    3.0227    2.6498   19.3695 H   0  0  0  0  0  0  0  0  0  0  0  0
    3.6570    2.0037   21.7071 H   0  0  0  0  0  0  0  0  0  0  0  0
    5.7202    0.6868   22.0802 H   0  0  0  0  0  0  0  0  0  0  0  0
   10.8985   -4.3115   26.8085 H   0  0  0  0  0  0  0  0  0  0  0  0
   10.4915   -6.0334   26.6323 H   0  0  0  0  0  0  0  0  0  0  0  0
    8.4327   -6.6456   25.2620 H   0  0  0  0  0  0  0  0  0  0  0  0
    7.4725   -5.3241   24.5619 H   0  0  0  0  0  0  0  0  0  0  0  0
    9.7636   -5.2398   28.8419 H   0  0  0  0  0  0  0  0  0  0  0  0
    8.8236   -3.9268   28.1248 H   0  0  0  0  0  0  0  0  0  0  0  0
    6.8339   -4.5337   26.8232 H   0  0  0  0  0  0  0  0  0  0  0  0
    6.4550   -6.2521   26.6643 H   0  0  0  0  0  0  0  0  0  0  0  0
   15.0068   -0.3132   24.4165 H   0  0  0  0  0  0  0  0  0  0  0  0
   15.3758    1.3189   25.0699 H   0  0  0  0  0  0  0  0  0  0  0  0
   14.3675    0.1958   26.0170 H   0  0  0  0  0  0  0  0  0  0  0  0
    9.3974    1.2912   24.5523 H   0  0  0  0  0  0  0  0  0  0  0  0
    9.5159    2.2168   23.0554 H   0  0  0  0  0  0  0  0  0  0  0  0
    7.5972   -1.2056   21.6500 H   0  0  0  0  0  0  0  0  0  0  0  0
    8.8612   -1.4622   20.4334 H   0  0  0  0  0  0  0  0  0  0  0  0
  1  3  2  0  0  0  0
  1  8  1  0  0  0  0
  2  4  1  0  0  0  0
  2  8  2  0  0  0  0
  3  9  1  0  0  0  0
  4  9  2  0  0  0  0
  5  7  1  0  0  0  0
  5 24  2  0  0  0  0
  6  7  2  0  0  0  0
  6 27  1  0  0  0  0
  7 22  1  0  0  0  0
  8 29  1  0  0  0  0
  9 30  1  0  0  0  0
 10 12  1  0  0  0  0
 10 25  2  0  0  0  0
 10 28  1  0  0  0  0
 11 23  1  0  0  0  0
 11 26  2  0  0  0  0
 11 28  1  0  0  0  0
 12 13  2  0  0  0  0
 13 14  1  0  0  0  0
 14 15  2  0  0  0  0
 15 28  1  0  0  0  0
 16 23  1  0  0  0  0
 16 30  1  0  0  0  0
 16 31  2  0  0  0  0
 17 19  1  0  0  0  0
 17 29  1  0  0  0  0
 18 20  1  0  0  0  0
 18 29  1  0  0  0  0
 19 32  1  0  0  0  0
 20 32  1  0  0  0  0
 21 27  1  0  0  0  0
 22 30  1  0  0  0  0
 24 27  1  0  0  0  0
 25 26  1  0  0  0  0
  1 33  1  0  0  0  0
  2 34  1  0  0  0  0
  3 35  1  0  0  0  0
  4 36  1  0  0  0  0
  5 37  1  0  0  0  0
  6 38  1  0  0  0  0
 12 39  1  0  0  0  0
 13 40  1  0  0  0  0
 14 41  1  0  0  0  0
 15 42  1  0  0  0  0
 17 43  1  0  0  0  0
 17 44  1  0  0  0  0
 18 45  1  0  0  0  0
 18 46  1  0  0  0  0
 19 47  1  0  0  0  0
 19 48  1  0  0  0  0
 20 49  1  0  0  0  0
 20 50  1  0  0  0  0
 21 51  1  0  0  0  0
 21 52  1  0  0  0  0
 21 53  1  0  0  0  0
 22 54  1  0  0  0  0
 22 55  1  0  0  0  0
 23 56  1  0  0  0  0
 23 57  1  0  0  0  0
M  END
> <clash_score>
0.6199393561457518

> <docking_score>
-9.060713768005371

> <overlap_score>
0.9891132116317749

$$$$
BENZO_502_1
  -OEChem-08222022213D

 57 61  0     0  0  0  0  0  0999 V2000
   13.4007    0.5725   24.7805 C   0  0  0  0  0  0  0  0  0  0  0  0
   12.0141    0.5273   24.6359 C   0  0  0  0  0  0  0  0  0  0  0  0
    8.9960   -2.3380   25.5320 C   0  0  0  0  0  0  0  0  0  0  0  0
    9.6730   -3.4710   23.5300 C   0  0  0  0  0  0  0  0  0  0  0  0
    9.0720   -1.1280   24.8640 C   0  0  0  0  0  0  0  0  0  0  0  0
    9.7200   -2.2600   22.8630 C   0  0  0  0  0  0  0  0  0  0  0  0
   14.1526    1.4666   24.0184 C   0  0  0  0  0  0  0  0  0  0  0  0
   12.1314    2.2702   22.9668 C   0  0  0  0  0  0  0  0  0  0  0  0
   11.3794    1.3761   23.7290 C   0  0  0  0  0  0  0  0  0  0  0  0
    9.3070   -3.5340   24.8780 C   0  0  0  0  0  0  0  0  0  0  0  0
    9.3350   -1.0880   23.5010 C   0  0  0  0  0  0  0  0  0  0  0  0
   13.5180    2.3154   23.1115 C   0  0  0  0  0  0  0  0  0  0  0  0
    5.8300    0.9190   18.6970 C   0  0  0  0  0  0  0  0  0  0  0  0
    7.3170   -0.1610   19.8550 C   0  0  0  0  0  0  0  0  0  0  0  0
    4.6890    1.6810   18.4640 C   0  0  0  0  0  0  0  0  0  0  0  0
    3.9160    2.0630   19.5520 C   0  0  0  0  0  0  0  0  0  0  0  0
    4.2750    1.7050   20.8490 C   0  0  0  0  0  0  0  0  0  0  0  0
    5.4210    0.9600   21.0930 C   0  0  0  0  0  0  0  0  0  0  0  0
    9.0420    0.3700   21.5280 C   0  0  0  0  0  0  0  0  0  0  0  0
   10.0771   -5.0255   26.7193 C   0  0  0  0  0  0  0  0  0  0  0  0
    8.0927   -5.6195   25.4071 C   0  0  0  0  0  0  0  0  0  0  0  0
    9.1933   -4.9427   27.9592 C   0  0  0  0  0  0  0  0  0  0  0  0
    7.2756   -5.5290   26.6967 C   0  0  0  0  0  0  0  0  0  0  0  0
    9.8870    1.3260   23.5730 C   0  0  0  0  0  0  0  0  0  0  0  0
    8.1890   -0.7180   20.8700 C   0  0  0  0  0  0  0  0  0  0  0  0
    6.7580    0.3810   17.8350 N   0  0  0  0  0  0  0  0  0  0  0  0
    7.6390   -0.2680   18.5410 N   0  0  0  0  0  0  0  0  0  0  0  0
    6.1790    0.5730   19.9990 N   0  0  0  0  0  0  0  0  0  0  0  0
    9.2563   -4.7368   25.5413 N   0  0  0  0  0  0  0  0  0  0  0  0
    9.4560    0.1560   22.8130 N   0  0  0  0  0  0  0  0  0  0  0  0
    9.2690    1.4140   20.9380 O   0  0  0  0  0  0  0  0  0  0  0  0
    8.0883   -5.8459   27.8325 O   0  0  0  0  0  0  0  0  0  0  0  0
   14.4463    3.4175   22.1707 Cl  0  0  0  0  0  0  0  0  0  0  0  0
   13.8945   -0.0888   25.4867 H   0  0  0  0  0  0  0  0  0  0  0  0
   11.4361   -0.1726   25.2338 H   0  0  0  0  0  0  0  0  0  0  0  0
    8.6905   -2.3533   26.5810 H   0  0  0  0  0  0  0  0  0  0  0  0
    9.9266   -4.3896   22.9917 H   0  0  0  0  0  0  0  0  0  0  0  0
    8.9233   -0.1992   25.4232 H   0  0  0  0  0  0  0  0  0  0  0  0
   10.0650   -2.2330   21.8256 H   0  0  0  0  0  0  0  0  0  0  0  0
   15.2326    1.4907   24.1414 H   0  0  0  0  0  0  0  0  0  0  0  0
   11.6318    2.9303   22.2615 H   0  0  0  0  0  0  0  0  0  0  0  0
    4.3966    1.9781   17.4720 H   0  0  0  0  0  0  0  0  0  0  0  0
    3.0227    2.6498   19.3695 H   0  0  0  0  0  0  0  0  0  0  0  0
    3.6570    2.0037   21.7071 H   0  0  0  0  0  0  0  0  0  0  0  0
    5.7202    0.6868   22.0802 H   0  0  0  0  0  0  0  0  0  0  0  0
   10.8985   -4.3115   26.8085 H   0  0  0  0  0  0  0  0  0  0  0  0
   10.4915   -6.0334   26.6323 H   0  0  0  0  0  0  0  0  0  0  0  0
    8.4327   -6.6456   25.2620 H   0  0  0  0  0  0  0  0  0  0  0  0
    7.4725   -5.3241   24.5619 H   0  0  0  0  0  0  0  0  0  0  0  0
    9.7636   -5.2398   28.8419 H   0  0  0  0  0  0  0  0  0  0  0  0
    8.8236   -3.9268   28.1248 H   0  0  0  0  0  0  0  0  0  0  0  0
    6.8339   -4.5337   26.8232 H   0  0  0  0  0  0  0  0  0  0  0  0
    6.4550   -6.2521   26.6643 H   0  0  0  0  0  0  0  0  0  0  0  0
    9.3974    1.2912   24.5523 H   0  0  0  0  0  0  0  0  0  0  0  0
    9.5159    2.2168   23.0554 H   0  0  0  0  0  0  0  0  0  0  0  0
    7.5972   -1.2056   21.6500 H   0  0  0  0  0  0  0  0  0  0  0  0
    8.8612   -1.4622   20.4334 H   0  0  0  0  0  0  0  0  0  0  0  0
  1  2  2  0  0  0  0
  1  7  1  0  0  0  0
  2  9  1  0  0  0  0
  3  5  2  0  0  0  0
  3 10  1  0  0  0  0
  4  6  1  0  0  0  0
  4 10  2  0  0  0  0
  5 11  1  0  0  0  0
  6 11  2  0  0  0  0
  7 12  2  0  0  0  0
  8  9  2  0  0  0  0
  8 12  1  0  0  0  0
  9 24  1  0  0  0  0
 10 29  1  0  0  0  0
 11 30  1  0  0  0  0
 12 33  1  0  0  0  0
 13 15  1  0  0  0  0
 13 26  2  0  0  0  0
 13 28  1  0  0  0  0
 14 25  1  0  0  0  0
 14 27  2  0  0  0  0
 14 28  1  0  0  0  0
 15 16  2  0  0  0  0
 16 17  1  0  0  0  0
 17 18  2  0  0  0  0
 18 28  1  0  0  0  0
 19 25  1  0  0  0  0
 19 30  1  0  0  0  0
 19 31  2  0  0  0  0
 20 22  1  0  0  0  0
 20 29  1  0  0  0  0
 21 23  1  0  0  0  0
 21 29  1  0  0  0  0
 22 32  1  0  0  0  0
 23 32  1  0  0  0  0
 24 30  1  0  0  0  0
 26 27  1  0  0  0  0
  1 34  1  0  0  0  0
  2 35  1  0  0  0  0
  3 36  1  0  0  0  0
  4 37  1  0  0  0  0
  5 38  1  0  0  0  0
  6 39  1  0  0  0  0
  7 40  1  0  0  0  0
  8 41  1  0  0  0  0
 15 42  1  0  0  0  0
 16 43  1  0  0  0  0
 17 44  1  0  0  0  0
 18 45  1  0  0  0  0
 20 46  1  0  0  0  0
 20 47  1  0  0  0  0
 21 48  1  0  0  0  0
 21 49  1  0  0  0  0
 22 50  1  0  0  0  0
 22 51  1  0  0  0  0
 23 52  1  0  0  0  0
 23 53  1  0  0  0  0
 24 54  1  0  0  0  0
 24 55  1  0  0  0  0
 25 56  1  0  0  0  0
 25 57  1  0  0  0  0
M  END
> <clash_score>
0

> <docking_score>
-8.489686965942383

> <overlap_score>
1.001425862312317

$$$$
