ALP-POS-c59291d4-4
  -OEChem-09012022313D

 46 49  0     0  0  0  0  0  0999 V2000
    9.2320   -4.9190   25.7740 N   0  0  0  0  0  0  0  0  0  0  0  0
    8.1760   -5.3000   26.6870 C   0  0  0  0  0  0  0  0  0  0  0  0
    9.1870    1.1500   21.0630 O   0  0  0  0  0  0  0  0  0  0  0  0
    9.2850   -3.7090   25.1090 C   0  0  0  0  0  0  0  0  0  0  0  0
    9.4200   -0.0840   22.9530 N   0  0  0  0  0  0  0  0  0  0  0  0
    8.3310   -2.7170   25.3430 C   0  0  0  0  0  0  0  0  0  0  0  0
    7.2210   -0.4620   20.0350 N   0  0  0  0  0  0  0  0  0  0  0  0
    8.3510   -1.5420   24.6110 C   0  0  0  0  0  0  0  0  0  0  0  0
    7.6830   -0.5170   18.7600 N   0  0  0  0  0  0  0  0  0  0  0  0
    9.3300   -1.3350   23.6390 C   0  0  0  0  0  0  0  0  0  0  0  0
    6.9440    0.2550   18.0100 N   0  0  0  0  0  0  0  0  0  0  0  0
   10.2760   -2.3270   23.4020 C   0  0  0  0  0  0  0  0  0  0  0  0
   10.2570   -3.5000   24.1350 C   0  0  0  0  0  0  0  0  0  0  0  0
   10.0220    1.0430   23.6570 C   0  0  0  0  0  0  0  0  0  0  0  0
   11.4770    1.2590   23.3320 C   0  0  0  0  0  0  0  0  0  0  0  0
   12.0480    2.4320   22.7530 C   0  0  0  0  0  0  0  0  0  0  0  0
   13.4100    2.3370   22.5750 C   0  0  0  0  0  0  0  0  0  0  0  0
   12.4210    0.3060   23.5780 C   0  0  0  0  0  0  0  0  0  0  0  0
    8.9510    0.1280   21.6880 C   0  0  0  0  0  0  0  0  0  0  0  0
    8.0810   -0.9750   21.0820 C   0  0  0  0  0  0  0  0  0  0  0  0
    5.9810    0.8330   18.8060 C   0  0  0  0  0  0  0  0  0  0  0  0
    4.9400    1.7060   18.5060 C   0  0  0  0  0  0  0  0  0  0  0  0
    4.0980    2.1130   19.5350 C   0  0  0  0  0  0  0  0  0  0  0  0
    4.2970    1.6690   20.8430 C   0  0  0  0  0  0  0  0  0  0  0  0
    5.3360    0.8000   21.1530 C   0  0  0  0  0  0  0  0  0  0  0  0
    6.1600    0.3870   20.1140 C   0  0  0  0  0  0  0  0  0  0  0  0
   13.9820    0.8020   23.1200 S   0  0  0  0  0  0  0  0  0  0  0  0
   10.1294   -5.2881   26.0158 H   0  0  0  0  0  0  0  0  0  0  0  0
    8.3744   -6.3091   27.0773 H   0  0  0  0  0  0  0  0  0  0  0  0
    8.1377   -4.5850   27.5220 H   0  0  0  0  0  0  0  0  0  0  0  0
    7.2128   -5.2953   26.1558 H   0  0  0  0  0  0  0  0  0  0  0  0
    7.5739   -2.8668   26.0985 H   0  0  0  0  0  0  0  0  0  0  0  0
    7.6053   -0.7823   24.7933 H   0  0  0  0  0  0  0  0  0  0  0  0
   11.0291   -2.1806   22.6419 H   0  0  0  0  0  0  0  0  0  0  0  0
   11.0022   -4.2595   23.9500 H   0  0  0  0  0  0  0  0  0  0  0  0
    9.4682    1.9547   23.3887 H   0  0  0  0  0  0  0  0  0  0  0  0
    9.9316    0.8640   24.7386 H   0  0  0  0  0  0  0  0  0  0  0  0
   11.4712    3.3041   22.4824 H   0  0  0  0  0  0  0  0  0  0  0  0
   14.0323    3.1128   22.1541 H   0  0  0  0  0  0  0  0  0  0  0  0
   12.2016   -0.6569   24.0152 H   0  0  0  0  0  0  0  0  0  0  0  0
    7.4562   -1.4126   21.8746 H   0  0  0  0  0  0  0  0  0  0  0  0
    8.7340   -1.7524   20.6586 H   0  0  0  0  0  0  0  0  0  0  0  0
    4.7893    2.0595   17.4967 H   0  0  0  0  0  0  0  0  0  0  0  0
    3.2784    2.7822   19.3189 H   0  0  0  0  0  0  0  0  0  0  0  0
    3.6336    2.0058   21.6259 H   0  0  0  0  0  0  0  0  0  0  0  0
    5.4969    0.4582   22.1648 H   0  0  0  0  0  0  0  0  0  0  0  0
  1  2  1  0  0  0  0
  1  4  1  0  0  0  0
  3 19  2  0  0  0  0
  4  6  2  0  0  0  0
  4 13  1  0  0  0  0
  5 10  1  0  0  0  0
  5 14  1  0  0  0  0
  5 19  1  0  0  0  0
  6  8  1  0  0  0  0
  7  9  1  0  0  0  0
  7 20  1  0  0  0  0
  7 26  1  0  0  0  0
  8 10  2  0  0  0  0
  9 11  2  0  0  0  0
 10 12  1  0  0  0  0
 11 21  1  0  0  0  0
 12 13  2  0  0  0  0
 14 15  1  0  0  0  0
 15 16  1  0  0  0  0
 15 18  2  0  0  0  0
 16 17  2  0  0  0  0
 17 27  1  0  0  0  0
 18 27  1  0  0  0  0
 19 20  1  0  0  0  0
 21 22  2  0  0  0  0
 21 26  1  0  0  0  0
 22 23  1  0  0  0  0
 23 24  2  0  0  0  0
 24 25  1  0  0  0  0
 25 26  2  0  0  0  0
  1 28  1  0  0  0  0
  2 29  1  0  0  0  0
  2 30  1  0  0  0  0
  2 31  1  0  0  0  0
  6 32  1  0  0  0  0
  8 33  1  0  0  0  0
 12 34  1  0  0  0  0
 13 35  1  0  0  0  0
 14 36  1  0  0  0  0
 14 37  1  0  0  0  0
 16 38  1  0  0  0  0
 17 39  1  0  0  0  0
 18 40  1  0  0  0  0
 20 41  1  0  0  0  0
 20 42  1  0  0  0  0
 22 43  1  0  0  0  0
 23 44  1  0  0  0  0
 24 45  1  0  0  0  0
 25 46  1  0  0  0  0
M  END
> <canonical_CID>
ALP-POS-c59291d4-4

> <r_inhibition_at_20_uM>

> <r_inhibition_at_50_uM>
70.4921969469493

> <r_avg_IC50>
18.6768767768832

> <f_inhibition_at_20_uM>
57.123395

> <f_inhibition_at_50_uM>
82.620135

> <f_avg_IC50>
4.32892722638383

> <f_avg_pIC50>
5.36361971505208

> <relative_solubility_at_20_uM>
0.99

> <relative_solubility_at_100_uM>
0.77

> <trypsin_IC50>
99.0

> <NMR_std_ratio>
186.7472164

> <acrylamide>
False

> <chloroacetamide>
False

> <series>
3-aminopyridine-like

> <Protease Assay (Fluorescence) Dose-Response: IC50 (µM)>
> 99.5

> <Protease Assay (Fluorescence) Dose-Response: IC50 (µM)>
1.79

> <Protease Assay (Fluorescence) Dose-Response: IC50 (µM)>
4.33

> <Protease Assay (Fluorescence) Dose-Response: IC50 (µM)>
3.99

> <Protease Assay (Fluorescence) Dose-Response: IC50 (µM)>
1.63

> <Protease Assay (Fluorescence) Dose-Response: IC50 (µM)>
5.32

> <Protease Assay (Fluorescence) Dose-Response: IC50 (µM)>
> 99.5

> <Protease Assay (Fluorescence) Dose-Response: IC50 (µM)>
> 99.5

> <Protease Assay (Fluorescence) Dose-Response: IC50 (µM)>
> 99.5

> <Protease Assay (Fluorescence) Dose-Response: IC50 (µM)>
> 99.5

> <Protease Assay (Fluorescence) Dose-Response: IC50 (µM)>
37.8

> <Protease Assay (Fluorescence) Dose-Response: IC50 (µM)>
78.5

> <clash_score>
0.0

$$$$
EDJ-MED-06d94977-2_1
  -OEChem-09012022313D

 37 39  0     0  0  0  0  0  0999 V2000
    4.0980    2.1130   19.5350 C   0  0  0  0  0  0  0  0  0  0  0  0
    4.2970    1.6690   20.8430 C   0  0  0  0  0  0  0  0  0  0  0  0
   10.7948   -3.9941   23.2455 C   0  0  0  0  0  0  0  0  0  0  0  0
   10.3666   -2.6667   23.2605 C   0  0  0  0  0  0  0  0  0  0  0  0
    4.9400    1.7060   18.5060 C   0  0  0  0  0  0  0  0  0  0  0  0
    5.3360    0.8000   21.1530 C   0  0  0  0  0  0  0  0  0  0  0  0
   10.0688   -4.9690   23.9299 C   0  0  0  0  0  0  0  0  0  0  0  0
    8.4865   -3.2889   24.6445 C   0  0  0  0  0  0  0  0  0  0  0  0
    9.2124   -2.3141   23.9600 C   0  0  0  0  0  0  0  0  0  0  0  0
    5.9810    0.8330   18.8060 C   0  0  0  0  0  0  0  0  0  0  0  0
    6.1600    0.3870   20.1140 C   0  0  0  0  0  0  0  0  0  0  0  0
    8.9147   -4.6163   24.6294 C   0  0  0  0  0  0  0  0  0  0  0  0
    8.9510    0.1280   21.6880 C   0  0  0  0  0  0  0  0  0  0  0  0
   10.6824    0.5191   23.3620 C   0  0  0  0  0  0  0  0  0  0  0  0
    8.7528   -0.8849   23.9767 C   0  0  0  0  0  0  0  0  0  0  0  0
    8.0810   -0.9750   21.0820 C   0  0  0  0  0  0  0  0  0  0  0  0
    6.9440    0.2550   18.0100 N   0  0  0  0  0  0  0  0  0  0  0  0
    7.6830   -0.5170   18.7600 N   0  0  0  0  0  0  0  0  0  0  0  0
    7.2210   -0.4620   20.0350 N   0  0  0  0  0  0  0  0  0  0  0  0
    9.4200   -0.0840   22.9530 N   0  0  0  0  0  0  0  0  0  0  0  0
    9.1870    1.1500   21.0630 O   0  0  0  0  0  0  0  0  0  0  0  0
    8.0200   -5.8192   25.4746 Cl  0  0  0  0  0  0  0  0  0  0  0  0
    3.2714    2.7873   19.3199 H   0  0  0  0  0  0  0  0  0  0  0  0
    3.6281    2.0094   21.6291 H   0  0  0  0  0  0  0  0  0  0  0  0
   11.6936   -4.2683   22.7008 H   0  0  0  0  0  0  0  0  0  0  0  0
   10.9385   -1.9138   22.7245 H   0  0  0  0  0  0  0  0  0  0  0  0
    4.7823    2.0669   17.4883 H   0  0  0  0  0  0  0  0  0  0  0  0
    5.4954    0.4562   22.1797 H   0  0  0  0  0  0  0  0  0  0  0  0
   10.4145   -5.9996   23.9097 H   0  0  0  0  0  0  0  0  0  0  0  0
    7.5870   -3.0089   25.1879 H   0  0  0  0  0  0  0  0  0  0  0  0
   10.4917    1.5123   23.7946 H   0  0  0  0  0  0  0  0  0  0  0  0
   11.1680   -0.1209   24.1134 H   0  0  0  0  0  0  0  0  0  0  0  0
   11.3406    0.6209   22.4866 H   0  0  0  0  0  0  0  0  0  0  0  0
    7.6731   -0.8245   23.8017 H   0  0  0  0  0  0  0  0  0  0  0  0
    8.9514   -0.4196   24.9479 H   0  0  0  0  0  0  0  0  0  0  0  0
    8.7172   -1.7473   20.6477 H   0  0  0  0  0  0  0  0  0  0  0  0
    7.4468   -1.4098   21.8557 H   0  0  0  0  0  0  0  0  0  0  0  0
  1  2  1  0  0  0  0
  1  5  2  0  0  0  0
  2  6  2  0  0  0  0
  3  4  2  0  0  0  0
  3  7  1  0  0  0  0
  4  9  1  0  0  0  0
  5 10  1  0  0  0  0
  6 11  1  0  0  0  0
  7 12  2  0  0  0  0
  8  9  2  0  0  0  0
  8 12  1  0  0  0  0
  9 15  1  0  0  0  0
 10 11  2  0  0  0  0
 10 17  1  0  0  0  0
 11 19  1  0  0  0  0
 12 22  1  0  0  0  0
 13 16  1  0  0  0  0
 13 20  1  0  0  0  0
 13 21  2  0  0  0  0
 14 20  1  0  0  0  0
 15 20  1  0  0  0  0
 16 19  1  0  0  0  0
 17 18  2  0  0  0  0
 18 19  1  0  0  0  0
  1 23  1  0  0  0  0
  2 24  1  0  0  0  0
  3 25  1  0  0  0  0
  4 26  1  0  0  0  0
  5 27  1  0  0  0  0
  6 28  1  0  0  0  0
  7 29  1  0  0  0  0
  8 30  1  0  0  0  0
 14 31  1  0  0  0  0
 14 32  1  0  0  0  0
 14 33  1  0  0  0  0
 15 34  1  0  0  0  0
 15 35  1  0  0  0  0
 16 36  1  0  0  0  0
 16 37  1  0  0  0  0
M  END
> <Protease Assay (Fluorescence) Dose-Response: IC50 (µM)>
> 99.5

> <clash_score>
0

> <docking_score>
-7.391219139099121

> <overlap_score>
0.7797771096229553

$$$$
EDJ-MED-06d94977-1_1
  -OEChem-09012022313D

 44 46  0     0  0  0  0  0  0999 V2000
    4.0980    2.1130   19.5350 C   0  0  0  0  0  0  0  0  0  0  0  0
    4.2970    1.6690   20.8430 C   0  0  0  0  0  0  0  0  0  0  0  0
    4.9400    1.7060   18.5060 C   0  0  0  0  0  0  0  0  0  0  0  0
    5.3360    0.8000   21.1530 C   0  0  0  0  0  0  0  0  0  0  0  0
    9.4303   -3.5559   24.3479 C   0  0  0  0  0  0  0  0  0  0  0  0
    7.5362   -2.3581   25.2505 C   0  0  0  0  0  0  0  0  0  0  0  0
    9.7994   -2.4244   23.6206 C   0  0  0  0  0  0  0  0  0  0  0  0
    7.9053   -1.2265   24.5232 C   0  0  0  0  0  0  0  0  0  0  0  0
    5.9810    0.8330   18.8060 C   0  0  0  0  0  0  0  0  0  0  0  0
    6.1600    0.3870   20.1140 C   0  0  0  0  0  0  0  0  0  0  0  0
    8.2986   -3.5228   25.1628 C   0  0  0  0  0  0  0  0  0  0  0  0
    9.0369   -1.2596   23.7083 C   0  0  0  0  0  0  0  0  0  0  0  0
    6.8339   -4.8122   26.7547 C   0  0  0  0  0  0  0  0  0  0  0  0
    8.9510    0.1280   21.6880 C   0  0  0  0  0  0  0  0  0  0  0  0
    5.9696   -7.1792   26.5185 C   0  0  0  0  0  0  0  0  0  0  0  0
   10.2471    0.9082   23.6571 C   0  0  0  0  0  0  0  0  0  0  0  0
    6.7978   -6.2133   27.3467 C   0  0  0  0  0  0  0  0  0  0  0  0
    8.0810   -0.9750   21.0820 C   0  0  0  0  0  0  0  0  0  0  0  0
    6.9440    0.2550   18.0100 N   0  0  0  0  0  0  0  0  0  0  0  0
    7.6830   -0.5170   18.7600 N   0  0  0  0  0  0  0  0  0  0  0  0
    7.2210   -0.4620   20.0350 N   0  0  0  0  0  0  0  0  0  0  0  0
    7.9291   -4.6546   25.8900 N   0  0  0  0  0  0  0  0  0  0  0  0
    9.4200   -0.0840   22.9530 N   0  0  0  0  0  0  0  0  0  0  0  0
    5.9888   -3.9672   27.0312 O   0  0  0  0  0  0  0  0  0  0  0  0
    9.1870    1.1500   21.0630 O   0  0  0  0  0  0  0  0  0  0  0  0
    3.2714    2.7873   19.3199 H   0  0  0  0  0  0  0  0  0  0  0  0
    3.6281    2.0093   21.6291 H   0  0  0  0  0  0  0  0  0  0  0  0
    4.7823    2.0669   17.4883 H   0  0  0  0  0  0  0  0  0  0  0  0
    5.4954    0.4562   22.1797 H   0  0  0  0  0  0  0  0  0  0  0  0
   10.0321   -4.4579   24.2717 H   0  0  0  0  0  0  0  0  0  0  0  0
    6.6526   -2.3211   25.8826 H   0  0  0  0  0  0  0  0  0  0  0  0
   10.6831   -2.4623   22.9885 H   0  0  0  0  0  0  0  0  0  0  0  0
    7.3034   -0.3247   24.5985 H   0  0  0  0  0  0  0  0  0  0  0  0
    4.9353   -6.8317   26.4266 H   0  0  0  0  0  0  0  0  0  0  0  0
    5.9576   -8.1686   26.9859 H   0  0  0  0  0  0  0  0  0  0  0  0
    6.3798   -7.2830   25.5086 H   0  0  0  0  0  0  0  0  0  0  0  0
   11.3109    0.6696   23.5108 H   0  0  0  0  0  0  0  0  0  0  0  0
   10.0379    1.9108   23.2559 H   0  0  0  0  0  0  0  0  0  0  0  0
   10.0109    0.8864   24.7312 H   0  0  0  0  0  0  0  0  0  0  0  0
    7.8261   -6.5852   27.4220 H   0  0  0  0  0  0  0  0  0  0  0  0
    6.3837   -6.1521   28.3597 H   0  0  0  0  0  0  0  0  0  0  0  0
    8.7066   -1.7479   20.6383 H   0  0  0  0  0  0  0  0  0  0  0  0
    7.4345   -1.4041   21.8461 H   0  0  0  0  0  0  0  0  0  0  0  0
    8.5300   -5.4802   25.7833 H   0  0  0  0  0  0  0  0  0  0  0  0
  1  2  1  0  0  0  0
  1  3  2  0  0  0  0
  2  4  2  0  0  0  0
  3  9  1  0  0  0  0
  4 10  1  0  0  0  0
  5  7  2  0  0  0  0
  5 11  1  0  0  0  0
  6  8  1  0  0  0  0
  6 11  2  0  0  0  0
  7 12  1  0  0  0  0
  8 12  2  0  0  0  0
  9 10  2  0  0  0  0
  9 19  1  0  0  0  0
 10 21  1  0  0  0  0
 11 22  1  0  0  0  0
 12 23  1  0  0  0  0
 13 17  1  0  0  0  0
 13 22  1  0  0  0  0
 13 24  2  0  0  0  0
 14 18  1  0  0  0  0
 14 23  1  0  0  0  0
 14 25  2  0  0  0  0
 15 17  1  0  0  0  0
 16 23  1  0  0  0  0
 18 21  1  0  0  0  0
 19 20  2  0  0  0  0
 20 21  1  0  0  0  0
  1 26  1  0  0  0  0
  2 27  1  0  0  0  0
  3 28  1  0  0  0  0
  4 29  1  0  0  0  0
  5 30  1  0  0  0  0
  6 31  1  0  0  0  0
  7 32  1  0  0  0  0
  8 33  1  0  0  0  0
 15 34  1  0  0  0  0
 15 35  1  0  0  0  0
 15 36  1  0  0  0  0
 16 37  1  0  0  0  0
 16 38  1  0  0  0  0
 16 39  1  0  0  0  0
 17 40  1  0  0  0  0
 17 41  1  0  0  0  0
 18 42  1  0  0  0  0
 18 43  1  0  0  0  0
 22 44  1  0  0  0  0
M  END
> <Protease Assay (Fluorescence) Dose-Response: IC50 (µM)>
> 99.5

> <clash_score>
0

> <docking_score>
-7.762580394744873

> <overlap_score>
0.7997761368751526

$$$$
ALP-POS-d2866bdf-1_1
  -OEChem-09012022313D

 49 52  0     0  0  0  0  0  0999 V2000
    4.0980    2.1130   19.5350 C   0  0  0  0  0  0  0  0  0  0  0  0
    4.2970    1.6690   20.8430 C   0  0  0  0  0  0  0  0  0  0  0  0
    4.9400    1.7060   18.5060 C   0  0  0  0  0  0  0  0  0  0  0  0
    5.3360    0.8000   21.1530 C   0  0  0  0  0  0  0  0  0  0  0  0
    9.7998   -2.4241   23.6202 C   0  0  0  0  0  0  0  0  0  0  0  0
    7.9063   -1.2267   24.5246 C   0  0  0  0  0  0  0  0  0  0  0  0
    9.4322   -3.5555   24.3484 C   0  0  0  0  0  0  0  0  0  0  0  0
    7.5386   -2.3582   25.2528 C   0  0  0  0  0  0  0  0  0  0  0  0
   12.4722    0.3427   22.4740 C   0  0  0  0  0  0  0  0  0  0  0  0
   13.7761   -0.0005   22.7561 C   0  0  0  0  0  0  0  0  0  0  0  0
   12.4435    0.3229   24.7980 C   0  0  0  0  0  0  0  0  0  0  0  0
   11.7002    0.5302   23.6568 C   0  0  0  0  0  0  0  0  0  0  0  0
    5.9810    0.8330   18.8060 C   0  0  0  0  0  0  0  0  0  0  0  0
    6.1600    0.3870   20.1140 C   0  0  0  0  0  0  0  0  0  0  0  0
    9.0369   -1.2596   23.7083 C   0  0  0  0  0  0  0  0  0  0  0  0
    8.3016   -3.5226   25.1647 C   0  0  0  0  0  0  0  0  0  0  0  0
    8.9510    0.1280   21.6880 C   0  0  0  0  0  0  0  0  0  0  0  0
    8.9360   -5.6053   26.3562 C   0  0  0  0  0  0  0  0  0  0  0  0
    6.5379   -4.9129   26.2214 C   0  0  0  0  0  0  0  0  0  0  0  0
   10.2471    0.9082   23.6571 C   0  0  0  0  0  0  0  0  0  0  0  0
    8.0810   -0.9750   21.0820 C   0  0  0  0  0  0  0  0  0  0  0  0
    6.9440    0.2550   18.0100 N   0  0  0  0  0  0  0  0  0  0  0  0
    7.6830   -0.5170   18.7600 N   0  0  0  0  0  0  0  0  0  0  0  0
    7.2210   -0.4620   20.0350 N   0  0  0  0  0  0  0  0  0  0  0  0
    9.4200   -0.0840   22.9530 N   0  0  0  0  0  0  0  0  0  0  0  0
    7.9298   -4.6672   25.9002 N   0  0  0  0  0  0  0  0  0  0  0  0
    9.1870    1.1500   21.0630 O   0  0  0  0  0  0  0  0  0  0  0  0
   14.0652   -0.0956   24.4413 S   0  0  0  0  0  0  0  0  0  0  0  0
    3.2714    2.7873   19.3199 H   0  0  0  0  0  0  0  0  0  0  0  0
    3.6281    2.0093   21.6291 H   0  0  0  0  0  0  0  0  0  0  0  0
    4.7823    2.0669   17.4883 H   0  0  0  0  0  0  0  0  0  0  0  0
    5.4954    0.4562   22.1797 H   0  0  0  0  0  0  0  0  0  0  0  0
   10.6831   -2.4610   22.9874 H   0  0  0  0  0  0  0  0  0  0  0  0
    7.3045   -0.3247   24.6006 H   0  0  0  0  0  0  0  0  0  0  0  0
   10.0339   -4.4577   24.2727 H   0  0  0  0  0  0  0  0  0  0  0  0
    6.6564   -2.3218   25.8863 H   0  0  0  0  0  0  0  0  0  0  0  0
   12.0941    0.4525   21.4654 H   0  0  0  0  0  0  0  0  0  0  0  0
   14.5725   -0.2006   22.0534 H   0  0  0  0  0  0  0  0  0  0  0  0
   12.1156    0.3949   25.8258 H   0  0  0  0  0  0  0  0  0  0  0  0
    8.4512   -6.4247   26.9072 H   0  0  0  0  0  0  0  0  0  0  0  0
    9.4749   -6.0151   25.4892 H   0  0  0  0  0  0  0  0  0  0  0  0
    9.6460   -5.0882   27.0184 H   0  0  0  0  0  0  0  0  0  0  0  0
    6.4529   -5.8477   26.7949 H   0  0  0  0  0  0  0  0  0  0  0  0
    6.1473   -4.0779   26.8216 H   0  0  0  0  0  0  0  0  0  0  0  0
    5.9568   -4.9992   25.2914 H   0  0  0  0  0  0  0  0  0  0  0  0
    9.8708    0.9945   24.6823 H   0  0  0  0  0  0  0  0  0  0  0  0
   10.0932    1.8775   23.1714 H   0  0  0  0  0  0  0  0  0  0  0  0
    8.7066   -1.7479   20.6383 H   0  0  0  0  0  0  0  0  0  0  0  0
    7.4345   -1.4041   21.8461 H   0  0  0  0  0  0  0  0  0  0  0  0
  1  2  1  0  0  0  0
  1  3  2  0  0  0  0
  2  4  2  0  0  0  0
  3 13  1  0  0  0  0
  4 14  1  0  0  0  0
  5  7  2  0  0  0  0
  5 15  1  0  0  0  0
  6  8  1  0  0  0  0
  6 15  2  0  0  0  0
  7 16  1  0  0  0  0
  8 16  2  0  0  0  0
  9 10  2  0  0  0  0
  9 12  1  0  0  0  0
 10 28  1  0  0  0  0
 11 12  2  0  0  0  0
 11 28  1  0  0  0  0
 12 20  1  0  0  0  0
 13 14  2  0  0  0  0
 13 22  1  0  0  0  0
 14 24  1  0  0  0  0
 15 25  1  0  0  0  0
 16 26  1  0  0  0  0
 17 21  1  0  0  0  0
 17 25  1  0  0  0  0
 17 27  2  0  0  0  0
 18 26  1  0  0  0  0
 19 26  1  0  0  0  0
 20 25  1  0  0  0  0
 21 24  1  0  0  0  0
 22 23  2  0  0  0  0
 23 24  1  0  0  0  0
  1 29  1  0  0  0  0
  2 30  1  0  0  0  0
  3 31  1  0  0  0  0
  4 32  1  0  0  0  0
  5 33  1  0  0  0  0
  6 34  1  0  0  0  0
  7 35  1  0  0  0  0
  8 36  1  0  0  0  0
  9 37  1  0  0  0  0
 10 38  1  0  0  0  0
 11 39  1  0  0  0  0
 18 40  1  0  0  0  0
 18 41  1  0  0  0  0
 18 42  1  0  0  0  0
 19 43  1  0  0  0  0
 19 44  1  0  0  0  0
 19 45  1  0  0  0  0
 20 46  1  0  0  0  0
 20 47  1  0  0  0  0
 21 48  1  0  0  0  0
 21 49  1  0  0  0  0
M  END
> <Protease Assay (Fluorescence) Dose-Response: IC50 (µM)>
1.79

> <clash_score>
0

> <docking_score>
-8.96644401550293

> <overlap_score>
0.9183476567268372

$$$$
ALP-POS-c59291d4-1_1
  -OEChem-09012022313D

 51 55  0     0  0  0  0  0  0999 V2000
    7.1774   -6.9637   27.3656 C   0  0  0  0  0  0  0  0  0  0  0  0
    6.2031   -6.0653   26.9306 C   0  0  0  0  0  0  0  0  0  0  0  0
    8.5214   -6.7297   27.0750 C   0  0  0  0  0  0  0  0  0  0  0  0
    4.0980    2.1130   19.5350 C   0  0  0  0  0  0  0  0  0  0  0  0
    4.2970    1.6690   20.8430 C   0  0  0  0  0  0  0  0  0  0  0  0
    6.5729   -4.9329   26.2049 C   0  0  0  0  0  0  0  0  0  0  0  0
    8.8912   -5.5974   26.3493 C   0  0  0  0  0  0  0  0  0  0  0  0
    9.4317   -3.5560   24.3466 C   0  0  0  0  0  0  0  0  0  0  0  0
    7.5370   -2.3599   25.2500 C   0  0  0  0  0  0  0  0  0  0  0  0
    4.9400    1.7060   18.5060 C   0  0  0  0  0  0  0  0  0  0  0  0
    5.3360    0.8000   21.1530 C   0  0  0  0  0  0  0  0  0  0  0  0
    9.8001   -2.4239   23.6199 C   0  0  0  0  0  0  0  0  0  0  0  0
    7.9053   -1.2276   24.5234 C   0  0  0  0  0  0  0  0  0  0  0  0
   12.4722    0.3427   22.4740 C   0  0  0  0  0  0  0  0  0  0  0  0
   13.7761   -0.0005   22.7561 C   0  0  0  0  0  0  0  0  0  0  0  0
   12.4435    0.3229   24.7980 C   0  0  0  0  0  0  0  0  0  0  0  0
    7.9170   -4.6989   25.9142 C   0  0  0  0  0  0  0  0  0  0  0  0
    8.3002   -3.5241   25.1616 C   0  0  0  0  0  0  0  0  0  0  0  0
   11.7002    0.5302   23.6568 C   0  0  0  0  0  0  0  0  0  0  0  0
    5.9810    0.8330   18.8060 C   0  0  0  0  0  0  0  0  0  0  0  0
    6.1600    0.3870   20.1140 C   0  0  0  0  0  0  0  0  0  0  0  0
    9.0369   -1.2596   23.7083 C   0  0  0  0  0  0  0  0  0  0  0  0
    8.9510    0.1280   21.6880 C   0  0  0  0  0  0  0  0  0  0  0  0
   10.2471    0.9082   23.6571 C   0  0  0  0  0  0  0  0  0  0  0  0
    8.0810   -0.9750   21.0820 C   0  0  0  0  0  0  0  0  0  0  0  0
    6.9440    0.2550   18.0100 N   0  0  0  0  0  0  0  0  0  0  0  0
    7.6830   -0.5170   18.7600 N   0  0  0  0  0  0  0  0  0  0  0  0
    7.2210   -0.4620   20.0350 N   0  0  0  0  0  0  0  0  0  0  0  0
    9.4200   -0.0840   22.9530 N   0  0  0  0  0  0  0  0  0  0  0  0
    9.1870    1.1500   21.0630 O   0  0  0  0  0  0  0  0  0  0  0  0
   14.0652   -0.0956   24.4413 S   0  0  0  0  0  0  0  0  0  0  0  0
    6.8894   -7.8444   27.9321 H   0  0  0  0  0  0  0  0  0  0  0  0
    5.1567   -6.2464   27.1582 H   0  0  0  0  0  0  0  0  0  0  0  0
    9.2807   -7.4281   27.4146 H   0  0  0  0  0  0  0  0  0  0  0  0
    3.2714    2.7873   19.3199 H   0  0  0  0  0  0  0  0  0  0  0  0
    3.6281    2.0093   21.6291 H   0  0  0  0  0  0  0  0  0  0  0  0
    5.8016   -4.2418   25.8730 H   0  0  0  0  0  0  0  0  0  0  0  0
    9.9429   -5.4279   26.1308 H   0  0  0  0  0  0  0  0  0  0  0  0
   10.0362   -4.4566   24.2669 H   0  0  0  0  0  0  0  0  0  0  0  0
    6.6516   -2.3192   25.8799 H   0  0  0  0  0  0  0  0  0  0  0  0
    4.7823    2.0669   17.4883 H   0  0  0  0  0  0  0  0  0  0  0  0
    5.4954    0.4562   22.1797 H   0  0  0  0  0  0  0  0  0  0  0  0
   10.6826   -2.4609   22.9862 H   0  0  0  0  0  0  0  0  0  0  0  0
    7.3023   -0.3261   24.5981 H   0  0  0  0  0  0  0  0  0  0  0  0
   12.0941    0.4525   21.4654 H   0  0  0  0  0  0  0  0  0  0  0  0
   14.5725   -0.2006   22.0534 H   0  0  0  0  0  0  0  0  0  0  0  0
   12.1156    0.3949   25.8258 H   0  0  0  0  0  0  0  0  0  0  0  0
    9.8708    0.9945   24.6823 H   0  0  0  0  0  0  0  0  0  0  0  0
   10.0932    1.8775   23.1714 H   0  0  0  0  0  0  0  0  0  0  0  0
    8.7066   -1.7479   20.6383 H   0  0  0  0  0  0  0  0  0  0  0  0
    7.4345   -1.4041   21.8461 H   0  0  0  0  0  0  0  0  0  0  0  0
  1  2  1  0  0  0  0
  1  3  2  0  0  0  0
  2  6  2  0  0  0  0
  3  7  1  0  0  0  0
  4  5  1  0  0  0  0
  4 10  2  0  0  0  0
  5 11  2  0  0  0  0
  6 17  1  0  0  0  0
  7 17  2  0  0  0  0
  8 12  2  0  0  0  0
  8 18  1  0  0  0  0
  9 13  1  0  0  0  0
  9 18  2  0  0  0  0
 10 20  1  0  0  0  0
 11 21  1  0  0  0  0
 12 22  1  0  0  0  0
 13 22  2  0  0  0  0
 14 15  2  0  0  0  0
 14 19  1  0  0  0  0
 15 31  1  0  0  0  0
 16 19  2  0  0  0  0
 16 31  1  0  0  0  0
 17 18  1  0  0  0  0
 19 24  1  0  0  0  0
 20 21  2  0  0  0  0
 20 26  1  0  0  0  0
 21 28  1  0  0  0  0
 22 29  1  0  0  0  0
 23 25  1  0  0  0  0
 23 29  1  0  0  0  0
 23 30  2  0  0  0  0
 24 29  1  0  0  0  0
 25 28  1  0  0  0  0
 26 27  2  0  0  0  0
 27 28  1  0  0  0  0
  1 32  1  0  0  0  0
  2 33  1  0  0  0  0
  3 34  1  0  0  0  0
  4 35  1  0  0  0  0
  5 36  1  0  0  0  0
  6 37  1  0  0  0  0
  7 38  1  0  0  0  0
  8 39  1  0  0  0  0
  9 40  1  0  0  0  0
 10 41  1  0  0  0  0
 11 42  1  0  0  0  0
 12 43  1  0  0  0  0
 13 44  1  0  0  0  0
 14 45  1  0  0  0  0
 15 46  1  0  0  0  0
 16 47  1  0  0  0  0
 24 48  1  0  0  0  0
 24 49  1  0  0  0  0
 25 50  1  0  0  0  0
 25 51  1  0  0  0  0
M  END
> <Protease Assay (Fluorescence) Dose-Response: IC50 (µM)>
5.32

> <clash_score>
0

> <docking_score>
-8.16462516784668

> <overlap_score>
0.9265133142471313

$$$$
ALP-POS-c0c213c9-18_1
  -OEChem-09012022313D

 49 53  0     0  0  0  0  0  0999 V2000
    4.0980    2.1130   19.5350 C   0  0  0  0  0  0  0  0  0  0  0  0
    4.2970    1.6690   20.8430 C   0  0  0  0  0  0  0  0  0  0  0  0
   13.9978    1.1441   23.6691 C   0  0  0  0  0  0  0  0  0  0  0  0
   14.3273   -0.2066   23.6556 C   0  0  0  0  0  0  0  0  0  0  0  0
    4.9400    1.7060   18.5060 C   0  0  0  0  0  0  0  0  0  0  0  0
    5.3360    0.8000   21.1530 C   0  0  0  0  0  0  0  0  0  0  0  0
    8.9646   -3.6631   23.9429 C   0  0  0  0  0  0  0  0  0  0  0  0
    8.0013   -2.2530   25.6520 C   0  0  0  0  0  0  0  0  0  0  0  0
    9.3339   -2.5308   23.2168 C   0  0  0  0  0  0  0  0  0  0  0  0
    8.3706   -1.1207   24.9259 C   0  0  0  0  0  0  0  0  0  0  0  0
   12.6614    1.5280   23.6699 C   0  0  0  0  0  0  0  0  0  0  0  0
   13.2915   -1.1268   23.6433 C   0  0  0  0  0  0  0  0  0  0  0  0
    8.1486   -5.9482   25.5410 C   0  0  0  0  0  0  0  0  0  0  0  0
    7.2834   -4.6824   27.0766 C   0  0  0  0  0  0  0  0  0  0  0  0
    5.9810    0.8330   18.8060 C   0  0  0  0  0  0  0  0  0  0  0  0
    6.1600    0.3870   20.1140 C   0  0  0  0  0  0  0  0  0  0  0  0
    8.2983   -3.5242   25.1605 C   0  0  0  0  0  0  0  0  0  0  0  0
    9.0369   -1.2596   23.7083 C   0  0  0  0  0  0  0  0  0  0  0  0
   11.7002    0.5302   23.6568 C   0  0  0  0  0  0  0  0  0  0  0  0
    8.9510    0.1280   21.6880 C   0  0  0  0  0  0  0  0  0  0  0  0
   10.2471    0.9082   23.6571 C   0  0  0  0  0  0  0  0  0  0  0  0
    8.0810   -0.9750   21.0820 C   0  0  0  0  0  0  0  0  0  0  0  0
   11.9817   -0.7920   23.6436 N   0  0  0  0  0  0  0  0  0  0  0  0
    7.6608   -6.7356   26.4728 N   0  0  0  0  0  0  0  0  0  0  0  0
    7.1103   -5.9303   27.4499 N   0  0  0  0  0  0  0  0  0  0  0  0
    6.9440    0.2550   18.0100 N   0  0  0  0  0  0  0  0  0  0  0  0
    7.6830   -0.5170   18.7600 N   0  0  0  0  0  0  0  0  0  0  0  0
    7.9330   -4.6469   25.8802 N   0  0  0  0  0  0  0  0  0  0  0  0
    7.2210   -0.4620   20.0350 N   0  0  0  0  0  0  0  0  0  0  0  0
    9.4200   -0.0840   22.9530 N   0  0  0  0  0  0  0  0  0  0  0  0
    9.1870    1.1500   21.0630 O   0  0  0  0  0  0  0  0  0  0  0  0
    3.2714    2.7873   19.3199 H   0  0  0  0  0  0  0  0  0  0  0  0
    3.6281    2.0093   21.6291 H   0  0  0  0  0  0  0  0  0  0  0  0
   14.7810    1.8961   23.6790 H   0  0  0  0  0  0  0  0  0  0  0  0
   15.3623   -0.5289   23.6547 H   0  0  0  0  0  0  0  0  0  0  0  0
    4.7823    2.0669   17.4883 H   0  0  0  0  0  0  0  0  0  0  0  0
    5.4954    0.4562   22.1797 H   0  0  0  0  0  0  0  0  0  0  0  0
    9.2017   -4.6480   23.5478 H   0  0  0  0  0  0  0  0  0  0  0  0
    7.4820   -2.1301   26.5993 H   0  0  0  0  0  0  0  0  0  0  0  0
    9.8528   -2.6506   22.2691 H   0  0  0  0  0  0  0  0  0  0  0  0
    8.1338   -0.1350   25.3184 H   0  0  0  0  0  0  0  0  0  0  0  0
   12.3910    2.5784   23.6804 H   0  0  0  0  0  0  0  0  0  0  0  0
   13.4956   -2.1924   23.6326 H   0  0  0  0  0  0  0  0  0  0  0  0
    8.6500   -6.2615   24.6358 H   0  0  0  0  0  0  0  0  0  0  0  0
    6.9660   -3.8022   27.6186 H   0  0  0  0  0  0  0  0  0  0  0  0
    9.8708    0.9945   24.6823 H   0  0  0  0  0  0  0  0  0  0  0  0
   10.0932    1.8775   23.1714 H   0  0  0  0  0  0  0  0  0  0  0  0
    8.7066   -1.7479   20.6383 H   0  0  0  0  0  0  0  0  0  0  0  0
    7.4345   -1.4041   21.8461 H   0  0  0  0  0  0  0  0  0  0  0  0
  1  2  1  0  0  0  0
  1  5  2  0  0  0  0
  2  6  2  0  0  0  0
  3  4  1  0  0  0  0
  3 11  2  0  0  0  0
  4 12  2  0  0  0  0
  5 15  1  0  0  0  0
  6 16  1  0  0  0  0
  7  9  2  0  0  0  0
  7 17  1  0  0  0  0
  8 10  1  0  0  0  0
  8 17  2  0  0  0  0
  9 18  1  0  0  0  0
 10 18  2  0  0  0  0
 11 19  1  0  0  0  0
 12 23  1  0  0  0  0
 13 24  2  0  0  0  0
 13 28  1  0  0  0  0
 14 25  2  0  0  0  0
 14 28  1  0  0  0  0
 15 16  2  0  0  0  0
 15 26  1  0  0  0  0
 16 29  1  0  0  0  0
 17 28  1  0  0  0  0
 18 30  1  0  0  0  0
 19 21  1  0  0  0  0
 19 23  2  0  0  0  0
 20 22  1  0  0  0  0
 20 30  1  0  0  0  0
 20 31  2  0  0  0  0
 21 30  1  0  0  0  0
 22 29  1  0  0  0  0
 24 25  1  0  0  0  0
 26 27  2  0  0  0  0
 27 29  1  0  0  0  0
  1 32  1  0  0  0  0
  2 33  1  0  0  0  0
  3 34  1  0  0  0  0
  4 35  1  0  0  0  0
  5 36  1  0  0  0  0
  6 37  1  0  0  0  0
  7 38  1  0  0  0  0
  8 39  1  0  0  0  0
  9 40  1  0  0  0  0
 10 41  1  0  0  0  0
 11 42  1  0  0  0  0
 12 43  1  0  0  0  0
 13 44  1  0  0  0  0
 14 45  1  0  0  0  0
 21 46  1  0  0  0  0
 21 47  1  0  0  0  0
 22 48  1  0  0  0  0
 22 49  1  0  0  0  0
M  END
> <Protease Assay (Fluorescence) Dose-Response: IC50 (µM)>
> 99.5

> <clash_score>
0.7355532373142489

> <docking_score>
-9.488619804382324

> <overlap_score>
0.9377604722976685

$$$$
ALP-POS-c59291d4-4_1
  -OEChem-09012022313D

 46 49  0     0  0  0  0  0  0999 V2000
    4.0980    2.1130   19.5350 C   0  0  0  0  0  0  0  0  0  0  0  0
    4.2970    1.6690   20.8430 C   0  0  0  0  0  0  0  0  0  0  0  0
    4.9400    1.7060   18.5060 C   0  0  0  0  0  0  0  0  0  0  0  0
    5.3360    0.8000   21.1530 C   0  0  0  0  0  0  0  0  0  0  0  0
   10.6670   -3.5919   23.3254 C   0  0  0  0  0  0  0  0  0  0  0  0
    9.0951   -3.1303   25.1012 C   0  0  0  0  0  0  0  0  0  0  0  0
   10.4853   -2.3011   22.8290 C   0  0  0  0  0  0  0  0  0  0  0  0
    8.9135   -1.8394   24.6048 C   0  0  0  0  0  0  0  0  0  0  0  0
   11.9276    1.7701   22.9151 C   0  0  0  0  0  0  0  0  0  0  0  0
   13.2289    2.0125   23.2963 C   0  0  0  0  0  0  0  0  0  0  0  0
   11.8303    1.2960   25.1885 C   0  0  0  0  0  0  0  0  0  0  0  0
   11.1172    1.3552   24.0112 C   0  0  0  0  0  0  0  0  0  0  0  0
    5.9810    0.8330   18.8060 C   0  0  0  0  0  0  0  0  0  0  0  0
    6.1600    0.3870   20.1140 C   0  0  0  0  0  0  0  0  0  0  0  0
    9.9718   -4.0065   24.4615 C   0  0  0  0  0  0  0  0  0  0  0  0
    9.6086   -1.4249   23.4687 C   0  0  0  0  0  0  0  0  0  0  0  0
    8.9510    0.1280   21.6880 C   0  0  0  0  0  0  0  0  0  0  0  0
   10.0295   -5.6363   26.3499 C   0  0  0  0  0  0  0  0  0  0  0  0
    9.6581    1.0212   23.8944 C   0  0  0  0  0  0  0  0  0  0  0  0
    8.0810   -0.9750   21.0820 C   0  0  0  0  0  0  0  0  0  0  0  0
    6.9440    0.2550   18.0100 N   0  0  0  0  0  0  0  0  0  0  0  0
    7.6830   -0.5170   18.7600 N   0  0  0  0  0  0  0  0  0  0  0  0
    7.2210   -0.4620   20.0350 N   0  0  0  0  0  0  0  0  0  0  0  0
   10.1539   -5.3124   24.9625 N   0  0  0  0  0  0  0  0  0  0  0  0
    9.4200   -0.0840   22.9530 N   0  0  0  0  0  0  0  0  0  0  0  0
    9.1870    1.1500   21.0630 O   0  0  0  0  0  0  0  0  0  0  0  0
   13.4696    1.7399   24.9697 S   0  0  0  0  0  0  0  0  0  0  0  0
    3.2714    2.7873   19.3199 H   0  0  0  0  0  0  0  0  0  0  0  0
    3.6281    2.0093   21.6291 H   0  0  0  0  0  0  0  0  0  0  0  0
    4.7823    2.0669   17.4883 H   0  0  0  0  0  0  0  0  0  0  0  0
    5.4954    0.4562   22.1797 H   0  0  0  0  0  0  0  0  0  0  0  0
   11.3519   -4.2667   22.8183 H   0  0  0  0  0  0  0  0  0  0  0  0
    8.5482   -3.4428   25.9870 H   0  0  0  0  0  0  0  0  0  0  0  0
   11.0312   -1.9888   21.9422 H   0  0  0  0  0  0  0  0  0  0  0  0
    8.2273   -1.1644   25.1098 H   0  0  0  0  0  0  0  0  0  0  0  0
   11.5779    1.8859   21.8970 H   0  0  0  0  0  0  0  0  0  0  0  0
   14.0500    2.3360   22.6723 H   0  0  0  0  0  0  0  0  0  0  0  0
   11.4712    1.0128   26.1682 H   0  0  0  0  0  0  0  0  0  0  0  0
    9.7782   -4.7284   26.9178 H   0  0  0  0  0  0  0  0  0  0  0  0
    9.2329   -6.3834   26.4818 H   0  0  0  0  0  0  0  0  0  0  0  0
   10.9816   -6.0468   26.7173 H   0  0  0  0  0  0  0  0  0  0  0  0
    9.2498    0.7288   24.8680 H   0  0  0  0  0  0  0  0  0  0  0  0
    9.0835    1.8863   23.5473 H   0  0  0  0  0  0  0  0  0  0  0  0
    8.7066   -1.7479   20.6383 H   0  0  0  0  0  0  0  0  0  0  0  0
    7.4345   -1.4041   21.8461 H   0  0  0  0  0  0  0  0  0  0  0  0
   10.3811   -6.0268   24.2968 H   0  0  0  0  0  0  0  0  0  0  0  0
  1  2  1  0  0  0  0
  1  3  2  0  0  0  0
  2  4  2  0  0  0  0
  3 13  1  0  0  0  0
  4 14  1  0  0  0  0
  5  7  2  0  0  0  0
  5 15  1  0  0  0  0
  6  8  1  0  0  0  0
  6 15  2  0  0  0  0
  7 16  1  0  0  0  0
  8 16  2  0  0  0  0
  9 10  2  0  0  0  0
  9 12  1  0  0  0  0
 10 27  1  0  0  0  0
 11 12  2  0  0  0  0
 11 27  1  0  0  0  0
 12 19  1  0  0  0  0
 13 14  2  0  0  0  0
 13 21  1  0  0  0  0
 14 23  1  0  0  0  0
 15 24  1  0  0  0  0
 16 25  1  0  0  0  0
 17 20  1  0  0  0  0
 17 25  1  0  0  0  0
 17 26  2  0  0  0  0
 18 24  1  0  0  0  0
 19 25  1  0  0  0  0
 20 23  1  0  0  0  0
 21 22  2  0  0  0  0
 22 23  1  0  0  0  0
  1 28  1  0  0  0  0
  2 29  1  0  0  0  0
  3 30  1  0  0  0  0
  4 31  1  0  0  0  0
  5 32  1  0  0  0  0
  6 33  1  0  0  0  0
  7 34  1  0  0  0  0
  8 35  1  0  0  0  0
  9 36  1  0  0  0  0
 10 37  1  0  0  0  0
 11 38  1  0  0  0  0
 18 39  1  0  0  0  0
 18 40  1  0  0  0  0
 18 41  1  0  0  0  0
 19 42  1  0  0  0  0
 19 43  1  0  0  0  0
 20 44  1  0  0  0  0
 20 45  1  0  0  0  0
 24 46  1  0  0  0  0
M  END
> <Protease Assay (Fluorescence) Dose-Response: IC50 (µM)>
4.33

> <clash_score>
0.6373871389811315

> <docking_score>
-9.121018409729004

> <overlap_score>
0.9068070650100708

$$$$
ALP-POS-c59291d4-3_1
  -OEChem-09012022313D

 52 56  0     0  0  0  0  0  0999 V2000
    4.0980    2.1130   19.5350 C   0  0  0  0  0  0  0  0  0  0  0  0
    4.2970    1.6690   20.8430 C   0  0  0  0  0  0  0  0  0  0  0  0
    4.9400    1.7060   18.5060 C   0  0  0  0  0  0  0  0  0  0  0  0
    5.3360    0.8000   21.1530 C   0  0  0  0  0  0  0  0  0  0  0  0
    9.4303   -3.5559   24.3479 C   0  0  0  0  0  0  0  0  0  0  0  0
    7.5362   -2.3581   25.2505 C   0  0  0  0  0  0  0  0  0  0  0  0
    9.7994   -2.4244   23.6206 C   0  0  0  0  0  0  0  0  0  0  0  0
    7.9053   -1.2265   24.5232 C   0  0  0  0  0  0  0  0  0  0  0  0
   12.4722    0.3427   22.4740 C   0  0  0  0  0  0  0  0  0  0  0  0
   13.7761   -0.0005   22.7561 C   0  0  0  0  0  0  0  0  0  0  0  0
   12.4435    0.3229   24.7980 C   0  0  0  0  0  0  0  0  0  0  0  0
   11.7002    0.5302   23.6568 C   0  0  0  0  0  0  0  0  0  0  0  0
    5.9810    0.8330   18.8060 C   0  0  0  0  0  0  0  0  0  0  0  0
    6.1600    0.3870   20.1140 C   0  0  0  0  0  0  0  0  0  0  0  0
    8.2986   -3.5228   25.1628 C   0  0  0  0  0  0  0  0  0  0  0  0
    9.0369   -1.2596   23.7083 C   0  0  0  0  0  0  0  0  0  0  0  0
    6.8353   -4.8102   26.7520 C   0  0  0  0  0  0  0  0  0  0  0  0
    8.9510    0.1280   21.6880 C   0  0  0  0  0  0  0  0  0  0  0  0
    6.9605   -6.3289   28.8163 C   0  0  0  0  0  0  0  0  0  0  0  0
    5.6154   -6.5471   28.1917 C   0  0  0  0  0  0  0  0  0  0  0  0
    6.7853   -6.1948   27.3478 C   0  0  0  0  0  0  0  0  0  0  0  0
   10.2471    0.9082   23.6571 C   0  0  0  0  0  0  0  0  0  0  0  0
    8.0810   -0.9750   21.0820 C   0  0  0  0  0  0  0  0  0  0  0  0
    6.9440    0.2550   18.0100 N   0  0  0  0  0  0  0  0  0  0  0  0
    7.6830   -0.5170   18.7600 N   0  0  0  0  0  0  0  0  0  0  0  0
    7.2210   -0.4620   20.0350 N   0  0  0  0  0  0  0  0  0  0  0  0
    7.9291   -4.6546   25.8900 N   0  0  0  0  0  0  0  0  0  0  0  0
    9.4200   -0.0840   22.9530 N   0  0  0  0  0  0  0  0  0  0  0  0
    5.9826   -3.9743   27.0332 O   0  0  0  0  0  0  0  0  0  0  0  0
    9.1870    1.1500   21.0630 O   0  0  0  0  0  0  0  0  0  0  0  0
   14.0652   -0.0956   24.4413 S   0  0  0  0  0  0  0  0  0  0  0  0
    3.2714    2.7873   19.3199 H   0  0  0  0  0  0  0  0  0  0  0  0
    3.6281    2.0093   21.6291 H   0  0  0  0  0  0  0  0  0  0  0  0
    4.7823    2.0669   17.4883 H   0  0  0  0  0  0  0  0  0  0  0  0
    5.4954    0.4562   22.1797 H   0  0  0  0  0  0  0  0  0  0  0  0
   10.0321   -4.4579   24.2717 H   0  0  0  0  0  0  0  0  0  0  0  0
    6.6526   -2.3211   25.8826 H   0  0  0  0  0  0  0  0  0  0  0  0
   10.6831   -2.4623   22.9885 H   0  0  0  0  0  0  0  0  0  0  0  0
    7.3034   -0.3247   24.5985 H   0  0  0  0  0  0  0  0  0  0  0  0
   12.0941    0.4525   21.4654 H   0  0  0  0  0  0  0  0  0  0  0  0
   14.5726   -0.2006   22.0534 H   0  0  0  0  0  0  0  0  0  0  0  0
   12.1156    0.3949   25.8258 H   0  0  0  0  0  0  0  0  0  0  0  0
    7.0941   -5.4457   29.4289 H   0  0  0  0  0  0  0  0  0  0  0  0
    7.5037   -7.1999   29.1622 H   0  0  0  0  0  0  0  0  0  0  0  0
    5.2527   -7.5651   28.1176 H   0  0  0  0  0  0  0  0  0  0  0  0
    4.8451   -5.8110   28.3872 H   0  0  0  0  0  0  0  0  0  0  0  0
    7.2047   -6.9345   26.7008 H   0  0  0  0  0  0  0  0  0  0  0  0
    9.8708    0.9945   24.6823 H   0  0  0  0  0  0  0  0  0  0  0  0
   10.0932    1.8775   23.1714 H   0  0  0  0  0  0  0  0  0  0  0  0
    8.7066   -1.7479   20.6383 H   0  0  0  0  0  0  0  0  0  0  0  0
    7.4345   -1.4041   21.8461 H   0  0  0  0  0  0  0  0  0  0  0  0
    8.5294   -5.4807   25.7839 H   0  0  0  0  0  0  0  0  0  0  0  0
  1  2  1  0  0  0  0
  1  3  2  0  0  0  0
  2  4  2  0  0  0  0
  3 13  1  0  0  0  0
  4 14  1  0  0  0  0
  5  7  2  0  0  0  0
  5 15  1  0  0  0  0
  6  8  1  0  0  0  0
  6 15  2  0  0  0  0
  7 16  1  0  0  0  0
  8 16  2  0  0  0  0
  9 10  2  0  0  0  0
  9 12  1  0  0  0  0
 10 31  1  0  0  0  0
 11 12  2  0  0  0  0
 11 31  1  0  0  0  0
 12 22  1  0  0  0  0
 13 14  2  0  0  0  0
 13 24  1  0  0  0  0
 14 26  1  0  0  0  0
 15 27  1  0  0  0  0
 16 28  1  0  0  0  0
 17 21  1  0  0  0  0
 17 27  1  0  0  0  0
 17 29  2  0  0  0  0
 18 23  1  0  0  0  0
 18 28  1  0  0  0  0
 18 30  2  0  0  0  0
 19 20  1  0  0  0  0
 19 21  1  0  0  0  0
 20 21  1  0  0  0  0
 22 28  1  0  0  0  0
 23 26  1  0  0  0  0
 24 25  2  0  0  0  0
 25 26  1  0  0  0  0
  1 32  1  0  0  0  0
  2 33  1  0  0  0  0
  3 34  1  0  0  0  0
  4 35  1  0  0  0  0
  5 36  1  0  0  0  0
  6 37  1  0  0  0  0
  7 38  1  0  0  0  0
  8 39  1  0  0  0  0
  9 40  1  0  0  0  0
 10 41  1  0  0  0  0
 11 42  1  0  0  0  0
 19 43  1  0  0  0  0
 19 44  1  0  0  0  0
 20 45  1  0  0  0  0
 20 46  1  0  0  0  0
 21 47  1  0  0  0  0
 22 48  1  0  0  0  0
 22 49  1  0  0  0  0
 23 50  1  0  0  0  0
 23 51  1  0  0  0  0
 27 52  1  0  0  0  0
M  END
> <Protease Assay (Fluorescence) Dose-Response: IC50 (µM)>
3.99

> <clash_score>
0

> <docking_score>
-7.718075275421143

> <overlap_score>
0.8981159925460815

$$$$
ALP-POS-c59291d4-2_1
  -OEChem-09012022313D

 51 54  0     0  0  0  0  0  0999 V2000
    4.0980    2.1130   19.5350 C   0  0  0  0  0  0  0  0  0  0  0  0
    4.2970    1.6690   20.8430 C   0  0  0  0  0  0  0  0  0  0  0  0
    4.9400    1.7060   18.5060 C   0  0  0  0  0  0  0  0  0  0  0  0
    5.3360    0.8000   21.1530 C   0  0  0  0  0  0  0  0  0  0  0  0
    9.4303   -3.5559   24.3479 C   0  0  0  0  0  0  0  0  0  0  0  0
    7.5362   -2.3581   25.2505 C   0  0  0  0  0  0  0  0  0  0  0  0
    9.7994   -2.4244   23.6206 C   0  0  0  0  0  0  0  0  0  0  0  0
    7.9053   -1.2265   24.5232 C   0  0  0  0  0  0  0  0  0  0  0  0
   12.4722    0.3427   22.4740 C   0  0  0  0  0  0  0  0  0  0  0  0
   13.7761   -0.0005   22.7561 C   0  0  0  0  0  0  0  0  0  0  0  0
   12.4435    0.3229   24.7980 C   0  0  0  0  0  0  0  0  0  0  0  0
   11.7002    0.5302   23.6568 C   0  0  0  0  0  0  0  0  0  0  0  0
    5.9810    0.8330   18.8060 C   0  0  0  0  0  0  0  0  0  0  0  0
    6.1600    0.3870   20.1140 C   0  0  0  0  0  0  0  0  0  0  0  0
    8.2986   -3.5228   25.1628 C   0  0  0  0  0  0  0  0  0  0  0  0
    9.0369   -1.2596   23.7083 C   0  0  0  0  0  0  0  0  0  0  0  0
    6.8339   -4.8122   26.7547 C   0  0  0  0  0  0  0  0  0  0  0  0
    8.9510    0.1280   21.6880 C   0  0  0  0  0  0  0  0  0  0  0  0
    5.6454   -6.4119   28.3149 C   0  0  0  0  0  0  0  0  0  0  0  0
   10.2471    0.9082   23.6571 C   0  0  0  0  0  0  0  0  0  0  0  0
    6.7978   -6.2133   27.3467 C   0  0  0  0  0  0  0  0  0  0  0  0
    8.0810   -0.9750   21.0820 C   0  0  0  0  0  0  0  0  0  0  0  0
    6.9440    0.2550   18.0100 N   0  0  0  0  0  0  0  0  0  0  0  0
    7.6830   -0.5170   18.7600 N   0  0  0  0  0  0  0  0  0  0  0  0
    7.2210   -0.4620   20.0350 N   0  0  0  0  0  0  0  0  0  0  0  0
    7.9291   -4.6546   25.8900 N   0  0  0  0  0  0  0  0  0  0  0  0
    9.4200   -0.0840   22.9530 N   0  0  0  0  0  0  0  0  0  0  0  0
    5.9888   -3.9672   27.0312 O   0  0  0  0  0  0  0  0  0  0  0  0
    9.1870    1.1500   21.0630 O   0  0  0  0  0  0  0  0  0  0  0  0
   14.0652   -0.0956   24.4413 S   0  0  0  0  0  0  0  0  0  0  0  0
    3.2714    2.7873   19.3199 H   0  0  0  0  0  0  0  0  0  0  0  0
    3.6281    2.0093   21.6291 H   0  0  0  0  0  0  0  0  0  0  0  0
    4.7823    2.0669   17.4883 H   0  0  0  0  0  0  0  0  0  0  0  0
    5.4954    0.4562   22.1797 H   0  0  0  0  0  0  0  0  0  0  0  0
   10.0321   -4.4579   24.2717 H   0  0  0  0  0  0  0  0  0  0  0  0
    6.6526   -2.3211   25.8826 H   0  0  0  0  0  0  0  0  0  0  0  0
   10.6831   -2.4623   22.9885 H   0  0  0  0  0  0  0  0  0  0  0  0
    7.3034   -0.3247   24.5985 H   0  0  0  0  0  0  0  0  0  0  0  0
   12.0941    0.4525   21.4654 H   0  0  0  0  0  0  0  0  0  0  0  0
   14.5726   -0.2006   22.0534 H   0  0  0  0  0  0  0  0  0  0  0  0
   12.1156    0.3949   25.8258 H   0  0  0  0  0  0  0  0  0  0  0  0
    5.7038   -5.7022   29.1467 H   0  0  0  0  0  0  0  0  0  0  0  0
    5.6650   -7.4251   28.7278 H   0  0  0  0  0  0  0  0  0  0  0  0
    4.6823   -6.2647   27.8151 H   0  0  0  0  0  0  0  0  0  0  0  0
    9.8708    0.9945   24.6823 H   0  0  0  0  0  0  0  0  0  0  0  0
   10.0932    1.8775   23.1714 H   0  0  0  0  0  0  0  0  0  0  0  0
    6.7142   -6.9351   26.5261 H   0  0  0  0  0  0  0  0  0  0  0  0
    7.7462   -6.3963   27.8647 H   0  0  0  0  0  0  0  0  0  0  0  0
    8.7066   -1.7479   20.6383 H   0  0  0  0  0  0  0  0  0  0  0  0
    7.4345   -1.4041   21.8461 H   0  0  0  0  0  0  0  0  0  0  0  0
    8.5300   -5.4802   25.7833 H   0  0  0  0  0  0  0  0  0  0  0  0
  1  2  1  0  0  0  0
  1  3  2  0  0  0  0
  2  4  2  0  0  0  0
  3 13  1  0  0  0  0
  4 14  1  0  0  0  0
  5  7  2  0  0  0  0
  5 15  1  0  0  0  0
  6  8  1  0  0  0  0
  6 15  2  0  0  0  0
  7 16  1  0  0  0  0
  8 16  2  0  0  0  0
  9 10  2  0  0  0  0
  9 12  1  0  0  0  0
 10 30  1  0  0  0  0
 11 12  2  0  0  0  0
 11 30  1  0  0  0  0
 12 20  1  0  0  0  0
 13 14  2  0  0  0  0
 13 23  1  0  0  0  0
 14 25  1  0  0  0  0
 15 26  1  0  0  0  0
 16 27  1  0  0  0  0
 17 21  1  0  0  0  0
 17 26  1  0  0  0  0
 17 28  2  0  0  0  0
 18 22  1  0  0  0  0
 18 27  1  0  0  0  0
 18 29  2  0  0  0  0
 19 21  1  0  0  0  0
 20 27  1  0  0  0  0
 22 25  1  0  0  0  0
 23 24  2  0  0  0  0
 24 25  1  0  0  0  0
  1 31  1  0  0  0  0
  2 32  1  0  0  0  0
  3 33  1  0  0  0  0
  4 34  1  0  0  0  0
  5 35  1  0  0  0  0
  6 36  1  0  0  0  0
  7 37  1  0  0  0  0
  8 38  1  0  0  0  0
  9 39  1  0  0  0  0
 10 40  1  0  0  0  0
 11 41  1  0  0  0  0
 19 42  1  0  0  0  0
 19 43  1  0  0  0  0
 19 44  1  0  0  0  0
 20 45  1  0  0  0  0
 20 46  1  0  0  0  0
 21 47  1  0  0  0  0
 21 48  1  0  0  0  0
 22 49  1  0  0  0  0
 22 50  1  0  0  0  0
 26 51  1  0  0  0  0
M  END
> <Protease Assay (Fluorescence) Dose-Response: IC50 (µM)>
1.63

> <clash_score>
0

> <docking_score>
-7.90201997756958

> <overlap_score>
0.899226188659668

$$$$
ALP-POS-c0c213c9-15_1
  -OEChem-09012022313D

 51 55  0     0  0  0  0  0  0999 V2000
    7.2110   -6.8708   27.3127 C   0  0  0  0  0  0  0  0  0  0  0  0
    8.5546   -6.6357   27.0211 C   0  0  0  0  0  0  0  0  0  0  0  0
    6.2355   -5.9738   26.8773 C   0  0  0  0  0  0  0  0  0  0  0  0
    4.0980    2.1130   19.5350 C   0  0  0  0  0  0  0  0  0  0  0  0
    4.2970    1.6690   20.8430 C   0  0  0  0  0  0  0  0  0  0  0  0
   13.9978    1.1441   23.6691 C   0  0  0  0  0  0  0  0  0  0  0  0
   14.3273   -0.2066   23.6556 C   0  0  0  0  0  0  0  0  0  0  0  0
    8.9228   -5.5036   26.2942 C   0  0  0  0  0  0  0  0  0  0  0  0
    6.6037   -4.8417   26.1505 C   0  0  0  0  0  0  0  0  0  0  0  0
    4.9400    1.7060   18.5060 C   0  0  0  0  0  0  0  0  0  0  0  0
    5.3360    0.8000   21.1530 C   0  0  0  0  0  0  0  0  0  0  0  0
   12.6614    1.5280   23.6699 C   0  0  0  0  0  0  0  0  0  0  0  0
   13.2915   -1.1268   23.6433 C   0  0  0  0  0  0  0  0  0  0  0  0
    9.7584   -2.4348   23.6548 C   0  0  0  0  0  0  0  0  0  0  0  0
    7.9271   -1.2773   24.5282 C   0  0  0  0  0  0  0  0  0  0  0  0
    7.9473   -4.6065   25.8589 C   0  0  0  0  0  0  0  0  0  0  0  0
    5.9810    0.8330   18.8060 C   0  0  0  0  0  0  0  0  0  0  0  0
    6.1600    0.3870   20.1140 C   0  0  0  0  0  0  0  0  0  0  0  0
    9.0369   -1.2596   23.7083 C   0  0  0  0  0  0  0  0  0  0  0  0
   11.7002    0.5302   23.6568 C   0  0  0  0  0  0  0  0  0  0  0  0
    8.3277   -3.4383   25.1085 C   0  0  0  0  0  0  0  0  0  0  0  0
    8.9510    0.1280   21.6880 C   0  0  0  0  0  0  0  0  0  0  0  0
   10.2471    0.9082   23.6571 C   0  0  0  0  0  0  0  0  0  0  0  0
    8.0810   -0.9750   21.0820 C   0  0  0  0  0  0  0  0  0  0  0  0
   11.9817   -0.7920   23.6436 N   0  0  0  0  0  0  0  0  0  0  0  0
    9.4311   -3.5473   24.3443 N   0  0  0  0  0  0  0  0  0  0  0  0
    7.5417   -2.3533   25.2452 N   0  0  0  0  0  0  0  0  0  0  0  0
    6.9440    0.2550   18.0100 N   0  0  0  0  0  0  0  0  0  0  0  0
    7.6830   -0.5170   18.7600 N   0  0  0  0  0  0  0  0  0  0  0  0
    7.2210   -0.4620   20.0350 N   0  0  0  0  0  0  0  0  0  0  0  0
    9.4200   -0.0840   22.9530 N   0  0  0  0  0  0  0  0  0  0  0  0
    9.1870    1.1500   21.0630 O   0  0  0  0  0  0  0  0  0  0  0  0
    6.9245   -7.7533   27.8772 H   0  0  0  0  0  0  0  0  0  0  0  0
    9.3141   -7.3349   27.3585 H   0  0  0  0  0  0  0  0  0  0  0  0
    5.1890   -6.1570   27.1028 H   0  0  0  0  0  0  0  0  0  0  0  0
    3.2714    2.7873   19.3199 H   0  0  0  0  0  0  0  0  0  0  0  0
    3.6281    2.0093   21.6291 H   0  0  0  0  0  0  0  0  0  0  0  0
   14.7810    1.8961   23.6790 H   0  0  0  0  0  0  0  0  0  0  0  0
   15.3623   -0.5289   23.6547 H   0  0  0  0  0  0  0  0  0  0  0  0
    9.9744   -5.3344   26.0747 H   0  0  0  0  0  0  0  0  0  0  0  0
    5.8321   -4.1517   25.8172 H   0  0  0  0  0  0  0  0  0  0  0  0
    4.7823    2.0669   17.4883 H   0  0  0  0  0  0  0  0  0  0  0  0
    5.4954    0.4562   22.1797 H   0  0  0  0  0  0  0  0  0  0  0  0
   12.3910    2.5784   23.6804 H   0  0  0  0  0  0  0  0  0  0  0  0
   13.4956   -2.1924   23.6326 H   0  0  0  0  0  0  0  0  0  0  0  0
   10.6483   -2.5252   23.0393 H   0  0  0  0  0  0  0  0  0  0  0  0
    7.2926   -0.4035   24.6405 H   0  0  0  0  0  0  0  0  0  0  0  0
    9.8708    0.9945   24.6823 H   0  0  0  0  0  0  0  0  0  0  0  0
   10.0932    1.8775   23.1714 H   0  0  0  0  0  0  0  0  0  0  0  0
    8.7066   -1.7479   20.6383 H   0  0  0  0  0  0  0  0  0  0  0  0
    7.4345   -1.4041   21.8461 H   0  0  0  0  0  0  0  0  0  0  0  0
  1  2  1  0  0  0  0
  1  3  2  0  0  0  0
  2  8  2  0  0  0  0
  3  9  1  0  0  0  0
  4  5  1  0  0  0  0
  4 10  2  0  0  0  0
  5 11  2  0  0  0  0
  6  7  1  0  0  0  0
  6 12  2  0  0  0  0
  7 13  2  0  0  0  0
  8 16  1  0  0  0  0
  9 16  2  0  0  0  0
 10 17  1  0  0  0  0
 11 18  1  0  0  0  0
 12 20  1  0  0  0  0
 13 25  1  0  0  0  0
 14 19  1  0  0  0  0
 14 26  2  0  0  0  0
 15 19  2  0  0  0  0
 15 27  1  0  0  0  0
 16 21  1  0  0  0  0
 17 18  2  0  0  0  0
 17 28  1  0  0  0  0
 18 30  1  0  0  0  0
 19 31  1  0  0  0  0
 20 23  1  0  0  0  0
 20 25  2  0  0  0  0
 21 26  1  0  0  0  0
 21 27  2  0  0  0  0
 22 24  1  0  0  0  0
 22 31  1  0  0  0  0
 22 32  2  0  0  0  0
 23 31  1  0  0  0  0
 24 30  1  0  0  0  0
 28 29  2  0  0  0  0
 29 30  1  0  0  0  0
  1 33  1  0  0  0  0
  2 34  1  0  0  0  0
  3 35  1  0  0  0  0
  4 36  1  0  0  0  0
  5 37  1  0  0  0  0
  6 38  1  0  0  0  0
  7 39  1  0  0  0  0
  8 40  1  0  0  0  0
  9 41  1  0  0  0  0
 10 42  1  0  0  0  0
 11 43  1  0  0  0  0
 12 44  1  0  0  0  0
 13 45  1  0  0  0  0
 14 46  1  0  0  0  0
 15 47  1  0  0  0  0
 23 48  1  0  0  0  0
 23 49  1  0  0  0  0
 24 50  1  0  0  0  0
 24 51  1  0  0  0  0
M  END
> <Protease Assay (Fluorescence) Dose-Response: IC50 (µM)>
> 99.5

> <clash_score>
0.7355528830034377

> <docking_score>
-5.966446399688721

> <overlap_score>
0.9583608508110046

$$$$
AAR-POS-8a4e0f60-7_1
  -OEChem-09012022313D

 47 50  0     0  0  0  0  0  0999 V2000
    4.0980    2.1130   19.5350 C   0  0  0  0  0  0  0  0  0  0  0  0
    4.2970    1.6690   20.8430 C   0  0  0  0  0  0  0  0  0  0  0  0
    7.6896   -7.7342   23.9834 C   0  0  0  0  0  0  0  0  0  0  0  0
    4.9400    1.7060   18.5060 C   0  0  0  0  0  0  0  0  0  0  0  0
    5.3360    0.8000   21.1530 C   0  0  0  0  0  0  0  0  0  0  0  0
    9.3334   -2.5313   23.2176 C   0  0  0  0  0  0  0  0  0  0  0  0
    8.3714   -1.1197   24.9262 C   0  0  0  0  0  0  0  0  0  0  0  0
    8.9646   -3.6629   23.9449 C   0  0  0  0  0  0  0  0  0  0  0  0
    8.0026   -2.2514   25.6534 C   0  0  0  0  0  0  0  0  0  0  0  0
    7.3472   -6.4914   24.5042 C   0  0  0  0  0  0  0  0  0  0  0  0
    9.7546   -7.5985   25.1556 C   0  0  0  0  0  0  0  0  0  0  0  0
    8.9145   -8.3053   24.3103 C   0  0  0  0  0  0  0  0  0  0  0  0
    5.9810    0.8330   18.8060 C   0  0  0  0  0  0  0  0  0  0  0  0
    6.1600    0.3870   20.1140 C   0  0  0  0  0  0  0  0  0  0  0  0
    9.0369   -1.2596   23.7083 C   0  0  0  0  0  0  0  0  0  0  0  0
    8.2992   -3.5230   25.1627 C   0  0  0  0  0  0  0  0  0  0  0  0
    8.2573   -5.8658   25.3410 C   0  0  0  0  0  0  0  0  0  0  0  0
    8.9510    0.1280   21.6880 C   0  0  0  0  0  0  0  0  0  0  0  0
   10.2471    0.9082   23.6571 C   0  0  0  0  0  0  0  0  0  0  0  0
    8.0810   -0.9750   21.0820 C   0  0  0  0  0  0  0  0  0  0  0  0
    9.3099   -9.6332   23.7696 C   0  0  0  0  0  0  0  0  0  0  0  0
    9.4565   -6.3892   25.6812 N   0  0  0  0  0  0  0  0  0  0  0  0
    6.9440    0.2550   18.0100 N   0  0  0  0  0  0  0  0  0  0  0  0
    7.6830   -0.5170   18.7600 N   0  0  0  0  0  0  0  0  0  0  0  0
    7.2210   -0.4620   20.0350 N   0  0  0  0  0  0  0  0  0  0  0  0
    9.4200   -0.0840   22.9530 N   0  0  0  0  0  0  0  0  0  0  0  0
    9.1870    1.1500   21.0630 O   0  0  0  0  0  0  0  0  0  0  0  0
    7.9393   -4.6273   25.8724 O   0  0  0  0  0  0  0  0  0  0  0  0
    8.3701  -10.1978   22.9519 F   0  0  0  0  0  0  0  0  0  0  0  0
   10.4552   -9.6050   23.0229 F   0  0  0  0  0  0  0  0  0  0  0  0
    9.5391  -10.5570   24.7500 F   0  0  0  0  0  0  0  0  0  0  0  0
    3.2714    2.7873   19.3199 H   0  0  0  0  0  0  0  0  0  0  0  0
    3.6281    2.0093   21.6291 H   0  0  0  0  0  0  0  0  0  0  0  0
    6.9970   -8.2502   23.3242 H   0  0  0  0  0  0  0  0  0  0  0  0
    4.7823    2.0669   17.4883 H   0  0  0  0  0  0  0  0  0  0  0  0
    5.4954    0.4562   22.1797 H   0  0  0  0  0  0  0  0  0  0  0  0
    9.8516   -2.6521   22.2696 H   0  0  0  0  0  0  0  0  0  0  0  0
    8.1352   -0.1338   25.3184 H   0  0  0  0  0  0  0  0  0  0  0  0
    9.1984   -4.6508   23.5574 H   0  0  0  0  0  0  0  0  0  0  0  0
    7.4845   -2.1360   26.6016 H   0  0  0  0  0  0  0  0  0  0  0  0
    6.3956   -6.0326   24.2588 H   0  0  0  0  0  0  0  0  0  0  0  0
   10.7231   -7.9939   25.4458 H   0  0  0  0  0  0  0  0  0  0  0  0
   11.3109    0.6696   23.5108 H   0  0  0  0  0  0  0  0  0  0  0  0
   10.0379    1.9108   23.2559 H   0  0  0  0  0  0  0  0  0  0  0  0
   10.0109    0.8864   24.7312 H   0  0  0  0  0  0  0  0  0  0  0  0
    8.7066   -1.7479   20.6383 H   0  0  0  0  0  0  0  0  0  0  0  0
    7.4345   -1.4041   21.8461 H   0  0  0  0  0  0  0  0  0  0  0  0
  1  2  1  0  0  0  0
  1  4  2  0  0  0  0
  2  5  2  0  0  0  0
  3 10  2  0  0  0  0
  3 12  1  0  0  0  0
  4 13  1  0  0  0  0
  5 14  1  0  0  0  0
  6  8  2  0  0  0  0
  6 15  1  0  0  0  0
  7  9  1  0  0  0  0
  7 15  2  0  0  0  0
  8 16  1  0  0  0  0
  9 16  2  0  0  0  0
 10 17  1  0  0  0  0
 11 12  2  0  0  0  0
 11 22  1  0  0  0  0
 12 21  1  0  0  0  0
 13 14  2  0  0  0  0
 13 23  1  0  0  0  0
 14 25  1  0  0  0  0
 15 26  1  0  0  0  0
 16 28  1  0  0  0  0
 17 22  2  0  0  0  0
 17 28  1  0  0  0  0
 18 20  1  0  0  0  0
 18 26  1  0  0  0  0
 18 27  2  0  0  0  0
 19 26  1  0  0  0  0
 20 25  1  0  0  0  0
 21 29  1  0  0  0  0
 21 30  1  0  0  0  0
 21 31  1  0  0  0  0
 23 24  2  0  0  0  0
 24 25  1  0  0  0  0
  1 32  1  0  0  0  0
  2 33  1  0  0  0  0
  3 34  1  0  0  0  0
  4 35  1  0  0  0  0
  5 36  1  0  0  0  0
  6 37  1  0  0  0  0
  7 38  1  0  0  0  0
  8 39  1  0  0  0  0
  9 40  1  0  0  0  0
 10 41  1  0  0  0  0
 11 42  1  0  0  0  0
 19 43  1  0  0  0  0
 19 44  1  0  0  0  0
 19 45  1  0  0  0  0
 20 46  1  0  0  0  0
 20 47  1  0  0  0  0
M  END
> <Protease Assay (Fluorescence) Dose-Response: IC50 (µM)>
37.8

> <clash_score>
3.870508053736989

> <docking_score>
3.4028234663852886e+38

> <overlap_score>
0.7907549738883972

$$$$
ALP-POS-c0c213c9-13_1
  -OEChem-09012022313D

 61 65  0     1  0  0  0  0  0999 V2000
    4.0980    2.1130   19.5350 C   0  0  0  0  0  0  0  0  0  0  0  0
    4.2970    1.6690   20.8430 C   0  0  0  0  0  0  0  0  0  0  0  0
    7.6215   -2.2907   25.3020 C   0  0  0  0  0  0  0  0  0  0  0  0
    9.5214   -3.4784   24.3981 C   0  0  0  0  0  0  0  0  0  0  0  0
    4.9400    1.7060   18.5060 C   0  0  0  0  0  0  0  0  0  0  0  0
    5.3360    0.8000   21.1530 C   0  0  0  0  0  0  0  0  0  0  0  0
    7.9609   -1.1705   24.5434 C   0  0  0  0  0  0  0  0  0  0  0  0
    9.8607   -2.3582   23.6394 C   0  0  0  0  0  0  0  0  0  0  0  0
    8.4018   -3.4447   25.2294 C   0  0  0  0  0  0  0  0  0  0  0  0
    5.9810    0.8330   18.8060 C   0  0  0  0  0  0  0  0  0  0  0  0
    6.1600    0.3870   20.1140 C   0  0  0  0  0  0  0  0  0  0  0  0
    9.0805   -1.2042   23.7121 C   0  0  0  0  0  0  0  0  0  0  0  0
    8.9510    0.1280   21.6880 C   0  0  0  0  0  0  0  0  0  0  0  0
    7.6113   -5.8848   25.2140 C   0  0  0  0  0  0  0  0  0  0  0  0
    9.0670   -5.0218   27.1400 C   0  0  0  0  0  0  0  0  0  0  0  0
   12.4165    0.0528   22.6245 C   0  0  0  0  0  0  0  0  0  0  0  0
    8.7541   -6.8015   24.8043 C   0  0  0  0  0  0  0  0  0  0  0  0
   10.1728   -5.9607   26.6819 C   0  0  0  0  0  0  0  0  0  0  0  0
   13.7280    0.7091   22.2470 C   0  0  0  0  0  0  0  0  0  0  0  0
   12.4475    2.2567   23.4274 C   0  0  0  0  0  0  0  0  0  0  0  0
    8.0319   -4.6654   26.0561 C   0  0  0  0  0  0  0  0  0  0  0  0
   11.5080    1.2525   22.7827 C   0  0  2  0  0  0  0  0  0  0  0  0
    8.0810   -0.9750   21.0820 C   0  0  0  0  0  0  0  0  0  0  0  0
   10.2543    0.9808   23.5917 C   0  0  0  0  0  0  0  0  0  0  0  0
    6.9440    0.2550   18.0100 N   0  0  0  0  0  0  0  0  0  0  0  0
    7.6830   -0.5170   18.7600 N   0  0  0  0  0  0  0  0  0  0  0  0
    7.2210   -0.4620   20.0350 N   0  0  0  0  0  0  0  0  0  0  0  0
    9.4200   -0.0840   22.9530 N   0  0  0  0  0  0  0  0  0  0  0  0
    9.5715   -7.1425   26.0024 N   0  3  0  0  0  0  0  0  0  0  0  0
    9.1870    1.1500   21.0630 O   0  0  0  0  0  0  0  0  0  0  0  0
   13.7554    1.9873   22.8994 O   0  0  0  0  0  0  0  0  0  0  0  0
    3.2714    2.7873   19.3199 H   0  0  0  0  0  0  0  0  0  0  0  0
    3.6281    2.0093   21.6291 H   0  0  0  0  0  0  0  0  0  0  0  0
    6.7487   -2.2548   25.9487 H   0  0  0  0  0  0  0  0  0  0  0  0
   10.1353   -4.3731   24.3359 H   0  0  0  0  0  0  0  0  0  0  0  0
    4.7823    2.0669   17.4883 H   0  0  0  0  0  0  0  0  0  0  0  0
    5.4954    0.4562   22.1797 H   0  0  0  0  0  0  0  0  0  0  0  0
    7.3454   -0.2766   24.6075 H   0  0  0  0  0  0  0  0  0  0  0  0
   10.7360   -2.3950   22.9957 H   0  0  0  0  0  0  0  0  0  0  0  0
    7.0760   -5.5440   24.2996 H   0  0  0  0  0  0  0  0  0  0  0  0
    6.8545   -6.4783   25.7713 H   0  0  0  0  0  0  0  0  0  0  0  0
    8.5494   -5.4729   28.0142 H   0  0  0  0  0  0  0  0  0  0  0  0
    9.5268   -4.0909   27.5418 H   0  0  0  0  0  0  0  0  0  0  0  0
   12.0720   -0.6637   21.8737 H   0  0  0  0  0  0  0  0  0  0  0  0
   12.5260   -0.4775   23.5784 H   0  0  0  0  0  0  0  0  0  0  0  0
    8.3932   -7.7430   24.3741 H   0  0  0  0  0  0  0  0  0  0  0  0
    9.4224   -6.3119   24.0878 H   0  0  0  0  0  0  0  0  0  0  0  0
   10.8349   -5.4752   25.9569 H   0  0  0  0  0  0  0  0  0  0  0  0
   10.7710   -6.3337   27.5216 H   0  0  0  0  0  0  0  0  0  0  0  0
   14.5964    0.1197   22.5539 H   0  0  0  0  0  0  0  0  0  0  0  0
   13.7879    0.8844   21.1675 H   0  0  0  0  0  0  0  0  0  0  0  0
   12.1713    3.2915   23.2039 H   0  0  0  0  0  0  0  0  0  0  0  0
   12.4979    2.1372   24.5154 H   0  0  0  0  0  0  0  0  0  0  0  0
    7.0789   -4.3358   26.6289 H   0  0  0  0  0  0  0  0  0  0  0  0
   11.2166    1.6135   21.7900 H   0  0  0  0  0  0  0  0  0  0  0  0
    8.7136   -1.7499   20.6462 H   0  0  0  0  0  0  0  0  0  0  0  0
    7.4415   -1.4060   21.8540 H   0  0  0  0  0  0  0  0  0  0  0  0
   10.5426    0.6536   24.6016 H   0  0  0  0  0  0  0  0  0  0  0  0
    9.6640    1.9064   23.6608 H   0  0  0  0  0  0  0  0  0  0  0  0
    8.9827   -7.6533   26.6759 H   0  0  0  0  0  0  0  0  0  0  0  0
   10.3172   -7.8015   25.7340 H   0  0  0  0  0  0  0  0  0  0  0  0
  1  2  1  0  0  0  0
  1  5  2  0  0  0  0
  2  6  2  0  0  0  0
  3  7  2  0  0  0  0
  3  9  1  0  0  0  0
  4  8  1  0  0  0  0
  4  9  2  0  0  0  0
  5 10  1  0  0  0  0
  6 11  1  0  0  0  0
  7 12  1  0  0  0  0
  8 12  2  0  0  0  0
  9 21  1  0  0  0  0
 10 11  2  0  0  0  0
 10 25  1  0  0  0  0
 11 27  1  0  0  0  0
 12 28  1  0  0  0  0
 13 23  1  0  0  0  0
 13 28  1  0  0  0  0
 13 30  2  0  0  0  0
 14 17  1  0  0  0  0
 14 21  1  0  0  0  0
 15 18  1  0  0  0  0
 15 21  1  0  0  0  0
 16 19  1  0  0  0  0
 16 22  1  0  0  0  0
 17 29  1  0  0  0  0
 18 29  1  0  0  0  0
 19 31  1  0  0  0  0
 20 22  1  0  0  0  0
 20 31  1  0  0  0  0
 22 24  1  1  0  0  0
 23 27  1  0  0  0  0
 24 28  1  0  0  0  0
 25 26  2  0  0  0  0
 26 27  1  0  0  0  0
  1 32  1  0  0  0  0
  2 33  1  0  0  0  0
  3 34  1  0  0  0  0
  4 35  1  0  0  0  0
  5 36  1  0  0  0  0
  6 37  1  0  0  0  0
  7 38  1  0  0  0  0
  8 39  1  0  0  0  0
 14 40  1  0  0  0  0
 14 41  1  0  0  0  0
 15 42  1  0  0  0  0
 15 43  1  0  0  0  0
 16 44  1  0  0  0  0
 16 45  1  0  0  0  0
 17 46  1  0  0  0  0
 17 47  1  0  0  0  0
 18 48  1  0  0  0  0
 18 49  1  0  0  0  0
 19 50  1  0  0  0  0
 19 51  1  0  0  0  0
 20 52  1  0  0  0  0
 20 53  1  0  0  0  0
 21 54  1  0  0  0  0
 22 55  1  0  0  0  0
 23 56  1  0  0  0  0
 23 57  1  0  0  0  0
 24 58  1  0  0  0  0
 24 59  1  0  0  0  0
 29 60  1  0  0  0  0
 29 61  1  0  0  0  0
M  CHG  1  29   1
M  END
> <Protease Assay (Fluorescence) Dose-Response: IC50 (µM)>
> 99.5

> <clash_score>
0

> <docking_score>
-10.403928756713867

> <overlap_score>
0.9755784869194031

$$$$
ALP-POS-c0c213c9-13_2
  -OEChem-09012022313D

 61 65  0     1  0  0  0  0  0999 V2000
    4.0980    2.1130   19.5350 C   0  0  0  0  0  0  0  0  0  0  0  0
    4.2970    1.6690   20.8430 C   0  0  0  0  0  0  0  0  0  0  0  0
    7.6215   -2.2907   25.3020 C   0  0  0  0  0  0  0  0  0  0  0  0
    9.5213   -3.4784   24.3981 C   0  0  0  0  0  0  0  0  0  0  0  0
    4.9400    1.7060   18.5060 C   0  0  0  0  0  0  0  0  0  0  0  0
    5.3360    0.8000   21.1530 C   0  0  0  0  0  0  0  0  0  0  0  0
    7.9609   -1.1705   24.5434 C   0  0  0  0  0  0  0  0  0  0  0  0
    9.8607   -2.3582   23.6394 C   0  0  0  0  0  0  0  0  0  0  0  0
    8.4018   -3.4447   25.2294 C   0  0  0  0  0  0  0  0  0  0  0  0
    5.9810    0.8330   18.8060 C   0  0  0  0  0  0  0  0  0  0  0  0
    6.1600    0.3870   20.1140 C   0  0  0  0  0  0  0  0  0  0  0  0
    9.0805   -1.2042   23.7121 C   0  0  0  0  0  0  0  0  0  0  0  0
    8.9510    0.1280   21.6880 C   0  0  0  0  0  0  0  0  0  0  0  0
    7.6113   -5.8848   25.2140 C   0  0  0  0  0  0  0  0  0  0  0  0
    9.0670   -5.0218   27.1400 C   0  0  0  0  0  0  0  0  0  0  0  0
   12.4019    2.3256   23.3652 C   0  0  0  0  0  0  0  0  0  0  0  0
    8.7541   -6.8015   24.8043 C   0  0  0  0  0  0  0  0  0  0  0  0
   10.1728   -5.9607   26.6819 C   0  0  0  0  0  0  0  0  0  0  0  0
   13.7197    2.0331   22.6785 C   0  0  0  0  0  0  0  0  0  0  0  0
   12.4619    0.0724   22.7161 C   0  0  0  0  0  0  0  0  0  0  0  0
    8.0319   -4.6654   26.0561 C   0  0  0  0  0  0  0  0  0  0  0  0
   11.5080    1.2525   22.7827 C   0  0  1  0  0  0  0  0  0  0  0  0
    8.0810   -0.9750   21.0820 C   0  0  0  0  0  0  0  0  0  0  0  0
   10.2543    0.9808   23.5917 C   0  0  0  0  0  0  0  0  0  0  0  0
    6.9440    0.2550   18.0100 N   0  0  0  0  0  0  0  0  0  0  0  0
    7.6830   -0.5170   18.7600 N   0  0  0  0  0  0  0  0  0  0  0  0
    7.2210   -0.4620   20.0350 N   0  0  0  0  0  0  0  0  0  0  0  0
    9.4200   -0.0840   22.9530 N   0  0  0  0  0  0  0  0  0  0  0  0
    9.5715   -7.1425   26.0024 N   0  3  0  0  0  0  0  0  0  0  0  0
    9.1870    1.1500   21.0630 O   0  0  0  0  0  0  0  0  0  0  0  0
   13.7639    0.6168   22.4504 O   0  0  0  0  0  0  0  0  0  0  0  0
    3.2714    2.7873   19.3199 H   0  0  0  0  0  0  0  0  0  0  0  0
    3.6281    2.0093   21.6291 H   0  0  0  0  0  0  0  0  0  0  0  0
    6.7487   -2.2548   25.9487 H   0  0  0  0  0  0  0  0  0  0  0  0
   10.1353   -4.3731   24.3359 H   0  0  0  0  0  0  0  0  0  0  0  0
    4.7823    2.0669   17.4883 H   0  0  0  0  0  0  0  0  0  0  0  0
    5.4954    0.4562   22.1797 H   0  0  0  0  0  0  0  0  0  0  0  0
    7.3454   -0.2766   24.6075 H   0  0  0  0  0  0  0  0  0  0  0  0
   10.7360   -2.3950   22.9957 H   0  0  0  0  0  0  0  0  0  0  0  0
    7.0760   -5.5440   24.2996 H   0  0  0  0  0  0  0  0  0  0  0  0
    6.8545   -6.4783   25.7713 H   0  0  0  0  0  0  0  0  0  0  0  0
    8.5494   -5.4729   28.0142 H   0  0  0  0  0  0  0  0  0  0  0  0
    9.5268   -4.0909   27.5418 H   0  0  0  0  0  0  0  0  0  0  0  0
   12.5090    2.1935   24.4488 H   0  0  0  0  0  0  0  0  0  0  0  0
   12.0462    3.3429   23.1793 H   0  0  0  0  0  0  0  0  0  0  0  0
    8.3932   -7.7430   24.3740 H   0  0  0  0  0  0  0  0  0  0  0  0
    9.4224   -6.3119   24.0878 H   0  0  0  0  0  0  0  0  0  0  0  0
   10.8349   -5.4752   25.9569 H   0  0  0  0  0  0  0  0  0  0  0  0
   10.7710   -6.3337   27.5216 H   0  0  0  0  0  0  0  0  0  0  0  0
   13.7782    2.5297   21.7041 H   0  0  0  0  0  0  0  0  0  0  0  0
   14.5823    2.3373   23.2779 H   0  0  0  0  0  0  0  0  0  0  0  0
   12.5165   -0.4699   23.6665 H   0  0  0  0  0  0  0  0  0  0  0  0
   12.1961   -0.6363   21.9262 H   0  0  0  0  0  0  0  0  0  0  0  0
    7.0789   -4.3358   26.6289 H   0  0  0  0  0  0  0  0  0  0  0  0
   11.2171    1.5420   21.7668 H   0  0  0  0  0  0  0  0  0  0  0  0
    8.7136   -1.7499   20.6462 H   0  0  0  0  0  0  0  0  0  0  0  0
    7.4415   -1.4060   21.8540 H   0  0  0  0  0  0  0  0  0  0  0  0
   10.5426    0.6536   24.6016 H   0  0  0  0  0  0  0  0  0  0  0  0
    9.6640    1.9064   23.6608 H   0  0  0  0  0  0  0  0  0  0  0  0
    8.9827   -7.6533   26.6759 H   0  0  0  0  0  0  0  0  0  0  0  0
   10.3172   -7.8015   25.7340 H   0  0  0  0  0  0  0  0  0  0  0  0
  1  2  1  0  0  0  0
  1  5  2  0  0  0  0
  2  6  2  0  0  0  0
  3  7  2  0  0  0  0
  3  9  1  0  0  0  0
  4  8  1  0  0  0  0
  4  9  2  0  0  0  0
  5 10  1  0  0  0  0
  6 11  1  0  0  0  0
  7 12  1  0  0  0  0
  8 12  2  0  0  0  0
  9 21  1  0  0  0  0
 10 11  2  0  0  0  0
 10 25  1  0  0  0  0
 11 27  1  0  0  0  0
 12 28  1  0  0  0  0
 13 23  1  0  0  0  0
 13 28  1  0  0  0  0
 13 30  2  0  0  0  0
 14 17  1  0  0  0  0
 14 21  1  0  0  0  0
 15 18  1  0  0  0  0
 15 21  1  0  0  0  0
 16 19  1  0  0  0  0
 16 22  1  0  0  0  0
 17 29  1  0  0  0  0
 18 29  1  0  0  0  0
 19 31  1  0  0  0  0
 20 22  1  0  0  0  0
 20 31  1  0  0  0  0
 22 24  1  6  0  0  0
 23 27  1  0  0  0  0
 24 28  1  0  0  0  0
 25 26  2  0  0  0  0
 26 27  1  0  0  0  0
  1 32  1  0  0  0  0
  2 33  1  0  0  0  0
  3 34  1  0  0  0  0
  4 35  1  0  0  0  0
  5 36  1  0  0  0  0
  6 37  1  0  0  0  0
  7 38  1  0  0  0  0
  8 39  1  0  0  0  0
 14 40  1  0  0  0  0
 14 41  1  0  0  0  0
 15 42  1  0  0  0  0
 15 43  1  0  0  0  0
 16 44  1  0  0  0  0
 16 45  1  0  0  0  0
 17 46  1  0  0  0  0
 17 47  1  0  0  0  0
 18 48  1  0  0  0  0
 18 49  1  0  0  0  0
 19 50  1  0  0  0  0
 19 51  1  0  0  0  0
 20 52  1  0  0  0  0
 20 53  1  0  0  0  0
 21 54  1  0  0  0  0
 22 55  1  0  0  0  0
 23 56  1  0  0  0  0
 23 57  1  0  0  0  0
 24 58  1  0  0  0  0
 24 59  1  0  0  0  0
 29 60  1  0  0  0  0
 29 61  1  0  0  0  0
M  CHG  1  29   1
M  END
> <Protease Assay (Fluorescence) Dose-Response: IC50 (µM)>
> 99.5

> <clash_score>
0

> <docking_score>
-10.089984893798828

> <overlap_score>
0.978526771068573

$$$$
RUT-UNI-630c5802-20_1
  -OEChem-09012022313D

 52 54  0     0  0  0  0  0  0999 V2000
    4.0980    2.1130   19.5350 C   0  0  0  0  0  0  0  0  0  0  0  0
    4.2970    1.6690   20.8430 C   0  0  0  0  0  0  0  0  0  0  0  0
    4.9400    1.7060   18.5060 C   0  0  0  0  0  0  0  0  0  0  0  0
    5.3360    0.8000   21.1530 C   0  0  0  0  0  0  0  0  0  0  0  0
   12.1492    0.9177   23.2963 C   0  0  0  0  0  0  0  0  0  0  0  0
   13.2765    1.7042   23.2061 C   0  0  0  0  0  0  0  0  0  0  0  0
   11.2834    3.0125   23.8110 C   0  0  0  0  0  0  0  0  0  0  0  0
   10.9945    1.6755   23.6465 C   0  0  0  0  0  0  0  0  0  0  0  0
    5.9810    0.8330   18.8060 C   0  0  0  0  0  0  0  0  0  0  0  0
    6.1600    0.3870   20.1140 C   0  0  0  0  0  0  0  0  0  0  0  0
    8.9510    0.1280   21.6880 C   0  0  0  0  0  0  0  0  0  0  0  0
    8.1555   -4.7859   22.8380 C   0  0  0  0  0  0  0  0  0  0  0  0
    7.4572   -3.7952   25.6307 C   0  0  0  0  0  0  0  0  0  0  0  0
    9.8348   -3.1530   26.0006 C   0  0  0  0  0  0  0  0  0  0  0  0
    9.6250    1.0842   23.8168 C   0  0  0  0  0  0  0  0  0  0  0  0
    8.0810   -0.9750   21.0820 C   0  0  0  0  0  0  0  0  0  0  0  0
    9.1703   -4.4501   23.9242 C   0  0  0  0  0  0  0  0  0  0  0  0
    8.5177   -1.9616   24.2334 C   0  0  0  0  0  0  0  0  0  0  0  0
    9.7362   -1.3613   23.5347 C   0  0  0  0  0  0  0  0  0  0  0  0
    8.7480   -3.3359   24.9198 C   0  0  0  0  0  0  0  0  0  0  0  0
    6.9440    0.2550   18.0100 N   0  0  0  0  0  0  0  0  0  0  0  0
    7.6830   -0.5170   18.7600 N   0  0  0  0  0  0  0  0  0  0  0  0
    7.2210   -0.4620   20.0350 N   0  0  0  0  0  0  0  0  0  0  0  0
    9.4200   -0.0840   22.9530 N   0  0  0  0  0  0  0  0  0  0  0  0
    9.1870    1.1500   21.0630 O   0  0  0  0  0  0  0  0  0  0  0  0
   12.9408    3.3492   23.5432 S   0  0  0  0  0  0  0  0  0  0  0  0
    3.2714    2.7873   19.3199 H   0  0  0  0  0  0  0  0  0  0  0  0
    3.6281    2.0093   21.6291 H   0  0  0  0  0  0  0  0  0  0  0  0
    4.7823    2.0669   17.4883 H   0  0  0  0  0  0  0  0  0  0  0  0
    5.4954    0.4562   22.1797 H   0  0  0  0  0  0  0  0  0  0  0  0
   12.1571   -0.1503   23.1189 H   0  0  0  0  0  0  0  0  0  0  0  0
   14.2812    1.3915   22.9592 H   0  0  0  0  0  0  0  0  0  0  0  0
   10.6039    3.8104   24.0767 H   0  0  0  0  0  0  0  0  0  0  0  0
    7.8826   -3.9039   22.2524 H   0  0  0  0  0  0  0  0  0  0  0  0
    8.5842   -5.5189   22.1462 H   0  0  0  0  0  0  0  0  0  0  0  0
    7.2447   -5.2238   23.2555 H   0  0  0  0  0  0  0  0  0  0  0  0
    6.6432   -3.9431   24.9114 H   0  0  0  0  0  0  0  0  0  0  0  0
    7.6103   -4.7442   26.1568 H   0  0  0  0  0  0  0  0  0  0  0  0
    7.1122   -3.0574   26.3626 H   0  0  0  0  0  0  0  0  0  0  0  0
   10.7859   -2.8257   25.5683 H   0  0  0  0  0  0  0  0  0  0  0  0
   10.0164   -4.0874   26.5431 H   0  0  0  0  0  0  0  0  0  0  0  0
    9.5356   -2.3966   26.7354 H   0  0  0  0  0  0  0  0  0  0  0  0
    9.4669    0.7688   24.8539 H   0  0  0  0  0  0  0  0  0  0  0  0
    8.8478    1.8177   23.5779 H   0  0  0  0  0  0  0  0  0  0  0  0
    8.7172   -1.7473   20.6477 H   0  0  0  0  0  0  0  0  0  0  0  0
    7.4468   -1.4098   21.8557 H   0  0  0  0  0  0  0  0  0  0  0  0
    9.4022   -5.3708   24.4736 H   0  0  0  0  0  0  0  0  0  0  0  0
   10.1067   -4.1556   23.4321 H   0  0  0  0  0  0  0  0  0  0  0  0
    7.7094   -2.0620   23.4951 H   0  0  0  0  0  0  0  0  0  0  0  0
    8.1419   -1.2392   24.9703 H   0  0  0  0  0  0  0  0  0  0  0  0
   10.5613   -1.1950   24.2322 H   0  0  0  0  0  0  0  0  0  0  0  0
   10.0898   -2.0004   22.7213 H   0  0  0  0  0  0  0  0  0  0  0  0
  1  2  1  0  0  0  0
  1  3  2  0  0  0  0
  2  4  2  0  0  0  0
  3  9  1  0  0  0  0
  4 10  1  0  0  0  0
  5  6  2  0  0  0  0
  5  8  1  0  0  0  0
  6 26  1  0  0  0  0
  7  8  2  0  0  0  0
  7 26  1  0  0  0  0
  8 15  1  0  0  0  0
  9 10  2  0  0  0  0
  9 21  1  0  0  0  0
 10 23  1  0  0  0  0
 11 16  1  0  0  0  0
 11 24  1  0  0  0  0
 11 25  2  0  0  0  0
 12 17  1  0  0  0  0
 13 20  1  0  0  0  0
 14 20  1  0  0  0  0
 15 24  1  0  0  0  0
 16 23  1  0  0  0  0
 17 20  1  0  0  0  0
 18 19  1  0  0  0  0
 18 20  1  0  0  0  0
 19 24  1  0  0  0  0
 21 22  2  0  0  0  0
 22 23  1  0  0  0  0
  1 27  1  0  0  0  0
  2 28  1  0  0  0  0
  3 29  1  0  0  0  0
  4 30  1  0  0  0  0
  5 31  1  0  0  0  0
  6 32  1  0  0  0  0
  7 33  1  0  0  0  0
 12 34  1  0  0  0  0
 12 35  1  0  0  0  0
 12 36  1  0  0  0  0
 13 37  1  0  0  0  0
 13 38  1  0  0  0  0
 13 39  1  0  0  0  0
 14 40  1  0  0  0  0
 14 41  1  0  0  0  0
 14 42  1  0  0  0  0
 15 43  1  0  0  0  0
 15 44  1  0  0  0  0
 16 45  1  0  0  0  0
 16 46  1  0  0  0  0
 17 47  1  0  0  0  0
 17 48  1  0  0  0  0
 18 49  1  0  0  0  0
 18 50  1  0  0  0  0
 19 51  1  0  0  0  0
 19 52  1  0  0  0  0
M  END
> <Protease Assay (Fluorescence) Dose-Response: IC50 (µM)>
78.5

> <clash_score>
0

> <docking_score>
-8.970911979675293

> <overlap_score>
0.8722419738769531

$$$$
ALP-POS-c0c213c9-3_1
  -OEChem-09012022313D

 61 65  0     0  0  0  0  0  0999 V2000
    6.9680   -7.1078   27.0509 C   0  0  0  0  0  0  0  0  0  0  0  0
    6.0175   -6.1787   26.6279 C   0  0  0  0  0  0  0  0  0  0  0  0
    8.3220   -6.8833   26.8015 C   0  0  0  0  0  0  0  0  0  0  0  0
    4.0980    2.1130   19.5350 C   0  0  0  0  0  0  0  0  0  0  0  0
    4.2970    1.6690   20.8430 C   0  0  0  0  0  0  0  0  0  0  0  0
    6.4209   -5.0252   25.9555 C   0  0  0  0  0  0  0  0  0  0  0  0
    8.7253   -5.7297   26.1291 C   0  0  0  0  0  0  0  0  0  0  0  0
    9.3433   -3.6216   24.2201 C   0  0  0  0  0  0  0  0  0  0  0  0
    7.4443   -2.4324   25.1238 C   0  0  0  0  0  0  0  0  0  0  0  0
    4.9400    1.7060   18.5060 C   0  0  0  0  0  0  0  0  0  0  0  0
    5.3360    0.8000   21.1530 C   0  0  0  0  0  0  0  0  0  0  0  0
    9.7452   -2.4682   23.5467 C   0  0  0  0  0  0  0  0  0  0  0  0
    7.8463   -1.2788   24.4504 C   0  0  0  0  0  0  0  0  0  0  0  0
    7.7748   -4.8006   25.7060 C   0  0  0  0  0  0  0  0  0  0  0  0
    8.1928   -3.6038   25.0087 C   0  0  0  0  0  0  0  0  0  0  0  0
    5.9810    0.8330   18.8060 C   0  0  0  0  0  0  0  0  0  0  0  0
    6.1600    0.3870   20.1140 C   0  0  0  0  0  0  0  0  0  0  0  0
    8.9967   -1.2968   23.6618 C   0  0  0  0  0  0  0  0  0  0  0  0
   11.4774    1.0758   22.8509 C   0  0  0  0  0  0  0  0  0  0  0  0
    8.9510    0.1280   21.6880 C   0  0  0  0  0  0  0  0  0  0  0  0
   11.3040    3.6010   23.1105 C   0  0  0  0  0  0  0  0  0  0  0  0
   12.3849    2.6018   21.1265 C   0  0  0  0  0  0  0  0  0  0  0  0
   12.4758    4.5569   23.2809 C   0  0  0  0  0  0  0  0  0  0  0  0
   13.5685    3.5441   21.2783 C   0  0  0  0  0  0  0  0  0  0  0  0
   10.2263    0.8608   23.6645 C   0  0  0  0  0  0  0  0  0  0  0  0
    8.0810   -0.9750   21.0820 C   0  0  0  0  0  0  0  0  0  0  0  0
    6.9440    0.2550   18.0100 N   0  0  0  0  0  0  0  0  0  0  0  0
    7.6830   -0.5170   18.7600 N   0  0  0  0  0  0  0  0  0  0  0  0
    7.2210   -0.4620   20.0350 N   0  0  0  0  0  0  0  0  0  0  0  0
   11.7219    2.3770   22.4136 N   0  0  0  0  0  0  0  0  0  0  0  0
    9.4200   -0.0840   22.9530 N   0  0  0  0  0  0  0  0  0  0  0  0
   13.1046    4.7996   21.9457 N   0  3  0  0  0  0  0  0  0  0  0  0
   12.2152    0.1158   22.6143 O   0  0  0  0  0  0  0  0  0  0  0  0
    9.1870    1.1500   21.0630 O   0  0  0  0  0  0  0  0  0  0  0  0
    6.6539   -8.0051   27.5760 H   0  0  0  0  0  0  0  0  0  0  0  0
    4.9635   -6.3526   26.8235 H   0  0  0  0  0  0  0  0  0  0  0  0
    9.0627   -7.6056   27.1318 H   0  0  0  0  0  0  0  0  0  0  0  0
    3.2714    2.7873   19.3199 H   0  0  0  0  0  0  0  0  0  0  0  0
    3.6281    2.0094   21.6291 H   0  0  0  0  0  0  0  0  0  0  0  0
    5.6678   -4.3103   25.6323 H   0  0  0  0  0  0  0  0  0  0  0  0
    9.7843   -5.5679   25.9423 H   0  0  0  0  0  0  0  0  0  0  0  0
    9.9366   -4.5276   24.1201 H   0  0  0  0  0  0  0  0  0  0  0  0
    6.5446   -2.4025   25.7337 H   0  0  0  0  0  0  0  0  0  0  0  0
    4.7823    2.0669   17.4883 H   0  0  0  0  0  0  0  0  0  0  0  0
    5.4954    0.4562   22.1797 H   0  0  0  0  0  0  0  0  0  0  0  0
   10.6422   -2.4943   22.9331 H   0  0  0  0  0  0  0  0  0  0  0  0
    7.2545   -0.3718   24.5456 H   0  0  0  0  0  0  0  0  0  0  0  0
   10.9029    3.3003   24.0847 H   0  0  0  0  0  0  0  0  0  0  0  0
   10.4979    4.0994   22.5654 H   0  0  0  0  0  0  0  0  0  0  0  0
   11.6991    3.0071   20.3787 H   0  0  0  0  0  0  0  0  0  0  0  0
   12.7177    1.6229   20.7573 H   0  0  0  0  0  0  0  0  0  0  0  0
   12.1648    5.5283   23.6808 H   0  0  0  0  0  0  0  0  0  0  0  0
   13.2511    4.1312   23.9251 H   0  0  0  0  0  0  0  0  0  0  0  0
   14.3451    3.1142   21.9167 H   0  0  0  0  0  0  0  0  0  0  0  0
   14.0027    3.8248   20.3136 H   0  0  0  0  0  0  0  0  0  0  0  0
    9.7186    1.8155   23.7644 H   0  0  0  0  0  0  0  0  0  0  0  0
   10.5167    0.4768   24.6380 H   0  0  0  0  0  0  0  0  0  0  0  0
    8.7136   -1.7499   20.6462 H   0  0  0  0  0  0  0  0  0  0  0  0
    7.4415   -1.4060   21.8540 H   0  0  0  0  0  0  0  0  0  0  0  0
   12.4308    5.2811   21.3346 H   0  0  0  0  0  0  0  0  0  0  0  0
   13.8983    5.4471   22.0513 H   0  0  0  0  0  0  0  0  0  0  0  0
  1  2  1  0  0  0  0
  1  3  2  0  0  0  0
  2  6  2  0  0  0  0
  3  7  1  0  0  0  0
  4  5  1  0  0  0  0
  4 10  2  0  0  0  0
  5 11  2  0  0  0  0
  6 14  1  0  0  0  0
  7 14  2  0  0  0  0
  8 12  2  0  0  0  0
  8 15  1  0  0  0  0
  9 13  1  0  0  0  0
  9 15  2  0  0  0  0
 10 16  1  0  0  0  0
 11 17  1  0  0  0  0
 12 18  1  0  0  0  0
 13 18  2  0  0  0  0
 14 15  1  0  0  0  0
 16 17  2  0  0  0  0
 16 27  1  0  0  0  0
 17 29  1  0  0  0  0
 18 31  1  0  0  0  0
 19 25  1  0  0  0  0
 19 30  1  0  0  0  0
 19 33  2  0  0  0  0
 20 26  1  0  0  0  0
 20 31  1  0  0  0  0
 20 34  2  0  0  0  0
 21 23  1  0  0  0  0
 21 30  1  0  0  0  0
 22 24  1  0  0  0  0
 22 30  1  0  0  0  0
 23 32  1  0  0  0  0
 24 32  1  0  0  0  0
 25 31  1  0  0  0  0
 26 29  1  0  0  0  0
 27 28  2  0  0  0  0
 28 29  1  0  0  0  0
  1 35  1  0  0  0  0
  2 36  1  0  0  0  0
  3 37  1  0  0  0  0
  4 38  1  0  0  0  0
  5 39  1  0  0  0  0
  6 40  1  0  0  0  0
  7 41  1  0  0  0  0
  8 42  1  0  0  0  0
  9 43  1  0  0  0  0
 10 44  1  0  0  0  0
 11 45  1  0  0  0  0
 12 46  1  0  0  0  0
 13 47  1  0  0  0  0
 21 48  1  0  0  0  0
 21 49  1  0  0  0  0
 22 50  1  0  0  0  0
 22 51  1  0  0  0  0
 23 52  1  0  0  0  0
 23 53  1  0  0  0  0
 24 54  1  0  0  0  0
 24 55  1  0  0  0  0
 25 56  1  0  0  0  0
 25 57  1  0  0  0  0
 26 58  1  0  0  0  0
 26 59  1  0  0  0  0
 32 60  1  0  0  0  0
 32 61  1  0  0  0  0
M  CHG  1  32   1
M  END
> <Protease Assay (Fluorescence) Dose-Response: IC50 (µM)>
> 99.5

> <clash_score>
0

> <docking_score>
-9.185735702514648

> <overlap_score>
0.9243338108062744

$$$$
